MODEL 1
REMARK VINA RESULT:      -9.1      0.000      0.000
REMARK  4 active torsions:
REMARK  status: ('A' for Active; 'I' for Inactive)
REMARK    1  A    between atoms: C_4  and  N_5 
REMARK       I    between atoms: N_5  and  C_6 
REMARK    2  A    between atoms: C_6  and  C_7 
REMARK    3  A    between atoms: C_7  and  C_8 
REMARK    4  A    between atoms: C_11  and  O_12 
ROOT
HETATM    1  N   UNL     1       7.698  25.516  56.373  1.00  0.00    -0.325 N 
HETATM    2  C   UNL     1       7.175  26.787  56.487  1.00  0.00     0.226 C 
HETATM    3  O   UNL     1       6.628  27.434  55.599  1.00  0.00    -0.273 OA
HETATM    4  H   UNL     1       8.152  25.102  57.186  1.00  0.00     0.169 HD
ENDROOT
BRANCH   1   5
HETATM    5  C   UNL     1       7.744  24.671  55.239  1.00  0.00     0.065 A 
HETATM    6  C   UNL     1       7.583  25.133  53.928  1.00  0.00     0.038 A 
HETATM    7  C   UNL     1       7.643  24.245  52.849  1.00  0.00    -0.059 A 
HETATM    8  C   UNL     1       7.502  24.740  51.439  1.00  0.00     0.048 C 
HETATM    9  C   UNL     1       7.878  22.890  53.098  1.00  0.00     0.020 A 
HETATM   10  C   UNL     1       8.039  22.420  54.412  1.00  0.00    -0.005 A 
HETATM   11  C   UNL     1       7.972  23.312  55.503  1.00  0.00     0.093 A 
HETATM   12  C   UNL     1       8.271  21.063  54.678  1.00  0.00     0.015 A 
HETATM   13  N   UNL     1       8.122  22.885  56.783  1.00  0.00    -0.258 NA
HETATM   14  C   UNL     1       8.344  21.569  56.996  1.00  0.00     0.117 A 
HETATM   15  C   UNL     1       8.427  20.630  55.988  1.00  0.00     0.020 A 
ENDBRANCH   1   5
BRANCH   2  16
HETATM   16  C   UNL     1       7.340  27.365  57.885  1.00  0.00     0.141 C 
BRANCH  16  17
HETATM   17  C   UNL     1       8.223  28.588  57.904  1.00  0.00    -0.049 A 
HETATM   18  C   UNL     1       9.375  28.639  57.105  1.00  0.00     0.010 A 
HETATM   19  C   UNL     1      10.208  29.760  57.127  1.00  0.00     0.037 A 
HETATM   20  C   UNL     1       9.886  30.833  57.950  1.00  0.00     0.065 A 
HETATM   21  C   UNL     1       8.749  30.802  58.749  1.00  0.00     0.037 A 
HETATM   22  C   UNL     1       7.917  29.681  58.728  1.00  0.00     0.010 A 
BRANCH  20  23
HETATM   23  O   UNL     1      10.671  31.946  58.005  1.00  0.00    -0.361 OA
HETATM   24  H   UNL     1      10.285  32.560  58.652  1.00  0.00     0.217 HD
ENDBRANCH  20  23
ENDBRANCH  16  17
ENDBRANCH   2  16
TORSDOF 4
ENDMDL
MODEL 2
REMARK VINA RESULT:      -8.9      3.115      6.986
REMARK  4 active torsions:
REMARK  status: ('A' for Active; 'I' for Inactive)
REMARK    1  A    between atoms: C_4  and  N_5 
REMARK       I    between atoms: N_5  and  C_6 
REMARK    2  A    between atoms: C_6  and  C_7 
REMARK    3  A    between atoms: C_7  and  C_8 
REMARK    4  A    between atoms: C_11  and  O_12 
ROOT
HETATM    1  N   UNL     1       6.667  24.827  56.308  1.00  0.00    -0.325 N 
HETATM    2  C   UNL     1       7.931  24.718  56.849  1.00  0.00     0.226 C 
HETATM    3  O   UNL     1       8.714  25.638  57.064  1.00  0.00    -0.273 OA
HETATM    4  H   UNL     1       6.128  23.975  56.157  1.00  0.00     0.169 HD
ENDROOT
BRANCH   1   5
HETATM    5  C   UNL     1       5.984  25.985  55.868  1.00  0.00     0.065 A 
HETATM    6  C   UNL     1       5.637  27.043  56.716  1.00  0.00     0.038 A 
HETATM    7  C   UNL     1       4.963  28.163  56.217  1.00  0.00    -0.059 A 
HETATM    8  C   UNL     1       4.616  29.313  57.115  1.00  0.00     0.048 C 
HETATM    9  C   UNL     1       4.653  28.216  54.854  1.00  0.00     0.020 A 
HETATM   10  C   UNL     1       4.998  27.157  53.998  1.00  0.00    -0.005 A 
HETATM   11  C   UNL     1       5.670  26.023  54.500  1.00  0.00     0.093 A 
HETATM   12  C   UNL     1       4.689  27.194  52.632  1.00  0.00     0.015 A 
HETATM   13  N   UNL     1       6.013  24.984  53.697  1.00  0.00    -0.258 NA
HETATM   14  C   UNL     1       5.697  25.059  52.385  1.00  0.00     0.117 A 
HETATM   15  C   UNL     1       5.044  26.131  51.811  1.00  0.00     0.020 A 
ENDBRANCH   1   5
BRANCH   2  16
HETATM   16  C   UNL     1       8.305  23.281  57.179  1.00  0.00     0.141 C 
BRANCH  16  17
HETATM   17  C   UNL     1       8.318  22.393  55.960  1.00  0.00    -0.049 A 
HETATM   18  C   UNL     1       8.762  22.894  54.726  1.00  0.00     0.010 A 
HETATM   19  C   UNL     1       8.764  22.086  53.588  1.00  0.00     0.037 A 
HETATM   20  C   UNL     1       8.320  20.772  53.684  1.00  0.00     0.065 A 
HETATM   21  C   UNL     1       7.877  20.256  54.896  1.00  0.00     0.037 A 
HETATM   22  C   UNL     1       7.875  21.064  56.034  1.00  0.00     0.010 A 
BRANCH  20  23
HETATM   23  O   UNL     1       8.302  19.947  52.598  1.00  0.00    -0.361 OA
HETATM   24  H   UNL     1       9.169  19.996  52.163  1.00  0.00     0.217 HD
ENDBRANCH  20  23
ENDBRANCH  16  17
ENDBRANCH   2  16
TORSDOF 4
ENDMDL
MODEL 3
REMARK VINA RESULT:      -8.8      2.981      7.211
REMARK  4 active torsions:
REMARK  status: ('A' for Active; 'I' for Inactive)
REMARK    1  A    between atoms: C_4  and  N_5 
REMARK       I    between atoms: N_5  and  C_6 
REMARK    2  A    between atoms: C_6  and  C_7 
REMARK    3  A    between atoms: C_7  and  C_8 
REMARK    4  A    between atoms: C_11  and  O_12 
ROOT
HETATM    1  N   UNL     1       7.114  26.289  53.479  1.00  0.00    -0.325 N 
HETATM    2  C   UNL     1       6.684  25.006  53.214  1.00  0.00     0.226 C 
HETATM    3  O   UNL     1       5.565  24.551  53.431  1.00  0.00    -0.273 OA
HETATM    4  H   UNL     1       8.083  26.530  53.274  1.00  0.00     0.169 HD
ENDROOT
BRANCH   1   5
HETATM    5  C   UNL     1       6.401  27.364  54.061  1.00  0.00     0.065 A 
HETATM    6  C   UNL     1       5.363  28.040  53.412  1.00  0.00     0.038 A 
HETATM    7  C   UNL     1       4.695  29.094  54.044  1.00  0.00    -0.059 A 
HETATM    8  C   UNL     1       3.560  29.802  53.364  1.00  0.00     0.048 C 
HETATM    9  C   UNL     1       5.071  29.454  55.341  1.00  0.00     0.020 A 
HETATM   10  C   UNL     1       6.114  28.779  55.999  1.00  0.00    -0.005 A 
HETATM   11  C   UNL     1       6.794  27.722  55.360  1.00  0.00     0.093 A 
HETATM   12  C   UNL     1       6.505  29.132  57.297  1.00  0.00     0.015 A 
HETATM   13  N   UNL     1       7.806  27.054  55.971  1.00  0.00    -0.258 NA
HETATM   14  C   UNL     1       8.153  27.425  57.223  1.00  0.00     0.117 A 
HETATM   15  C   UNL     1       7.539  28.446  57.921  1.00  0.00     0.020 A 
ENDBRANCH   1   5
BRANCH   2  16
HETATM   16  C   UNL     1       7.771  24.141  52.593  1.00  0.00     0.141 C 
BRANCH  16  17
HETATM   17  C   UNL     1       8.085  22.922  53.424  1.00  0.00    -0.049 A 
HETATM   18  C   UNL     1       7.891  21.637  52.894  1.00  0.00     0.010 A 
HETATM   19  C   UNL     1       8.163  20.502  53.660  1.00  0.00     0.037 A 
HETATM   20  C   UNL     1       8.631  20.653  54.961  1.00  0.00     0.065 A 
HETATM   21  C   UNL     1       8.830  21.916  55.504  1.00  0.00     0.037 A 
HETATM   22  C   UNL     1       8.558  23.051  54.738  1.00  0.00     0.010 A 
BRANCH  20  23
HETATM   23  O   UNL     1       8.907  19.573  55.746  1.00  0.00    -0.361 OA
HETATM   24  H   UNL     1       9.814  19.663  56.082  1.00  0.00     0.217 HD
ENDBRANCH  20  23
ENDBRANCH  16  17
ENDBRANCH   2  16
TORSDOF 4
ENDMDL
MODEL 4
REMARK VINA RESULT:      -8.7      2.773      7.446
REMARK  4 active torsions:
REMARK  status: ('A' for Active; 'I' for Inactive)
REMARK    1  A    between atoms: C_4  and  N_5 
REMARK       I    between atoms: N_5  and  C_6 
REMARK    2  A    between atoms: C_6  and  C_7 
REMARK    3  A    between atoms: C_7  and  C_8 
REMARK    4  A    between atoms: C_11  and  O_12 
ROOT
HETATM    1  N   UNL     1       7.391  26.250  55.988  1.00  0.00    -0.325 N 
HETATM    2  C   UNL     1       7.001  24.995  56.404  1.00  0.00     0.226 C 
HETATM    3  O   UNL     1       5.857  24.637  56.670  1.00  0.00    -0.273 OA
HETATM    4  H   UNL     1       8.383  26.423  55.826  1.00  0.00     0.169 HD
ENDROOT
BRANCH   1   5
HETATM    5  C   UNL     1       6.600  27.406  55.784  1.00  0.00     0.065 A 
HETATM    6  C   UNL     1       5.633  27.509  54.778  1.00  0.00     0.038 A 
HETATM    7  C   UNL     1       4.882  28.680  54.631  1.00  0.00    -0.059 A 
HETATM    8  C   UNL     1       3.822  28.784  53.574  1.00  0.00     0.048 C 
HETATM    9  C   UNL     1       5.103  29.743  55.512  1.00  0.00     0.020 A 
HETATM   10  C   UNL     1       6.074  29.646  56.523  1.00  0.00    -0.005 A 
HETATM   11  C   UNL     1       6.838  28.470  56.669  1.00  0.00     0.093 A 
HETATM   12  C   UNL     1       6.310  30.705  57.410  1.00  0.00     0.015 A 
HETATM   13  N   UNL     1       7.784  28.349  57.635  1.00  0.00    -0.258 NA
HETATM   14  C   UNL     1       7.980  29.393  58.470  1.00  0.00     0.117 A 
HETATM   15  C   UNL     1       7.276  30.579  58.400  1.00  0.00     0.020 A 
ENDBRANCH   1   5
BRANCH   2  16
HETATM   16  C   UNL     1       8.168  24.026  56.516  1.00  0.00     0.141 C 
BRANCH  16  17
HETATM   17  C   UNL     1       8.122  22.942  55.467  1.00  0.00    -0.049 A 
HETATM   18  C   UNL     1       8.076  21.592  55.850  1.00  0.00     0.010 A 
HETATM   19  C   UNL     1       8.049  20.580  54.888  1.00  0.00     0.037 A 
HETATM   20  C   UNL     1       8.066  20.920  53.540  1.00  0.00     0.065 A 
HETATM   21  C   UNL     1       8.110  22.251  53.141  1.00  0.00     0.037 A 
HETATM   22  C   UNL     1       8.138  23.262  54.102  1.00  0.00     0.010 A 
BRANCH  20  23
HETATM   23  O   UNL     1       8.043  19.965  52.566  1.00  0.00    -0.361 OA
HETATM   24  H   UNL     1       8.899  19.975  52.108  1.00  0.00     0.217 HD
ENDBRANCH  20  23
ENDBRANCH  16  17
ENDBRANCH   2  16
TORSDOF 4
ENDMDL
MODEL 5
REMARK VINA RESULT:      -8.7      4.027      7.620
REMARK  4 active torsions:
REMARK  status: ('A' for Active; 'I' for Inactive)
REMARK    1  A    between atoms: C_4  and  N_5 
REMARK       I    between atoms: N_5  and  C_6 
REMARK    2  A    between atoms: C_6  and  C_7 
REMARK    3  A    between atoms: C_7  and  C_8 
REMARK    4  A    between atoms: C_11  and  O_12 
ROOT
HETATM    1  N   UNL     1       6.866  25.721  52.172  1.00  0.00    -0.325 N 
HETATM    2  C   UNL     1       5.619  25.895  51.609  1.00  0.00     0.226 C 
HETATM    3  O   UNL     1       4.648  25.157  51.744  1.00  0.00    -0.273 OA
HETATM    4  H   UNL     1       7.596  26.399  51.955  1.00  0.00     0.169 HD
ENDROOT
BRANCH   1   5
HETATM    5  C   UNL     1       7.327  24.677  53.008  1.00  0.00     0.065 A 
HETATM    6  C   UNL     1       7.552  23.372  52.557  1.00  0.00     0.038 A 
HETATM    7  C   UNL     1       8.013  22.385  53.434  1.00  0.00    -0.059 A 
HETATM    8  C   UNL     1       8.285  20.992  52.948  1.00  0.00     0.048 C 
HETATM    9  C   UNL     1       8.257  22.725  54.768  1.00  0.00     0.020 A 
HETATM   10  C   UNL     1       8.032  24.033  55.228  1.00  0.00    -0.005 A 
HETATM   11  C   UNL     1       7.560  25.028  54.347  1.00  0.00     0.093 A 
HETATM   12  C   UNL     1       8.268  24.387  56.563  1.00  0.00     0.015 A 
HETATM   13  N   UNL     1       7.332  26.299  54.764  1.00  0.00    -0.258 NA
HETATM   14  C   UNL     1       7.572  26.600  56.059  1.00  0.00     0.117 A 
HETATM   15  C   UNL     1       8.036  25.689  56.987  1.00  0.00     0.020 A 
ENDBRANCH   1   5
BRANCH   2  16
HETATM   16  C   UNL     1       5.532  27.150  50.753  1.00  0.00     0.141 C 
BRANCH  16  17
HETATM   17  C   UNL     1       4.525  27.020  49.638  1.00  0.00    -0.049 A 
HETATM   18  C   UNL     1       3.400  27.859  49.602  1.00  0.00     0.010 A 
HETATM   19  C   UNL     1       2.453  27.736  48.583  1.00  0.00     0.037 A 
HETATM   20  C   UNL     1       2.633  26.773  47.597  1.00  0.00     0.065 A 
HETATM   21  C   UNL     1       3.741  25.933  47.614  1.00  0.00     0.037 A 
HETATM   22  C   UNL     1       4.687  26.055  48.633  1.00  0.00     0.010 A 
BRANCH  20  23
HETATM   23  O   UNL     1       1.733  26.616  46.584  1.00  0.00    -0.361 OA
HETATM   24  H   UNL     1       1.382  27.491  46.350  1.00  0.00     0.217 HD
ENDBRANCH  20  23
ENDBRANCH  16  17
ENDBRANCH   2  16
TORSDOF 4
ENDMDL
MODEL 6
REMARK VINA RESULT:      -8.7      4.967      8.176
REMARK  4 active torsions:
REMARK  status: ('A' for Active; 'I' for Inactive)
REMARK    1  A    between atoms: C_4  and  N_5 
REMARK       I    between atoms: N_5  and  C_6 
REMARK    2  A    between atoms: C_6  and  C_7 
REMARK    3  A    between atoms: C_7  and  C_8 
REMARK    4  A    between atoms: C_11  and  O_12 
ROOT
HETATM    1  N   UNL     1       6.004  26.266  50.778  1.00  0.00    -0.325 N 
HETATM    2  C   UNL     1       6.067  25.287  51.747  1.00  0.00     0.226 C 
HETATM    3  O   UNL     1       5.118  24.678  52.232  1.00  0.00    -0.273 OA
HETATM    4  H   UNL     1       6.871  26.713  50.482  1.00  0.00     0.169 HD
ENDROOT
BRANCH   1   5
HETATM    5  C   UNL     1       4.867  26.805  50.130  1.00  0.00     0.065 A 
HETATM    6  C   UNL     1       4.282  26.230  48.997  1.00  0.00     0.038 A 
HETATM    7  C   UNL     1       3.157  26.811  48.404  1.00  0.00    -0.059 A 
HETATM    8  C   UNL     1       2.507  26.181  47.208  1.00  0.00     0.048 C 
HETATM    9  C   UNL     1       2.616  27.970  48.969  1.00  0.00     0.020 A 
HETATM   10  C   UNL     1       3.199  28.553  50.106  1.00  0.00    -0.005 A 
HETATM   11  C   UNL     1       4.339  27.974  50.701  1.00  0.00     0.093 A 
HETATM   12  C   UNL     1       2.671  29.718  50.680  1.00  0.00     0.015 A 
HETATM   13  N   UNL     1       4.925  28.516  51.798  1.00  0.00    -0.258 NA
HETATM   14  C   UNL     1       4.385  29.639  52.321  1.00  0.00     0.117 A 
HETATM   15  C   UNL     1       3.270  30.270  51.805  1.00  0.00     0.020 A 
ENDBRANCH   1   5
BRANCH   2  16
HETATM   16  C   UNL     1       7.491  25.002  52.200  1.00  0.00     0.141 C 
BRANCH  16  17
HETATM   17  C   UNL     1       7.560  23.910  53.239  1.00  0.00    -0.049 A 
HETATM   18  C   UNL     1       7.420  24.222  54.600  1.00  0.00     0.010 A 
HETATM   19  C   UNL     1       7.497  23.222  55.571  1.00  0.00     0.037 A 
HETATM   20  C   UNL     1       7.714  21.906  55.179  1.00  0.00     0.065 A 
HETATM   21  C   UNL     1       7.854  21.576  53.836  1.00  0.00     0.037 A 
HETATM   22  C   UNL     1       7.778  22.576  52.865  1.00  0.00     0.010 A 
BRANCH  20  23
HETATM   23  O   UNL     1       7.799  20.897  56.093  1.00  0.00    -0.361 OA
HETATM   24  H   UNL     1       7.799  20.051  55.615  1.00  0.00     0.217 HD
ENDBRANCH  20  23
ENDBRANCH  16  17
ENDBRANCH   2  16
TORSDOF 4
ENDMDL
MODEL 7
REMARK VINA RESULT:      -8.6      3.121      7.809
REMARK  4 active torsions:
REMARK  status: ('A' for Active; 'I' for Inactive)
REMARK    1  A    between atoms: C_4  and  N_5 
REMARK       I    between atoms: N_5  and  C_6 
REMARK    2  A    between atoms: C_6  and  C_7 
REMARK    3  A    between atoms: C_7  and  C_8 
REMARK    4  A    between atoms: C_11  and  O_12 
ROOT
HETATM    1  N   UNL     1       7.556  26.660  54.318  1.00  0.00    -0.325 N 
HETATM    2  C   UNL     1       7.135  25.348  54.276  1.00  0.00     0.226 C 
HETATM    3  O   UNL     1       6.290  24.829  55.000  1.00  0.00    -0.273 OA
HETATM    4  H   UNL     1       8.288  26.957  53.674  1.00  0.00     0.169 HD
ENDROOT
BRANCH   1   5
HETATM    5  C   UNL     1       7.142  27.701  55.184  1.00  0.00     0.065 A 
HETATM    6  C   UNL     1       7.791  28.007  56.385  1.00  0.00     0.038 A 
HETATM    7  C   UNL     1       7.333  29.051  57.195  1.00  0.00    -0.059 A 
HETATM    8  C   UNL     1       8.044  29.402  58.469  1.00  0.00     0.048 C 
HETATM    9  C   UNL     1       6.224  29.794  56.781  1.00  0.00     0.020 A 
HETATM   10  C   UNL     1       5.567  29.492  55.576  1.00  0.00    -0.005 A 
HETATM   11  C   UNL     1       6.022  28.434  54.761  1.00  0.00     0.093 A 
HETATM   12  C   UNL     1       4.451  30.225  55.150  1.00  0.00     0.015 A 
HETATM   13  N   UNL     1       5.406  28.118  53.593  1.00  0.00    -0.258 NA
HETATM   14  C   UNL     1       4.333  28.850  53.219  1.00  0.00     0.117 A 
HETATM   15  C   UNL     1       3.824  29.902  53.954  1.00  0.00     0.020 A 
ENDBRANCH   1   5
BRANCH   2  16
HETATM   16  C   UNL     1       7.843  24.540  53.199  1.00  0.00     0.141 C 
BRANCH  16  17
HETATM   17  C   UNL     1       8.170  23.138  53.649  1.00  0.00    -0.049 A 
HETATM   18  C   UNL     1       7.720  22.035  52.906  1.00  0.00     0.010 A 
HETATM   19  C   UNL     1       8.003  20.733  53.323  1.00  0.00     0.037 A 
HETATM   20  C   UNL     1       8.739  20.533  54.485  1.00  0.00     0.065 A 
HETATM   21  C   UNL     1       9.194  21.612  55.235  1.00  0.00     0.037 A 
HETATM   22  C   UNL     1       8.910  22.914  54.819  1.00  0.00     0.010 A 
BRANCH  20  23
HETATM   23  O   UNL     1       9.037  19.279  54.931  1.00  0.00    -0.361 OA
HETATM   24  H   UNL     1       8.639  18.636  54.321  1.00  0.00     0.217 HD
ENDBRANCH  20  23
ENDBRANCH  16  17
ENDBRANCH   2  16
TORSDOF 4
ENDMDL
MODEL 8
REMARK VINA RESULT:      -8.6      3.418      5.427
REMARK  4 active torsions:
REMARK  status: ('A' for Active; 'I' for Inactive)
REMARK    1  A    between atoms: C_4  and  N_5 
REMARK       I    between atoms: N_5  and  C_6 
REMARK    2  A    between atoms: C_6  and  C_7 
REMARK    3  A    between atoms: C_7  and  C_8 
REMARK    4  A    between atoms: C_11  and  O_12 
ROOT
HETATM    1  N   UNL     1       7.028  25.201  52.461  1.00  0.00    -0.325 N 
HETATM    2  C   UNL     1       5.727  25.456  52.081  1.00  0.00     0.226 C 
HETATM    3  O   UNL     1       4.736  24.800  52.387  1.00  0.00    -0.273 OA
HETATM    4  H   UNL     1       7.765  25.813  52.113  1.00  0.00     0.169 HD
ENDROOT
BRANCH   1   5
HETATM    5  C   UNL     1       7.532  24.148  53.261  1.00  0.00     0.065 A 
HETATM    6  C   UNL     1       7.799  22.866  52.767  1.00  0.00     0.038 A 
HETATM    7  C   UNL     1       8.300  21.869  53.611  1.00  0.00    -0.059 A 
HETATM    8  C   UNL     1       8.617  20.502  53.080  1.00  0.00     0.048 C 
HETATM    9  C   UNL     1       8.542  22.176  54.953  1.00  0.00     0.020 A 
HETATM   10  C   UNL     1       8.275  23.461  55.455  1.00  0.00    -0.005 A 
HETATM   11  C   UNL     1       7.763  24.466  54.609  1.00  0.00     0.093 A 
HETATM   12  C   UNL     1       8.509  23.780  56.799  1.00  0.00     0.015 A 
HETATM   13  N   UNL     1       7.494  25.714  55.067  1.00  0.00    -0.258 NA
HETATM   14  C   UNL     1       7.733  25.982  56.370  1.00  0.00     0.117 A 
HETATM   15  C   UNL     1       8.235  25.060  57.266  1.00  0.00     0.020 A 
ENDBRANCH   1   5
BRANCH   2  16
HETATM   16  C   UNL     1       5.606  26.689  51.198  1.00  0.00     0.141 C 
BRANCH  16  17
HETATM   17  C   UNL     1       4.863  27.814  51.875  1.00  0.00    -0.049 A 
HETATM   18  C   UNL     1       5.201  28.196  53.183  1.00  0.00     0.010 A 
HETATM   19  C   UNL     1       4.509  29.225  53.825  1.00  0.00     0.037 A 
HETATM   20  C   UNL     1       3.478  29.874  53.157  1.00  0.00     0.065 A 
HETATM   21  C   UNL     1       3.129  29.512  51.861  1.00  0.00     0.037 A 
HETATM   22  C   UNL     1       3.820  28.482  51.219  1.00  0.00     0.010 A 
BRANCH  20  23
HETATM   23  O   UNL     1       2.774  30.883  53.745  1.00  0.00    -0.361 OA
HETATM   24  H   UNL     1       2.295  30.517  54.507  1.00  0.00     0.217 HD
ENDBRANCH  20  23
ENDBRANCH  16  17
ENDBRANCH   2  16
TORSDOF 4
ENDMDL
MODEL 9
REMARK VINA RESULT:      -8.5      4.244      8.059
REMARK  4 active torsions:
REMARK  status: ('A' for Active; 'I' for Inactive)
REMARK    1  A    between atoms: C_4  and  N_5 
REMARK       I    between atoms: N_5  and  C_6 
REMARK    2  A    between atoms: C_6  and  C_7 
REMARK    3  A    between atoms: C_7  and  C_8 
REMARK    4  A    between atoms: C_11  and  O_12 
ROOT
HETATM    1  N   UNL     1       6.575  26.219  52.607  1.00  0.00    -0.325 N 
HETATM    2  C   UNL     1       6.590  24.890  52.977  1.00  0.00     0.226 C 
HETATM    3  O   UNL     1       5.702  24.290  53.576  1.00  0.00    -0.273 OA
HETATM    4  H   UNL     1       7.393  26.601  52.134  1.00  0.00     0.169 HD
ENDROOT
BRANCH   1   5
HETATM    5  C   UNL     1       5.573  27.193  52.828  1.00  0.00     0.065 A 
HETATM    6  C   UNL     1       5.315  27.762  54.080  1.00  0.00     0.038 A 
HETATM    7  C   UNL     1       4.311  28.724  54.231  1.00  0.00    -0.059 A 
HETATM    8  C   UNL     1       4.051  29.359  55.565  1.00  0.00     0.048 C 
HETATM    9  C   UNL     1       3.577  29.120  53.109  1.00  0.00     0.020 A 
HETATM   10  C   UNL     1       3.830  28.552  51.849  1.00  0.00    -0.005 A 
HETATM   11  C   UNL     1       4.837  27.575  51.695  1.00  0.00     0.093 A 
HETATM   12  C   UNL     1       3.099  28.935  50.716  1.00  0.00     0.015 A 
HETATM   13  N   UNL     1       5.102  27.009  50.491  1.00  0.00    -0.258 NA
HETATM   14  C   UNL     1       4.374  27.406  49.424  1.00  0.00     0.117 A 
HETATM   15  C   UNL     1       3.374  28.355  49.484  1.00  0.00     0.020 A 
ENDBRANCH   1   5
BRANCH   2  16
HETATM   16  C   UNL     1       7.870  24.181  52.562  1.00  0.00     0.141 C 
BRANCH  16  17
HETATM   17  C   UNL     1       8.136  22.943  53.382  1.00  0.00    -0.049 A 
HETATM   18  C   UNL     1       8.656  23.055  54.681  1.00  0.00     0.010 A 
HETATM   19  C   UNL     1       8.921  21.916  55.442  1.00  0.00     0.037 A 
HETATM   20  C   UNL     1       8.665  20.660  54.904  1.00  0.00     0.065 A 
HETATM   21  C   UNL     1       8.149  20.527  53.620  1.00  0.00     0.037 A 
HETATM   22  C   UNL     1       7.885  21.667  52.858  1.00  0.00     0.010 A 
BRANCH  20  23
HETATM   23  O   UNL     1       8.910  19.520  55.611  1.00  0.00    -0.361 OA
HETATM   24  H   UNL     1       9.176  18.825  54.986  1.00  0.00     0.217 HD
ENDBRANCH  20  23
ENDBRANCH  16  17
ENDBRANCH   2  16
TORSDOF 4
ENDMDL
MODEL 10
REMARK VINA RESULT:      -8.5      1.326      1.951
REMARK  4 active torsions:
REMARK  status: ('A' for Active; 'I' for Inactive)
REMARK    1  A    between atoms: C_4  and  N_5 
REMARK       I    between atoms: N_5  and  C_6 
REMARK    2  A    between atoms: C_6  and  C_7 
REMARK    3  A    between atoms: C_7  and  C_8 
REMARK    4  A    between atoms: C_11  and  O_12 
ROOT
HETATM    1  N   UNL     1       6.424  26.559  55.878  1.00  0.00    -0.325 N 
HETATM    2  C   UNL     1       6.543  27.925  56.028  1.00  0.00     0.226 C 
HETATM    3  O   UNL     1       6.711  28.746  55.132  1.00  0.00    -0.273 OA
HETATM    4  H   UNL     1       6.314  25.986  56.713  1.00  0.00     0.169 HD
ENDROOT
BRANCH   1   5
HETATM    5  C   UNL     1       6.477  25.786  54.693  1.00  0.00     0.065 A 
HETATM    6  C   UNL     1       5.722  26.075  53.552  1.00  0.00     0.038 A 
HETATM    7  C   UNL     1       5.822  25.272  52.411  1.00  0.00    -0.059 A 
HETATM    8  C   UNL     1       5.038  25.595  51.173  1.00  0.00     0.048 C 
HETATM    9  C   UNL     1       6.698  24.182  52.423  1.00  0.00     0.020 A 
HETATM   10  C   UNL     1       7.458  23.886  53.567  1.00  0.00    -0.005 A 
HETATM   11  C   UNL     1       7.353  24.690  54.722  1.00  0.00     0.093 A 
HETATM   12  C   UNL     1       8.336  22.795  53.596  1.00  0.00     0.015 A 
HETATM   13  N   UNL     1       8.073  24.426  55.842  1.00  0.00    -0.258 NA
HETATM   14  C   UNL     1       8.909  23.365  55.828  1.00  0.00     0.117 A 
HETATM   15  C   UNL     1       9.075  22.529  54.742  1.00  0.00     0.020 A 
ENDBRANCH   1   5
BRANCH   2  16
HETATM   16  C   UNL     1       6.446  28.364  57.482  1.00  0.00     0.141 C 
BRANCH  16  17
HETATM   17  C   UNL     1       7.518  29.357  57.858  1.00  0.00    -0.049 A 
HETATM   18  C   UNL     1       7.182  30.530  58.551  1.00  0.00     0.010 A 
HETATM   19  C   UNL     1       8.164  31.463  58.890  1.00  0.00     0.037 A 
HETATM   20  C   UNL     1       9.486  31.221  58.535  1.00  0.00     0.065 A 
HETATM   21  C   UNL     1       9.840  30.065  57.849  1.00  0.00     0.037 A 
HETATM   22  C   UNL     1       8.858  29.132  57.510  1.00  0.00     0.010 A 
BRANCH  20  23
HETATM   23  O   UNL     1      10.477  32.105  58.844  1.00  0.00    -0.361 OA
HETATM   24  H   UNL     1      10.084  32.990  58.921  1.00  0.00     0.217 HD
ENDBRANCH  20  23
ENDBRANCH  16  17
ENDBRANCH   2  16
TORSDOF 4
ENDMDL
