MODEL 1
REMARK VINA RESULT:      -9.0      0.000      0.000
REMARK  8 active torsions:
REMARK  status: ('A' for Active; 'I' for Inactive)
REMARK    1  A    between atoms: N_2  and  C_4 
REMARK    2  A    between atoms: C_4  and  C_5 
REMARK    3  A    between atoms: C_5  and  N_6 
REMARK       I    between atoms: N_6  and  C_7 
REMARK    4  A    between atoms: N_6  and  C_23 
REMARK       I    between atoms: C_7  and  N_8 
REMARK    5  A    between atoms: N_8  and  C_9 
REMARK    6  A    between atoms: C_11  and  O_12 
REMARK    7  A    between atoms: O_12  and  C_13 
REMARK    8  A    between atoms: C_23  and  C_24 
ROOT
HETATM    1  N   UNL     1       5.981  27.553  56.090  1.00  0.00    -0.328 N 
HETATM    2  C   UNL     1       6.784  28.692  56.220  1.00  0.00     0.323 C 
HETATM    3  N   UNL     1       7.826  28.543  57.102  1.00  0.00    -0.309 N 
HETATM    4  O   UNL     1       6.549  29.686  55.540  1.00  0.00    -0.247 OA
HETATM    5  H   UNL     1       7.970  27.615  57.469  1.00  0.00     0.170 HD
ENDROOT
BRANCH   1   6
HETATM    6  C   UNL     1       5.062  27.498  54.957  1.00  0.00     0.155 C 
BRANCH   6   7
HETATM    7  C   UNL     1       5.734  27.026  53.658  1.00  0.00     0.254 C 
BRANCH   7   8
HETATM    8  N   UNL     1       4.712  26.441  52.690  1.00  0.00    -0.077 N 
HETATM    9  C   UNL     1       4.806  24.942  52.578  1.00  0.00     0.269 C 
HETATM   10  H   UNL     1       3.772  26.660  53.048  1.00  0.00     0.279 HD
HETATM   11  C   UNL     1       4.800  27.090  51.334  1.00  0.00     0.269 C 
ENDBRANCH   7   8
ENDBRANCH   6   7
ENDBRANCH   1   6
BRANCH   1  12
HETATM   12  C   UNL     1       5.927  26.454  57.061  1.00  0.00     0.166 C 
BRANCH  12  13
HETATM   13  C   UNL     1       6.855  25.301  56.759  1.00  0.00    -0.040 A 
HETATM   14  C   UNL     1       6.533  24.287  55.842  1.00  0.00     0.009 A 
HETATM   15  C   UNL     1       7.450  23.276  55.550  1.00  0.00     0.001 A 
HETATM   16  C   UNL     1       8.690  23.253  56.181  1.00  0.00     0.000 A 
HETATM   17  C   UNL     1       9.013  24.235  57.113  1.00  0.00     0.001 A 
HETATM   18  C   UNL     1       8.101  25.251  57.403  1.00  0.00     0.009 A 
ENDBRANCH  12  13
ENDBRANCH   1  12
BRANCH   3  19
HETATM   19  C   UNL     1       8.900  29.417  57.365  1.00  0.00     0.042 A 
HETATM   20  C   UNL     1       8.595  30.553  58.118  1.00  0.00     0.087 A 
HETATM   21  C   UNL     1       9.608  31.441  58.437  1.00  0.00     0.171 A 
HETATM   22  N   UNL     1      10.887  31.273  58.050  1.00  0.00    -0.237 NA
HETATM   23  C   UNL     1      11.157  30.168  57.319  1.00  0.00     0.122 A 
HETATM   24  C   UNL     1      10.209  29.218  56.954  1.00  0.00     0.049 A 
BRANCH  21  25
HETATM   25  O   UNL     1       9.203  32.527  59.208  1.00  0.00    -0.292 OA
BRANCH  25  26
HETATM   26  C   UNL     1       8.608  32.292  60.419  1.00  0.00     0.077 A 
HETATM   27  C   UNL     1       9.261  31.620  61.452  1.00  0.00     0.037 A 
HETATM   28  C   UNL     1       8.564  31.297  62.617  1.00  0.00     0.003 A 
HETATM   29  C   UNL     1       7.213  31.627  62.738  1.00  0.00     0.000 A 
HETATM   30  C   UNL     1       6.555  32.280  61.695  1.00  0.00     0.003 A 
HETATM   31  C   UNL     1       7.252  32.604  60.531  1.00  0.00     0.037 A 
ENDBRANCH  25  26
ENDBRANCH  21  25
ENDBRANCH   3  19
TORSDOF 8
ENDMDL
MODEL 2
REMARK VINA RESULT:      -9.0      2.671      8.433
REMARK  8 active torsions:
REMARK  status: ('A' for Active; 'I' for Inactive)
REMARK    1  A    between atoms: N_2  and  C_4 
REMARK    2  A    between atoms: C_4  and  C_5 
REMARK    3  A    between atoms: C_5  and  N_6 
REMARK       I    between atoms: N_6  and  C_7 
REMARK    4  A    between atoms: N_6  and  C_23 
REMARK       I    between atoms: C_7  and  N_8 
REMARK    5  A    between atoms: N_8  and  C_9 
REMARK    6  A    between atoms: C_11  and  O_12 
REMARK    7  A    between atoms: O_12  and  C_13 
REMARK    8  A    between atoms: C_23  and  C_24 
ROOT
HETATM    1  N   UNL     1       6.094  29.476  56.676  1.00  0.00    -0.328 N 
HETATM    2  C   UNL     1       5.910  28.812  55.458  1.00  0.00     0.323 C 
HETATM    3  N   UNL     1       6.276  27.488  55.481  1.00  0.00    -0.309 N 
HETATM    4  O   UNL     1       5.415  29.408  54.506  1.00  0.00    -0.247 OA
HETATM    5  H   UNL     1       6.525  27.111  56.383  1.00  0.00     0.170 HD
ENDROOT
BRANCH   1   6
HETATM    6  C   UNL     1       5.443  30.771  56.847  1.00  0.00     0.155 C 
BRANCH   6   7
HETATM    7  C   UNL     1       4.249  30.723  57.814  1.00  0.00     0.254 C 
BRANCH   7   8
HETATM    8  N   UNL     1       4.601  31.356  59.156  1.00  0.00    -0.077 N 
HETATM    9  C   UNL     1       3.387  31.828  59.913  1.00  0.00     0.269 C 
HETATM   10  H   UNL     1       5.059  30.639  59.736  1.00  0.00     0.279 HD
HETATM   11  C   UNL     1       5.606  32.466  58.998  1.00  0.00     0.269 C 
ENDBRANCH   7   8
ENDBRANCH   6   7
ENDBRANCH   1   6
BRANCH   1  12
HETATM   12  C   UNL     1       6.970  29.009  57.758  1.00  0.00     0.166 C 
BRANCH  12  13
HETATM   13  C   UNL     1       8.395  29.503  57.670  1.00  0.00    -0.040 A 
HETATM   14  C   UNL     1       9.362  28.891  56.857  1.00  0.00     0.009 A 
HETATM   15  C   UNL     1      10.650  29.422  56.762  1.00  0.00     0.001 A 
HETATM   16  C   UNL     1      10.994  30.556  57.491  1.00  0.00     0.000 A 
HETATM   17  C   UNL     1      10.054  31.158  58.323  1.00  0.00     0.001 A 
HETATM   18  C   UNL     1       8.764  30.633  58.416  1.00  0.00     0.009 A 
ENDBRANCH  12  13
ENDBRANCH   1  12
BRANCH   3  19
HETATM   19  C   UNL     1       6.093  26.498  54.495  1.00  0.00     0.042 A 
HETATM   20  C   UNL     1       7.203  25.698  54.218  1.00  0.00     0.087 A 
HETATM   21  C   UNL     1       7.086  24.686  53.280  1.00  0.00     0.171 A 
HETATM   22  N   UNL     1       5.948  24.433  52.605  1.00  0.00    -0.237 NA
HETATM   23  C   UNL     1       4.889  25.224  52.888  1.00  0.00     0.122 A 
HETATM   24  C   UNL     1       4.908  26.258  53.816  1.00  0.00     0.049 A 
BRANCH  21  25
HETATM   25  O   UNL     1       8.242  23.934  53.094  1.00  0.00    -0.292 OA
BRANCH  25  26
HETATM   26  C   UNL     1       8.337  22.708  53.697  1.00  0.00     0.077 A 
HETATM   27  C   UNL     1       8.904  22.540  54.959  1.00  0.00     0.037 A 
HETATM   28  C   UNL     1       9.089  21.254  55.469  1.00  0.00     0.003 A 
HETATM   29  C   UNL     1       8.727  20.141  54.708  1.00  0.00     0.000 A 
HETATM   30  C   UNL     1       8.180  20.310  53.436  1.00  0.00     0.003 A 
HETATM   31  C   UNL     1       7.993  21.595  52.927  1.00  0.00     0.037 A 
ENDBRANCH  25  26
ENDBRANCH  21  25
ENDBRANCH   3  19
TORSDOF 8
ENDMDL
MODEL 3
REMARK VINA RESULT:      -8.8      2.705      8.955
REMARK  8 active torsions:
REMARK  status: ('A' for Active; 'I' for Inactive)
REMARK    1  A    between atoms: N_2  and  C_4 
REMARK    2  A    between atoms: C_4  and  C_5 
REMARK    3  A    between atoms: C_5  and  N_6 
REMARK       I    between atoms: N_6  and  C_7 
REMARK    4  A    between atoms: N_6  and  C_23 
REMARK       I    between atoms: C_7  and  N_8 
REMARK    5  A    between atoms: N_8  and  C_9 
REMARK    6  A    between atoms: C_11  and  O_12 
REMARK    7  A    between atoms: O_12  and  C_13 
REMARK    8  A    between atoms: C_23  and  C_24 
ROOT
HETATM    1  N   UNL     1       7.072  26.193  55.725  1.00  0.00    -0.328 N 
HETATM    2  C   UNL     1       6.709  27.109  54.731  1.00  0.00     0.323 C 
HETATM    3  N   UNL     1       5.532  26.803  54.092  1.00  0.00    -0.309 N 
HETATM    4  O   UNL     1       7.402  28.102  54.532  1.00  0.00    -0.247 OA
HETATM    5  H   UNL     1       5.006  26.032  54.473  1.00  0.00     0.170 HD
ENDROOT
BRANCH   1   6
HETATM    6  C   UNL     1       8.112  26.594  56.667  1.00  0.00     0.155 C 
BRANCH   6   7
HETATM    7  C   UNL     1       7.609  27.572  57.740  1.00  0.00     0.254 C 
BRANCH   7   8
HETATM    8  N   UNL     1       8.167  28.973  57.515  1.00  0.00    -0.077 N 
HETATM    9  C   UNL     1       9.597  28.961  57.042  1.00  0.00     0.269 C 
HETATM   10  H   UNL     1       7.608  29.423  56.777  1.00  0.00     0.279 HD
HETATM   11  C   UNL     1       8.009  29.836  58.739  1.00  0.00     0.269 C 
ENDBRANCH   7   8
ENDBRANCH   6   7
ENDBRANCH   1   6
BRANCH   1  12
HETATM   12  C   UNL     1       6.552  24.825  55.831  1.00  0.00     0.166 C 
BRANCH  12  13
HETATM   13  C   UNL     1       7.322  23.795  55.037  1.00  0.00    -0.040 A 
HETATM   14  C   UNL     1       7.167  23.633  53.652  1.00  0.00     0.009 A 
HETATM   15  C   UNL     1       7.947  22.710  52.953  1.00  0.00     0.001 A 
HETATM   16  C   UNL     1       8.875  21.926  53.629  1.00  0.00     0.000 A 
HETATM   17  C   UNL     1       9.021  22.055  55.007  1.00  0.00     0.001 A 
HETATM   18  C   UNL     1       8.247  22.981  55.709  1.00  0.00     0.009 A 
ENDBRANCH  12  13
ENDBRANCH   1  12
BRANCH   3  19
HETATM   19  C   UNL     1       4.803  27.567  53.159  1.00  0.00     0.042 A 
HETATM   20  C   UNL     1       5.199  27.446  51.826  1.00  0.00     0.087 A 
HETATM   21  C   UNL     1       4.508  28.147  50.851  1.00  0.00     0.171 A 
HETATM   22  N   UNL     1       3.466  28.956  51.123  1.00  0.00    -0.237 NA
HETATM   23  C   UNL     1       3.103  29.059  52.421  1.00  0.00     0.122 A 
HETATM   24  C   UNL     1       3.731  28.391  53.466  1.00  0.00     0.049 A 
BRANCH  21  25
HETATM   25  O   UNL     1       4.970  27.941  49.554  1.00  0.00    -0.292 OA
BRANCH  25  26
HETATM   26  C   UNL     1       4.147  27.323  48.651  1.00  0.00     0.077 A 
HETATM   27  C   UNL     1       3.365  28.039  47.745  1.00  0.00     0.037 A 
HETATM   28  C   UNL     1       2.452  27.362  46.935  1.00  0.00     0.003 A 
HETATM   29  C   UNL     1       2.307  25.978  47.048  1.00  0.00     0.000 A 
HETATM   30  C   UNL     1       3.074  25.267  47.970  1.00  0.00     0.003 A 
HETATM   31  C   UNL     1       3.989  25.942  48.779  1.00  0.00     0.037 A 
ENDBRANCH  25  26
ENDBRANCH  21  25
ENDBRANCH   3  19
TORSDOF 8
ENDMDL
MODEL 4
REMARK VINA RESULT:      -8.7      1.504      3.158
REMARK  8 active torsions:
REMARK  status: ('A' for Active; 'I' for Inactive)
REMARK    1  A    between atoms: N_2  and  C_4 
REMARK    2  A    between atoms: C_4  and  C_5 
REMARK    3  A    between atoms: C_5  and  N_6 
REMARK       I    between atoms: N_6  and  C_7 
REMARK    4  A    between atoms: N_6  and  C_23 
REMARK       I    between atoms: C_7  and  N_8 
REMARK    5  A    between atoms: N_8  and  C_9 
REMARK    6  A    between atoms: C_11  and  O_12 
REMARK    7  A    between atoms: O_12  and  C_13 
REMARK    8  A    between atoms: C_23  and  C_24 
ROOT
HETATM    1  N   UNL     1       6.710  26.568  56.556  1.00  0.00    -0.328 N 
HETATM    2  C   UNL     1       7.918  27.111  57.008  1.00  0.00     0.323 C 
HETATM    3  N   UNL     1       8.099  28.431  56.671  1.00  0.00    -0.309 N 
HETATM    4  O   UNL     1       8.681  26.426  57.682  1.00  0.00    -0.247 OA
HETATM    5  H   UNL     1       7.312  28.893  56.243  1.00  0.00     0.170 HD
ENDROOT
BRANCH   1   6
HETATM    6  C   UNL     1       6.282  25.297  57.130  1.00  0.00     0.155 C 
BRANCH   6   7
HETATM    7  C   UNL     1       6.544  24.099  56.203  1.00  0.00     0.254 C 
BRANCH   7   8
HETATM    8  N   UNL     1       8.033  23.785  56.115  1.00  0.00    -0.077 N 
HETATM    9  C   UNL     1       8.438  23.255  54.764  1.00  0.00     0.269 C 
HETATM   10  H   UNL     1       8.552  24.661  56.265  1.00  0.00     0.279 HD
HETATM   11  C   UNL     1       8.468  22.852  57.215  1.00  0.00     0.269 C 
ENDBRANCH   7   8
ENDBRANCH   6   7
ENDBRANCH   1   6
BRANCH   1  12
HETATM   12  C   UNL     1       5.889  27.137  55.479  1.00  0.00     0.166 C 
BRANCH  12  13
HETATM   13  C   UNL     1       6.064  26.469  54.135  1.00  0.00    -0.040 A 
HETATM   14  C   UNL     1       4.992  25.911  53.421  1.00  0.00     0.009 A 
HETATM   15  C   UNL     1       5.194  25.359  52.154  1.00  0.00     0.001 A 
HETATM   16  C   UNL     1       6.467  25.341  51.594  1.00  0.00     0.000 A 
HETATM   17  C   UNL     1       7.544  25.867  52.302  1.00  0.00     0.001 A 
HETATM   18  C   UNL     1       7.346  26.424  53.566  1.00  0.00     0.009 A 
ENDBRANCH  12  13
ENDBRANCH   1  12
BRANCH   3  19
HETATM   19  C   UNL     1       9.113  29.321  57.079  1.00  0.00     0.042 A 
HETATM   20  C   UNL     1       8.695  30.424  57.826  1.00  0.00     0.087 A 
HETATM   21  C   UNL     1       9.643  31.325  58.283  1.00  0.00     0.171 A 
HETATM   22  N   UNL     1      10.961  31.199  58.037  1.00  0.00    -0.237 NA
HETATM   23  C   UNL     1      11.340  30.124  57.308  1.00  0.00     0.122 A 
HETATM   24  C   UNL     1      10.464  29.165  56.812  1.00  0.00     0.049 A 
BRANCH  21  25
HETATM   25  O   UNL     1       9.125  32.375  59.035  1.00  0.00    -0.292 OA
BRANCH  25  26
HETATM   26  C   UNL     1       8.656  32.117  60.296  1.00  0.00     0.077 A 
HETATM   27  C   UNL     1       9.351  31.314  61.199  1.00  0.00     0.037 A 
HETATM   28  C   UNL     1       8.765  30.982  62.421  1.00  0.00     0.003 A 
HETATM   29  C   UNL     1       7.481  31.435  62.728  1.00  0.00     0.000 A 
HETATM   30  C   UNL     1       6.778  32.220  61.814  1.00  0.00     0.003 A 
HETATM   31  C   UNL     1       7.363  32.554  60.593  1.00  0.00     0.037 A 
ENDBRANCH  25  26
ENDBRANCH  21  25
ENDBRANCH   3  19
TORSDOF 8
ENDMDL
MODEL 5
REMARK VINA RESULT:      -8.7      1.637      2.281
REMARK  8 active torsions:
REMARK  status: ('A' for Active; 'I' for Inactive)
REMARK    1  A    between atoms: N_2  and  C_4 
REMARK    2  A    between atoms: C_4  and  C_5 
REMARK    3  A    between atoms: C_5  and  N_6 
REMARK       I    between atoms: N_6  and  C_7 
REMARK    4  A    between atoms: N_6  and  C_23 
REMARK       I    between atoms: C_7  and  N_8 
REMARK    5  A    between atoms: N_8  and  C_9 
REMARK    6  A    between atoms: C_11  and  O_12 
REMARK    7  A    between atoms: O_12  and  C_13 
REMARK    8  A    between atoms: C_23  and  C_24 
ROOT
HETATM    1  N   UNL     1       6.594  26.985  54.143  1.00  0.00    -0.328 N 
HETATM    2  C   UNL     1       6.920  27.750  55.268  1.00  0.00     0.323 C 
HETATM    3  N   UNL     1       8.251  28.081  55.354  1.00  0.00    -0.309 N 
HETATM    4  O   UNL     1       6.037  28.102  56.045  1.00  0.00    -0.247 OA
HETATM    5  H   UNL     1       8.821  27.841  54.558  1.00  0.00     0.170 HD
ENDROOT
BRANCH   1   6
HETATM    6  C   UNL     1       5.183  26.862  53.793  1.00  0.00     0.155 C 
BRANCH   6   7
HETATM    7  C   UNL     1       4.957  26.536  52.307  1.00  0.00     0.254 C 
BRANCH   7   8
HETATM    8  N   UNL     1       4.232  27.674  51.598  1.00  0.00    -0.077 N 
HETATM    9  C   UNL     1       5.146  28.489  50.720  1.00  0.00     0.269 C 
HETATM   10  H   UNL     1       3.514  27.261  50.986  1.00  0.00     0.279 HD
HETATM   11  C   UNL     1       3.492  28.552  52.571  1.00  0.00     0.269 C 
ENDBRANCH   7   8
ENDBRANCH   6   7
ENDBRANCH   1   6
BRANCH   1  12
HETATM   12  C   UNL     1       7.560  26.219  53.346  1.00  0.00     0.166 C 
BRANCH  12  13
HETATM   13  C   UNL     1       7.659  24.756  53.712  1.00  0.00    -0.040 A 
HETATM   14  C   UNL     1       7.536  24.294  55.032  1.00  0.00     0.009 A 
HETATM   15  C   UNL     1       7.573  22.927  55.312  1.00  0.00     0.001 A 
HETATM   16  C   UNL     1       7.752  22.007  54.283  1.00  0.00     0.000 A 
HETATM   17  C   UNL     1       7.902  22.451  52.973  1.00  0.00     0.001 A 
HETATM   18  C   UNL     1       7.861  23.817  52.688  1.00  0.00     0.009 A 
ENDBRANCH  12  13
ENDBRANCH   1  12
BRANCH   3  19
HETATM   19  C   UNL     1       8.895  28.949  56.258  1.00  0.00     0.042 A 
HETATM   20  C   UNL     1       8.397  28.954  57.562  1.00  0.00     0.087 A 
HETATM   21  C   UNL     1       9.000  29.763  58.511  1.00  0.00     0.171 A 
HETATM   22  N   UNL     1      10.050  30.562  58.239  1.00  0.00    -0.237 NA
HETATM   23  C   UNL     1      10.512  30.542  56.968  1.00  0.00     0.122 A 
HETATM   24  C   UNL     1       9.976  29.760  55.952  1.00  0.00     0.049 A 
BRANCH  21  25
HETATM   25  O   UNL     1       8.441  29.678  59.783  1.00  0.00    -0.292 OA
BRANCH  25  26
HETATM   26  C   UNL     1       8.227  30.831  60.489  1.00  0.00     0.077 A 
HETATM   27  C   UNL     1       8.866  31.091  61.701  1.00  0.00     0.037 A 
HETATM   28  C   UNL     1       8.514  32.223  62.438  1.00  0.00     0.003 A 
HETATM   29  C   UNL     1       7.512  33.077  61.975  1.00  0.00     0.000 A 
HETATM   30  C   UNL     1       6.859  32.803  60.773  1.00  0.00     0.003 A 
HETATM   31  C   UNL     1       7.211  31.673  60.034  1.00  0.00     0.037 A 
ENDBRANCH  25  26
ENDBRANCH  21  25
ENDBRANCH   3  19
TORSDOF 8
ENDMDL
MODEL 6
REMARK VINA RESULT:      -8.6      1.593      2.293
REMARK  8 active torsions:
REMARK  status: ('A' for Active; 'I' for Inactive)
REMARK    1  A    between atoms: N_2  and  C_4 
REMARK    2  A    between atoms: C_4  and  C_5 
REMARK    3  A    between atoms: C_5  and  N_6 
REMARK       I    between atoms: N_6  and  C_7 
REMARK    4  A    between atoms: N_6  and  C_23 
REMARK       I    between atoms: C_7  and  N_8 
REMARK    5  A    between atoms: N_8  and  C_9 
REMARK    6  A    between atoms: C_11  and  O_12 
REMARK    7  A    between atoms: O_12  and  C_13 
REMARK    8  A    between atoms: C_23  and  C_24 
ROOT
HETATM    1  N   UNL     1       5.760  28.018  55.841  1.00  0.00    -0.328 N 
HETATM    2  C   UNL     1       6.562  29.074  56.289  1.00  0.00     0.323 C 
HETATM    3  N   UNL     1       7.809  28.686  56.716  1.00  0.00    -0.309 N 
HETATM    4  O   UNL     1       6.143  30.226  56.233  1.00  0.00    -0.247 OA
HETATM    5  H   UNL     1       8.053  27.721  56.559  1.00  0.00     0.170 HD
ENDROOT
BRANCH   1   6
HETATM    6  C   UNL     1       4.564  28.354  55.076  1.00  0.00     0.155 C 
BRANCH   6   7
HETATM    7  C   UNL     1       4.871  28.768  53.627  1.00  0.00     0.254 C 
BRANCH   7   8
HETATM    8  N   UNL     1       4.575  30.246  53.401  1.00  0.00    -0.077 N 
HETATM    9  C   UNL     1       3.366  30.721  54.165  1.00  0.00     0.269 C 
HETATM   10  H   UNL     1       5.380  30.788  53.742  1.00  0.00     0.279 HD
HETATM   11  C   UNL     1       4.448  30.567  51.935  1.00  0.00     0.269 C 
ENDBRANCH   7   8
ENDBRANCH   6   7
ENDBRANCH   1   6
BRANCH   1  12
HETATM   12  C   UNL     1       5.983  26.604  56.165  1.00  0.00     0.166 C 
BRANCH  12  13
HETATM   13  C   UNL     1       6.603  25.793  55.052  1.00  0.00    -0.040 A 
HETATM   14  C   UNL     1       7.236  26.381  53.946  1.00  0.00     0.009 A 
HETATM   15  C   UNL     1       7.849  25.589  52.973  1.00  0.00     0.001 A 
HETATM   16  C   UNL     1       7.822  24.202  53.083  1.00  0.00     0.000 A 
HETATM   17  C   UNL     1       7.174  23.603  54.159  1.00  0.00     0.001 A 
HETATM   18  C   UNL     1       6.565  24.392  55.136  1.00  0.00     0.009 A 
ENDBRANCH  12  13
ENDBRANCH   1  12
BRANCH   3  19
HETATM   19  C   UNL     1       8.909  29.485  57.088  1.00  0.00     0.042 A 
HETATM   20  C   UNL     1       8.628  30.559  57.935  1.00  0.00     0.087 A 
HETATM   21  C   UNL     1       9.666  31.369  58.362  1.00  0.00     0.171 A 
HETATM   22  N   UNL     1      10.949  31.181  57.996  1.00  0.00    -0.237 NA
HETATM   23  C   UNL     1      11.195  30.137  57.172  1.00  0.00     0.122 A 
HETATM   24  C   UNL     1      10.221  29.267  56.696  1.00  0.00     0.049 A 
BRANCH  21  25
HETATM   25  O   UNL     1       9.282  32.396  59.220  1.00  0.00    -0.292 OA
BRANCH  25  26
HETATM   26  C   UNL     1       8.722  32.074  60.427  1.00  0.00     0.077 A 
HETATM   27  C   UNL     1       7.683  32.816  60.987  1.00  0.00     0.037 A 
HETATM   28  C   UNL     1       7.237  32.518  62.276  1.00  0.00     0.003 A 
HETATM   29  C   UNL     1       7.843  31.495  63.007  1.00  0.00     0.000 A 
HETATM   30  C   UNL     1       8.897  30.768  62.453  1.00  0.00     0.003 A 
HETATM   31  C   UNL     1       9.342  31.064  61.164  1.00  0.00     0.037 A 
ENDBRANCH  25  26
ENDBRANCH  21  25
ENDBRANCH   3  19
TORSDOF 8
ENDMDL
MODEL 7
REMARK VINA RESULT:      -8.5      1.341      1.947
REMARK  8 active torsions:
REMARK  status: ('A' for Active; 'I' for Inactive)
REMARK    1  A    between atoms: N_2  and  C_4 
REMARK    2  A    between atoms: C_4  and  C_5 
REMARK    3  A    between atoms: C_5  and  N_6 
REMARK       I    between atoms: N_6  and  C_7 
REMARK    4  A    between atoms: N_6  and  C_23 
REMARK       I    between atoms: C_7  and  N_8 
REMARK    5  A    between atoms: N_8  and  C_9 
REMARK    6  A    between atoms: C_11  and  O_12 
REMARK    7  A    between atoms: O_12  and  C_13 
REMARK    8  A    between atoms: C_23  and  C_24 
ROOT
HETATM    1  N   UNL     1       6.928  26.444  54.620  1.00  0.00    -0.328 N 
HETATM    2  C   UNL     1       7.361  27.716  55.013  1.00  0.00     0.323 C 
HETATM    3  N   UNL     1       8.111  27.721  56.164  1.00  0.00    -0.309 N 
HETATM    4  O   UNL     1       7.098  28.693  54.318  1.00  0.00    -0.247 OA
HETATM    5  H   UNL     1       8.363  26.817  56.534  1.00  0.00     0.170 HD
ENDROOT
BRANCH   1   6
HETATM    6  C   UNL     1       6.413  26.294  53.262  1.00  0.00     0.155 C 
BRANCH   6   7
HETATM    7  C   UNL     1       4.895  26.056  53.217  1.00  0.00     0.254 C 
BRANCH   7   8
HETATM    8  N   UNL     1       4.186  27.168  52.452  1.00  0.00    -0.077 N 
HETATM    9  C   UNL     1       5.017  27.721  51.323  1.00  0.00     0.269 C 
HETATM   10  H   UNL     1       3.332  26.773  52.034  1.00  0.00     0.279 HD
HETATM   11  C   UNL     1       3.726  28.268  53.373  1.00  0.00     0.269 C 
ENDBRANCH   7   8
ENDBRANCH   6   7
ENDBRANCH   1   6
BRANCH   1  12
HETATM   12  C   UNL     1       6.865  25.274  55.503  1.00  0.00     0.166 C 
BRANCH  12  13
HETATM   13  C   UNL     1       7.567  24.046  54.971  1.00  0.00    -0.040 A 
HETATM   14  C   UNL     1       7.117  23.343  53.842  1.00  0.00     0.009 A 
HETATM   15  C   UNL     1       7.835  22.251  53.352  1.00  0.00     0.001 A 
HETATM   16  C   UNL     1       8.998  21.835  53.992  1.00  0.00     0.000 A 
HETATM   17  C   UNL     1       9.442  22.504  55.129  1.00  0.00     0.001 A 
HETATM   18  C   UNL     1       8.730  23.600  55.618  1.00  0.00     0.009 A 
ENDBRANCH  12  13
ENDBRANCH   1  12
BRANCH   3  19
HETATM   19  C   UNL     1       8.820  28.783  56.758  1.00  0.00     0.042 A 
HETATM   20  C   UNL     1       8.052  29.718  57.455  1.00  0.00     0.087 A 
HETATM   21  C   UNL     1       8.687  30.774  58.088  1.00  0.00     0.171 A 
HETATM   22  N   UNL     1      10.021  30.956  58.061  1.00  0.00    -0.237 NA
HETATM   23  C   UNL     1      10.743  30.040  57.377  1.00  0.00     0.122 A 
HETATM   24  C   UNL     1      10.196  28.946  56.716  1.00  0.00     0.049 A 
BRANCH  21  25
HETATM   25  O   UNL     1       7.834  31.635  58.772  1.00  0.00    -0.292 OA
BRANCH  25  26
HETATM   26  C   UNL     1       7.882  31.664  60.140  1.00  0.00     0.077 A 
HETATM   27  C   UNL     1       7.321  32.702  60.883  1.00  0.00     0.037 A 
HETATM   28  C   UNL     1       7.512  32.744  62.265  1.00  0.00     0.003 A 
HETATM   29  C   UNL     1       8.278  31.762  62.897  1.00  0.00     0.000 A 
HETATM   30  C   UNL     1       8.856  30.737  62.148  1.00  0.00     0.003 A 
HETATM   31  C   UNL     1       8.665  30.693  60.767  1.00  0.00     0.037 A 
ENDBRANCH  25  26
ENDBRANCH  21  25
ENDBRANCH   3  19
TORSDOF 8
ENDMDL
MODEL 8
REMARK VINA RESULT:      -8.5      2.543      4.549
REMARK  8 active torsions:
REMARK  status: ('A' for Active; 'I' for Inactive)
REMARK    1  A    between atoms: N_2  and  C_4 
REMARK    2  A    between atoms: C_4  and  C_5 
REMARK    3  A    between atoms: C_5  and  N_6 
REMARK       I    between atoms: N_6  and  C_7 
REMARK    4  A    between atoms: N_6  and  C_23 
REMARK       I    between atoms: C_7  and  N_8 
REMARK    5  A    between atoms: N_8  and  C_9 
REMARK    6  A    between atoms: C_11  and  O_12 
REMARK    7  A    between atoms: O_12  and  C_13 
REMARK    8  A    between atoms: C_23  and  C_24 
ROOT
HETATM    1  N   UNL     1       5.308  26.419  52.186  1.00  0.00    -0.328 N 
HETATM    2  C   UNL     1       5.133  27.545  52.998  1.00  0.00     0.323 C 
HETATM    3  N   UNL     1       5.098  27.267  54.342  1.00  0.00    -0.309 N 
HETATM    4  O   UNL     1       5.072  28.661  52.489  1.00  0.00    -0.247 OA
HETATM    5  H   UNL     1       5.312  26.317  54.605  1.00  0.00     0.170 HD
ENDROOT
BRANCH   1   6
HETATM    6  C   UNL     1       5.680  26.638  50.792  1.00  0.00     0.155 C 
BRANCH   6   7
HETATM    7  C   UNL     1       4.467  26.821  49.866  1.00  0.00     0.254 C 
BRANCH   7   8
HETATM    8  N   UNL     1       4.834  26.540  48.414  1.00  0.00    -0.077 N 
HETATM    9  C   UNL     1       5.210  27.787  47.656  1.00  0.00     0.269 C 
HETATM   10  H   UNL     1       5.658  25.922  48.408  1.00  0.00     0.279 HD
HETATM   11  C   UNL     1       3.744  25.783  47.703  1.00  0.00     0.269 C 
ENDBRANCH   7   8
ENDBRANCH   6   7
ENDBRANCH   1   6
BRANCH   1  12
HETATM   12  C   UNL     1       5.052  25.037  52.610  1.00  0.00     0.166 C 
BRANCH  12  13
HETATM   13  C   UNL     1       6.220  24.360  53.289  1.00  0.00    -0.040 A 
HETATM   14  C   UNL     1       6.361  24.311  54.685  1.00  0.00     0.009 A 
HETATM   15  C   UNL     1       7.425  23.620  55.267  1.00  0.00     0.001 A 
HETATM   16  C   UNL     1       8.369  22.986  54.465  1.00  0.00     0.000 A 
HETATM   17  C   UNL     1       8.258  23.048  53.079  1.00  0.00     0.001 A 
HETATM   18  C   UNL     1       7.192  23.734  52.494  1.00  0.00     0.009 A 
ENDBRANCH  12  13
ENDBRANCH   1  12
BRANCH   3  19
HETATM   19  C   UNL     1       5.084  28.157  55.434  1.00  0.00     0.042 A 
HETATM   20  C   UNL     1       6.157  28.056  56.322  1.00  0.00     0.087 A 
HETATM   21  C   UNL     1       6.221  28.919  57.402  1.00  0.00     0.171 A 
HETATM   22  N   UNL     1       5.290  29.859  57.653  1.00  0.00    -0.237 NA
HETATM   23  C   UNL     1       4.258  29.936  56.781  1.00  0.00     0.122 A 
HETATM   24  C   UNL     1       4.111  29.118  55.667  1.00  0.00     0.049 A 
BRANCH  21  25
HETATM   25  O   UNL     1       7.340  28.749  58.212  1.00  0.00    -0.292 OA
BRANCH  25  26
HETATM   26  C   UNL     1       8.498  29.404  57.886  1.00  0.00     0.077 A 
HETATM   27  C   UNL     1       9.459  28.844  57.046  1.00  0.00     0.037 A 
HETATM   28  C   UNL     1      10.674  29.503  56.851  1.00  0.00     0.003 A 
HETATM   29  C   UNL     1      10.933  30.706  57.510  1.00  0.00     0.000 A 
HETATM   30  C   UNL     1       9.978  31.253  58.367  1.00  0.00     0.003 A 
HETATM   31  C   UNL     1       8.762  30.597  58.562  1.00  0.00     0.037 A 
ENDBRANCH  25  26
ENDBRANCH  21  25
ENDBRANCH   3  19
TORSDOF 8
ENDMDL
MODEL 9
REMARK VINA RESULT:      -8.5      2.739      8.449
REMARK  8 active torsions:
REMARK  status: ('A' for Active; 'I' for Inactive)
REMARK    1  A    between atoms: N_2  and  C_4 
REMARK    2  A    between atoms: C_4  and  C_5 
REMARK    3  A    between atoms: C_5  and  N_6 
REMARK       I    between atoms: N_6  and  C_7 
REMARK    4  A    between atoms: N_6  and  C_23 
REMARK       I    between atoms: C_7  and  N_8 
REMARK    5  A    between atoms: N_8  and  C_9 
REMARK    6  A    between atoms: C_11  and  O_12 
REMARK    7  A    between atoms: O_12  and  C_13 
REMARK    8  A    between atoms: C_23  and  C_24 
ROOT
HETATM    1  N   UNL     1       6.217  32.179  60.989  1.00  0.00    -0.328 N 
HETATM    2  C   UNL     1       6.925  31.890  59.817  1.00  0.00     0.323 C 
HETATM    3  N   UNL     1       7.584  30.685  59.844  1.00  0.00    -0.309 N 
HETATM    4  O   UNL     1       6.880  32.668  58.868  1.00  0.00    -0.247 OA
HETATM    5  H   UNL     1       7.400  30.095  60.641  1.00  0.00     0.170 HD
ENDROOT
BRANCH   1   6
HETATM    6  C   UNL     1       5.237  33.260  60.939  1.00  0.00     0.155 C 
BRANCH   6   7
HETATM    7  C   UNL     1       3.785  32.755  60.891  1.00  0.00     0.254 C 
BRANCH   7   8
HETATM    8  N   UNL     1       3.250  32.753  59.463  1.00  0.00    -0.077 N 
HETATM    9  C   UNL     1       3.564  31.477  58.725  1.00  0.00     0.269 C 
HETATM   10  H   UNL     1       2.224  32.832  59.508  1.00  0.00     0.279 HD
HETATM   11  C   UNL     1       3.725  33.955  58.691  1.00  0.00     0.269 C 
ENDBRANCH   7   8
ENDBRANCH   6   7
ENDBRANCH   1   6
BRANCH   1  12
HETATM   12  C   UNL     1       6.455  31.539  62.288  1.00  0.00     0.166 C 
BRANCH  12  13
HETATM   13  C   UNL     1       6.402  32.477  63.471  1.00  0.00    -0.040 A 
HETATM   14  C   UNL     1       5.209  32.779  64.148  1.00  0.00     0.009 A 
HETATM   15  C   UNL     1       5.221  33.603  65.274  1.00  0.00     0.001 A 
HETATM   16  C   UNL     1       6.417  34.149  65.729  1.00  0.00     0.000 A 
HETATM   17  C   UNL     1       7.604  33.881  65.053  1.00  0.00     0.001 A 
HETATM   18  C   UNL     1       7.597  33.053  63.929  1.00  0.00     0.009 A 
ENDBRANCH  12  13
ENDBRANCH   1  12
BRANCH   3  19
HETATM   19  C   UNL     1       8.262  30.019  58.803  1.00  0.00     0.042 A 
HETATM   20  C   UNL     1       7.526  29.055  58.112  1.00  0.00     0.087 A 
HETATM   21  C   UNL     1       8.121  28.381  57.059  1.00  0.00     0.171 A 
HETATM   22  N   UNL     1       9.390  28.601  56.664  1.00  0.00    -0.237 NA
HETATM   23  C   UNL     1      10.083  29.538  57.351  1.00  0.00     0.122 A 
HETATM   24  C   UNL     1       9.569  30.268  58.416  1.00  0.00     0.049 A 
BRANCH  21  25
HETATM   25  O   UNL     1       7.296  27.457  56.424  1.00  0.00    -0.292 OA
BRANCH  25  26
HETATM   26  C   UNL     1       7.677  26.142  56.393  1.00  0.00     0.077 A 
HETATM   27  C   UNL     1       8.333  25.532  57.461  1.00  0.00     0.037 A 
HETATM   28  C   UNL     1       8.810  24.227  57.325  1.00  0.00     0.003 A 
HETATM   29  C   UNL     1       8.649  23.546  56.117  1.00  0.00     0.000 A 
HETATM   30  C   UNL     1       8.012  24.166  55.042  1.00  0.00     0.003 A 
HETATM   31  C   UNL     1       7.534  25.470  55.178  1.00  0.00     0.037 A 
ENDBRANCH  25  26
ENDBRANCH  21  25
ENDBRANCH   3  19
TORSDOF 8
ENDMDL
MODEL 10
REMARK VINA RESULT:      -8.3      6.861      9.603
REMARK  8 active torsions:
REMARK  status: ('A' for Active; 'I' for Inactive)
REMARK    1  A    between atoms: N_2  and  C_4 
REMARK    2  A    between atoms: C_4  and  C_5 
REMARK    3  A    between atoms: C_5  and  N_6 
REMARK       I    between atoms: N_6  and  C_7 
REMARK    4  A    between atoms: N_6  and  C_23 
REMARK       I    between atoms: C_7  and  N_8 
REMARK    5  A    between atoms: N_8  and  C_9 
REMARK    6  A    between atoms: C_11  and  O_12 
REMARK    7  A    between atoms: O_12  and  C_13 
REMARK    8  A    between atoms: C_23  and  C_24 
ROOT
HETATM    1  N   UNL     1       5.623  28.999  49.412  1.00  0.00    -0.328 N 
HETATM    2  C   UNL     1       5.450  28.395  50.662  1.00  0.00     0.323 C 
HETATM    3  N   UNL     1       5.688  27.042  50.667  1.00  0.00    -0.309 N 
HETATM    4  O   UNL     1       5.158  29.081  51.637  1.00  0.00    -0.247 OA
HETATM    5  H   UNL     1       6.064  26.653  49.816  1.00  0.00     0.170 HD
ENDROOT
BRANCH   1   6
HETATM    6  C   UNL     1       5.713  30.455  49.370  1.00  0.00     0.155 C 
BRANCH   6   7
HETATM    7  C   UNL     1       4.375  31.132  49.033  1.00  0.00     0.254 C 
BRANCH   7   8
HETATM    8  N   UNL     1       3.547  31.373  50.290  1.00  0.00    -0.077 N 
HETATM    9  C   UNL     1       2.300  30.527  50.337  1.00  0.00     0.269 C 
HETATM   10  H   UNL     1       4.120  31.112  51.104  1.00  0.00     0.279 HD
HETATM   11  C   UNL     1       3.217  32.831  50.466  1.00  0.00     0.269 C 
ENDBRANCH   7   8
ENDBRANCH   6   7
ENDBRANCH   1   6
BRANCH   1  12
HETATM   12  C   UNL     1       5.625  28.282  48.131  1.00  0.00     0.166 C 
BRANCH  12  13
HETATM   13  C   UNL     1       4.298  27.667  47.752  1.00  0.00    -0.040 A 
HETATM   14  C   UNL     1       4.048  26.288  47.839  1.00  0.00     0.009 A 
HETATM   15  C   UNL     1       2.786  25.774  47.536  1.00  0.00     0.001 A 
HETATM   16  C   UNL     1       1.765  26.626  47.126  1.00  0.00     0.000 A 
HETATM   17  C   UNL     1       2.004  27.992  47.009  1.00  0.00     0.001 A 
HETATM   18  C   UNL     1       3.264  28.510  47.316  1.00  0.00     0.009 A 
ENDBRANCH  12  13
ENDBRANCH   1  12
BRANCH   3  19
HETATM   19  C   UNL     1       5.751  26.155  51.760  1.00  0.00     0.042 A 
HETATM   20  C   UNL     1       6.947  25.451  51.909  1.00  0.00     0.087 A 
HETATM   21  C   UNL     1       7.089  24.582  52.979  1.00  0.00     0.171 A 
HETATM   22  N   UNL     1       6.121  24.369  53.890  1.00  0.00    -0.237 NA
HETATM   23  C   UNL     1       4.970  25.060  53.722  1.00  0.00     0.122 A 
HETATM   24  C   UNL     1       4.738  25.956  52.686  1.00  0.00     0.049 A 
BRANCH  21  25
HETATM   25  O   UNL     1       8.326  23.948  53.048  1.00  0.00    -0.292 OA
BRANCH  25  26
HETATM   26  C   UNL     1       8.404  22.713  53.634  1.00  0.00     0.077 A 
HETATM   27  C   UNL     1       9.027  22.510  54.864  1.00  0.00     0.037 A 
HETATM   28  C   UNL     1       9.188  21.212  55.352  1.00  0.00     0.003 A 
HETATM   29  C   UNL     1       8.745  20.122  54.601  1.00  0.00     0.000 A 
HETATM   30  C   UNL     1       8.141  20.326  53.361  1.00  0.00     0.003 A 
HETATM   31  C   UNL     1       7.978  21.622  52.873  1.00  0.00     0.037 A 
ENDBRANCH  25  26
ENDBRANCH  21  25
ENDBRANCH   3  19
TORSDOF 8
ENDMDL
