MODEL 1
REMARK VINA RESULT:      -8.9      0.000      0.000
REMARK  3 active torsions:
REMARK  status: ('A' for Active; 'I' for Inactive)
REMARK    1  A    between atoms: C_6  and  N_7 
REMARK       I    between atoms: N_7  and  C_8 
REMARK    2  A    between atoms: C_8  and  C_9 
REMARK    3  A    between atoms: C_9  and  C_10 
ROOT
HETATM    1  C   UNL     1       7.603  25.537  56.535  1.00  0.00     0.286 C 
HETATM    2  N   UNL     1       6.433  25.011  55.712  1.00  0.00    -0.056 N 
HETATM    3  H   UNL     1       5.729  24.691  56.412  1.00  0.00     0.278 HD
HETATM    4  H   UNL     1       5.978  25.765  55.184  1.00  0.00     0.278 HD
HETATM    5  C   UNL     1       6.758  23.841  54.823  1.00  0.00     0.209 C 
HETATM    6  C   UNL     1       7.447  22.730  55.655  1.00  0.00     0.115 C 
HETATM    7  N   UNL     1       8.528  23.233  56.501  1.00  0.00    -0.353 N 
HETATM    8  C   UNL     1       8.443  24.422  57.187  1.00  0.00     0.249 C 
HETATM    9  O   UNL     1       9.103  24.592  58.205  1.00  0.00    -0.271 OA
HETATM   10  C   UNL     1       7.587  24.314  53.626  1.00  0.00     0.035 C 
HETATM   11  C   UNL     1       8.018  23.134  52.758  1.00  0.00     0.002 C 
HETATM   12  C   UNL     1       8.775  22.092  53.576  1.00  0.00     0.002 C 
HETATM   13  C   UNL     1       7.943  21.592  54.756  1.00  0.00     0.027 C 
HETATM   14  H   UNL     1       9.081  22.545  57.011  1.00  0.00     0.163 HD
ENDROOT
BRANCH   1  15
HETATM   15  C   UNL     1       7.149  26.581  57.569  1.00  0.00     0.146 C 
BRANCH  15  16
HETATM   16  C   UNL     1       6.381  27.707  56.931  1.00  0.00     0.224 C 
HETATM   17  N   UNL     1       6.887  28.958  56.788  1.00  0.00    -0.327 N 
HETATM   18  H   UNL     1       6.217  29.571  56.330  1.00  0.00     0.169 HD
HETATM   19  O   UNL     1       5.269  27.459  56.442  1.00  0.00    -0.273 OA
BRANCH  17  20
HETATM   20  C   UNL     1       8.111  29.577  57.121  1.00  0.00     0.036 A 
HETATM   21  C   UNL     1       8.346  30.392  58.227  1.00  0.00     0.053 A 
HETATM   22  C   UNL     1       9.612  30.954  58.437  1.00  0.00     0.036 A 
HETATM   23  C   UNL     1      10.663  30.703  57.562  1.00  0.00     0.024 A 
HETATM   24 CL   UNL     1       9.867  31.970  59.805  1.00  0.00    -0.084 Cl
HETATM   25  C   UNL     1      10.447  29.881  56.463  1.00  0.00     0.004 A 
HETATM   26  C   UNL     1       9.181  29.326  56.246  1.00  0.00     0.029 A 
ENDBRANCH  17  20
ENDBRANCH  15  16
ENDBRANCH   1  15
TORSDOF 3
ENDMDL
MODEL 2
REMARK VINA RESULT:      -8.5      4.313      6.918
REMARK  3 active torsions:
REMARK  status: ('A' for Active; 'I' for Inactive)
REMARK    1  A    between atoms: C_6  and  N_7 
REMARK       I    between atoms: N_7  and  C_8 
REMARK    2  A    between atoms: C_8  and  C_9 
REMARK    3  A    between atoms: C_9  and  C_10 
ROOT
HETATM    1  C   UNL     1       5.748  25.753  54.924  1.00  0.00     0.286 C 
HETATM    2  N   UNL     1       6.824  25.696  53.846  1.00  0.00    -0.056 N 
HETATM    3  H   UNL     1       7.671  26.122  54.283  1.00  0.00     0.278 HD
HETATM    4  H   UNL     1       7.082  24.727  53.626  1.00  0.00     0.278 HD
HETATM    5  C   UNL     1       6.514  26.476  52.598  1.00  0.00     0.209 C 
HETATM    6  C   UNL     1       6.125  27.928  52.974  1.00  0.00     0.115 C 
HETATM    7  N   UNL     1       5.142  27.999  54.054  1.00  0.00    -0.353 N 
HETATM    8  C   UNL     1       5.183  27.169  55.150  1.00  0.00     0.249 C 
HETATM    9  O   UNL     1       4.683  27.527  56.210  1.00  0.00    -0.271 OA
HETATM   10  C   UNL     1       5.443  25.746  51.783  1.00  0.00     0.035 C 
HETATM   11  C   UNL     1       5.034  26.562  50.560  1.00  0.00     0.002 C 
HETATM   12  C   UNL     1       4.567  27.959  50.957  1.00  0.00     0.002 C 
HETATM   13  C   UNL     1       5.642  28.707  51.745  1.00  0.00     0.027 C 
HETATM   14  H   UNL     1       4.777  28.920  54.294  1.00  0.00     0.163 HD
ENDROOT
BRANCH   1  15
HETATM   15  C   UNL     1       6.225  25.119  56.241  1.00  0.00     0.146 C 
BRANCH  15  16
HETATM   16  C   UNL     1       7.709  25.275  56.434  1.00  0.00     0.224 C 
HETATM   17  N   UNL     1       8.590  24.261  56.236  1.00  0.00    -0.327 N 
HETATM   18  H   UNL     1       9.543  24.568  56.413  1.00  0.00     0.169 HD
HETATM   19  O   UNL     1       8.153  26.400  56.707  1.00  0.00    -0.273 OA
BRANCH  17  20
HETATM   20  C   UNL     1       8.476  22.910  55.842  1.00  0.00     0.036 A 
HETATM   21  C   UNL     1       8.451  22.436  54.532  1.00  0.00     0.053 A 
HETATM   22  C   UNL     1       8.324  21.063  54.279  1.00  0.00     0.036 A 
HETATM   23  C   UNL     1       8.234  20.146  55.320  1.00  0.00     0.024 A 
HETATM   24 CL   UNL     1       8.282  20.508  52.649  1.00  0.00    -0.084 Cl
HETATM   25  C   UNL     1       8.270  20.605  56.631  1.00  0.00     0.004 A 
HETATM   26  C   UNL     1       8.388  21.975  56.887  1.00  0.00     0.029 A 
ENDBRANCH  17  20
ENDBRANCH  15  16
ENDBRANCH   1  15
TORSDOF 3
ENDMDL
MODEL 3
REMARK VINA RESULT:      -8.4      4.906      7.674
REMARK  3 active torsions:
REMARK  status: ('A' for Active; 'I' for Inactive)
REMARK    1  A    between atoms: C_6  and  N_7 
REMARK       I    between atoms: N_7  and  C_8 
REMARK    2  A    between atoms: C_8  and  C_9 
REMARK    3  A    between atoms: C_9  and  C_10 
ROOT
HETATM    1  C   UNL     1       4.880  26.045  52.337  1.00  0.00     0.286 C 
HETATM    2  N   UNL     1       5.780  26.034  51.107  1.00  0.00    -0.056 N 
HETATM    3  H   UNL     1       6.635  26.559  51.391  1.00  0.00     0.278 HD
HETATM    4  H   UNL     1       6.097  25.083  50.886  1.00  0.00     0.278 HD
HETATM    5  C   UNL     1       5.205  26.715  49.895  1.00  0.00     0.209 C 
HETATM    6  C   UNL     1       4.734  28.141  50.274  1.00  0.00     0.115 C 
HETATM    7  N   UNL     1       3.925  28.175  51.491  1.00  0.00    -0.353 N 
HETATM    8  C   UNL     1       4.215  27.411  52.597  1.00  0.00     0.249 C 
HETATM    9  O   UNL     1       3.849  27.775  53.708  1.00  0.00    -0.271 OA
HETATM   10  C   UNL     1       4.103  25.846  49.285  1.00  0.00     0.035 C 
HETATM   11  C   UNL     1       3.431  26.555  48.112  1.00  0.00     0.002 C 
HETATM   12  C   UNL     1       2.892  27.921  48.526  1.00  0.00     0.002 C 
HETATM   13  C   UNL     1       3.993  28.807  49.108  1.00  0.00     0.027 C 
HETATM   14  H   UNL     1       3.510  29.069  51.751  1.00  0.00     0.163 HD
ENDROOT
BRANCH   1  15
HETATM   15  C   UNL     1       5.613  25.528  53.586  1.00  0.00     0.146 C 
BRANCH  15  16
HETATM   16  C   UNL     1       7.084  25.842  53.544  1.00  0.00     0.224 C 
HETATM   17  N   UNL     1       8.045  24.905  53.743  1.00  0.00    -0.327 N 
HETATM   18  H   UNL     1       8.974  25.314  53.669  1.00  0.00     0.169 HD
HETATM   19  O   UNL     1       7.433  26.990  53.232  1.00  0.00    -0.273 OA
BRANCH  17  20
HETATM   20  C   UNL     1       8.039  23.520  54.018  1.00  0.00     0.036 A 
HETATM   21  C   UNL     1       8.156  22.931  55.275  1.00  0.00     0.053 A 
HETATM   22  C   UNL     1       8.144  21.536  55.408  1.00  0.00     0.036 A 
HETATM   23  C   UNL     1       8.001  20.710  54.298  1.00  0.00     0.024 A 
HETATM   24 CL   UNL     1       8.305  20.837  56.973  1.00  0.00    -0.084 Cl
HETATM   25  C   UNL     1       7.871  21.285  53.039  1.00  0.00     0.004 A 
HETATM   26  C   UNL     1       7.891  22.677  52.904  1.00  0.00     0.029 A 
ENDBRANCH  17  20
ENDBRANCH  15  16
ENDBRANCH   1  15
TORSDOF 3
ENDMDL
MODEL 4
REMARK VINA RESULT:      -8.4      3.780      4.923
REMARK  3 active torsions:
REMARK  status: ('A' for Active; 'I' for Inactive)
REMARK    1  A    between atoms: C_6  and  N_7 
REMARK       I    between atoms: N_7  and  C_8 
REMARK    2  A    between atoms: C_8  and  C_9 
REMARK    3  A    between atoms: C_9  and  C_10 
ROOT
HETATM    1  C   UNL     1       7.916  24.582  55.024  1.00  0.00     0.286 C 
HETATM    2  N   UNL     1       6.854  23.677  54.412  1.00  0.00    -0.056 N 
HETATM    3  H   UNL     1       6.020  23.778  55.031  1.00  0.00     0.278 HD
HETATM    4  H   UNL     1       6.559  24.016  53.490  1.00  0.00     0.278 HD
HETATM    5  C   UNL     1       7.215  22.217  54.368  1.00  0.00     0.209 C 
HETATM    6  C   UNL     1       7.658  21.746  55.776  1.00  0.00     0.115 C 
HETATM    7  N   UNL     1       8.628  22.644  56.402  1.00  0.00    -0.353 N 
HETATM    8  C   UNL     1       8.537  24.013  56.314  1.00  0.00     0.249 C 
HETATM    9  O   UNL     1       9.036  24.719  57.183  1.00  0.00    -0.271 OA
HETATM   10  C   UNL     1       8.265  21.975  53.281  1.00  0.00     0.035 C 
HETATM   11  C   UNL     1       8.726  20.519  53.278  1.00  0.00     0.002 C 
HETATM   12  C   UNL     1       9.245  20.100  54.650  1.00  0.00     0.002 C 
HETATM   13  C   UNL     1       8.191  20.310  55.737  1.00  0.00     0.027 C 
HETATM   14  H   UNL     1       9.027  22.350  57.293  1.00  0.00     0.163 HD
ENDROOT
BRANCH   1  15
HETATM   15  C   UNL     1       7.395  26.014  55.232  1.00  0.00     0.146 C 
BRANCH  15  16
HETATM   16  C   UNL     1       5.908  26.042  55.462  1.00  0.00     0.224 C 
HETATM   17  N   UNL     1       5.019  26.395  54.500  1.00  0.00    -0.327 N 
HETATM   18  H   UNL     1       4.065  26.346  54.850  1.00  0.00     0.169 HD
HETATM   19  O   UNL     1       5.473  25.646  56.554  1.00  0.00    -0.273 OA
BRANCH  17  20
HETATM   20  C   UNL     1       5.124  26.800  53.152  1.00  0.00     0.036 A 
HETATM   21  C   UNL     1       5.273  28.108  52.696  1.00  0.00     0.053 A 
HETATM   22  C   UNL     1       5.358  28.375  51.322  1.00  0.00     0.036 A 
HETATM   23  C   UNL     1       5.309  27.347  50.387  1.00  0.00     0.024 A 
HETATM   24 CL   UNL     1       5.526  30.004  50.789  1.00  0.00    -0.084 Cl
HETATM   25  C   UNL     1       5.174  26.036  50.829  1.00  0.00     0.004 A 
HETATM   26  C   UNL     1       5.081  25.769  52.199  1.00  0.00     0.029 A 
ENDBRANCH  17  20
ENDBRANCH  15  16
ENDBRANCH   1  15
TORSDOF 3
ENDMDL
MODEL 5
REMARK VINA RESULT:      -8.3      3.125      4.105
REMARK  3 active torsions:
REMARK  status: ('A' for Active; 'I' for Inactive)
REMARK    1  A    between atoms: C_6  and  N_7 
REMARK       I    between atoms: N_7  and  C_8 
REMARK    2  A    between atoms: C_8  and  C_9 
REMARK    3  A    between atoms: C_9  and  C_10 
ROOT
HETATM    1  C   UNL     1       6.731  24.452  56.240  1.00  0.00     0.286 C 
HETATM    2  N   UNL     1       8.197  24.075  56.413  1.00  0.00    -0.056 N 
HETATM    3  H   UNL     1       8.733  24.905  56.078  1.00  0.00     0.278 HD
HETATM    4  H   UNL     1       8.441  23.967  57.404  1.00  0.00     0.278 HD
HETATM    5  C   UNL     1       8.646  22.887  55.606  1.00  0.00     0.209 C 
HETATM    6  C   UNL     1       8.254  23.087  54.121  1.00  0.00     0.115 C 
HETATM    7  N   UNL     1       6.867  23.515  53.945  1.00  0.00    -0.353 N 
HETATM    8  C   UNL     1       6.262  24.431  54.772  1.00  0.00     0.249 C 
HETATM    9  O   UNL     1       5.324  25.104  54.361  1.00  0.00    -0.271 OA
HETATM   10  C   UNL     1       8.085  21.602  56.220  1.00  0.00     0.035 C 
HETATM   11  C   UNL     1       8.439  20.386  55.367  1.00  0.00     0.002 C 
HETATM   12  C   UNL     1       7.965  20.562  53.928  1.00  0.00     0.002 C 
HETATM   13  C   UNL     1       8.545  21.828  53.297  1.00  0.00     0.027 C 
HETATM   14  H   UNL     1       6.517  23.583  52.990  1.00  0.00     0.163 HD
ENDROOT
BRANCH   1  15
HETATM   15  C   UNL     1       6.402  25.792  56.919  1.00  0.00     0.146 C 
BRANCH  15  16
HETATM   16  C   UNL     1       7.540  26.770  56.811  1.00  0.00     0.224 C 
HETATM   17  N   UNL     1       7.541  27.808  55.937  1.00  0.00    -0.327 N 
HETATM   18  H   UNL     1       8.396  28.354  56.022  1.00  0.00     0.169 HD
HETATM   19  O   UNL     1       8.481  26.671  57.613  1.00  0.00    -0.273 OA
BRANCH  17  20
HETATM   20  C   UNL     1       6.638  28.287  54.964  1.00  0.00     0.036 A 
HETATM   21  C   UNL     1       5.516  29.077  55.203  1.00  0.00     0.053 A 
HETATM   22  C   UNL     1       4.692  29.479  54.142  1.00  0.00     0.036 A 
HETATM   23  C   UNL     1       4.980  29.112  52.832  1.00  0.00     0.024 A 
HETATM   24 CL   UNL     1       3.304  30.443  54.471  1.00  0.00    -0.084 Cl
HETATM   25  C   UNL     1       6.103  28.335  52.578  1.00  0.00     0.004 A 
HETATM   26  C   UNL     1       6.922  27.926  53.636  1.00  0.00     0.029 A 
ENDBRANCH  17  20
ENDBRANCH  15  16
ENDBRANCH   1  15
TORSDOF 3
ENDMDL
MODEL 6
REMARK VINA RESULT:      -8.2      2.993      6.993
REMARK  3 active torsions:
REMARK  status: ('A' for Active; 'I' for Inactive)
REMARK    1  A    between atoms: C_6  and  N_7 
REMARK       I    between atoms: N_7  and  C_8 
REMARK    2  A    between atoms: C_8  and  C_9 
REMARK    3  A    between atoms: C_9  and  C_10 
ROOT
HETATM    1  C   UNL     1       7.131  28.662  55.646  1.00  0.00     0.286 C 
HETATM    2  N   UNL     1       8.054  27.824  56.522  1.00  0.00    -0.056 N 
HETATM    3  H   UNL     1       7.418  27.286  57.151  1.00  0.00     0.278 HD
HETATM    4  H   UNL     1       8.557  27.121  55.969  1.00  0.00     0.278 HD
HETATM    5  C   UNL     1       8.995  28.614  57.390  1.00  0.00     0.209 C 
HETATM    6  C   UNL     1       8.197  29.664  58.203  1.00  0.00     0.115 C 
HETATM    7  N   UNL     1       7.258  30.431  57.385  1.00  0.00    -0.353 N 
HETATM    8  C   UNL     1       6.503  29.859  56.388  1.00  0.00     0.249 C 
HETATM    9  O   UNL     1       5.439  30.367  56.055  1.00  0.00    -0.271 OA
HETATM   10  C   UNL     1      10.108  29.218  56.531  1.00  0.00     0.035 C 
HETATM   11  C   UNL     1      11.024  30.109  57.368  1.00  0.00     0.002 C 
HETATM   12  C   UNL     1      10.232  31.195  58.089  1.00  0.00     0.002 C 
HETATM   13  C   UNL     1       9.137  30.598  58.974  1.00  0.00     0.027 C 
HETATM   14  H   UNL     1       6.762  31.197  57.839  1.00  0.00     0.163 HD
ENDROOT
BRANCH   1  15
HETATM   15  C   UNL     1       6.060  27.801  54.956  1.00  0.00     0.146 C 
BRANCH  15  16
HETATM   16  C   UNL     1       5.466  26.785  55.895  1.00  0.00     0.224 C 
HETATM   17  N   UNL     1       5.714  25.455  55.795  1.00  0.00    -0.327 N 
HETATM   18  H   UNL     1       5.226  24.938  56.522  1.00  0.00     0.169 HD
HETATM   19  O   UNL     1       4.787  27.191  56.850  1.00  0.00    -0.273 OA
BRANCH  17  20
HETATM   20  C   UNL     1       6.487  24.652  54.928  1.00  0.00     0.036 A 
HETATM   21  C   UNL     1       7.552  23.834  55.297  1.00  0.00     0.053 A 
HETATM   22  C   UNL     1       8.244  23.091  54.330  1.00  0.00     0.036 A 
HETATM   23  C   UNL     1       7.877  23.141  52.990  1.00  0.00     0.024 A 
HETATM   24 CL   UNL     1       9.566  22.101  54.815  1.00  0.00    -0.084 Cl
HETATM   25  C   UNL     1       6.808  23.943  52.610  1.00  0.00     0.004 A 
HETATM   26  C   UNL     1       6.122  24.691  53.572  1.00  0.00     0.029 A 
ENDBRANCH  17  20
ENDBRANCH  15  16
ENDBRANCH   1  15
TORSDOF 3
ENDMDL
MODEL 7
REMARK VINA RESULT:      -8.2      3.043      7.142
REMARK  3 active torsions:
REMARK  status: ('A' for Active; 'I' for Inactive)
REMARK    1  A    between atoms: C_6  and  N_7 
REMARK       I    between atoms: N_7  and  C_8 
REMARK    2  A    between atoms: C_8  and  C_9 
REMARK    3  A    between atoms: C_9  and  C_10 
ROOT
HETATM    1  C   UNL     1       6.609  26.686  55.711  1.00  0.00     0.286 C 
HETATM    2  N   UNL     1       6.995  27.984  55.012  1.00  0.00    -0.056 N 
HETATM    3  H   UNL     1       7.790  27.730  54.387  1.00  0.00     0.278 HD
HETATM    4  H   UNL     1       6.246  28.310  54.391  1.00  0.00     0.278 HD
HETATM    5  C   UNL     1       7.464  29.082  55.927  1.00  0.00     0.209 C 
HETATM    6  C   UNL     1       8.588  28.547  56.849  1.00  0.00     0.115 C 
HETATM    7  N   UNL     1       8.258  27.268  57.475  1.00  0.00    -0.353 N 
HETATM    8  C   UNL     1       7.610  26.258  56.803  1.00  0.00     0.249 C 
HETATM    9  O   UNL     1       7.758  25.093  57.154  1.00  0.00    -0.271 OA
HETATM   10  C   UNL     1       6.272  29.668  56.688  1.00  0.00     0.035 C 
HETATM   11  C   UNL     1       6.729  30.717  57.699  1.00  0.00     0.002 C 
HETATM   12  C   UNL     1       7.770  30.146  58.657  1.00  0.00     0.002 C 
HETATM   13  C   UNL     1       8.978  29.587  57.906  1.00  0.00     0.027 C 
HETATM   14  H   UNL     1       8.917  26.900  58.160  1.00  0.00     0.163 HD
ENDROOT
BRANCH   1  15
HETATM   15  C   UNL     1       6.350  25.551  54.707  1.00  0.00     0.146 C 
BRANCH  15  16
HETATM   16  C   UNL     1       7.395  25.509  53.625  1.00  0.00     0.224 C 
HETATM   17  N   UNL     1       8.092  24.387  53.314  1.00  0.00    -0.327 N 
HETATM   18  H   UNL     1       8.745  24.563  52.554  1.00  0.00     0.169 HD
HETATM   19  O   UNL     1       7.567  26.524  52.933  1.00  0.00    -0.273 OA
BRANCH  17  20
HETATM   20  C   UNL     1       8.104  23.061  53.799  1.00  0.00     0.036 A 
HETATM   21  C   UNL     1       8.233  22.674  55.131  1.00  0.00     0.053 A 
HETATM   22  C   UNL     1       8.240  21.315  55.476  1.00  0.00     0.036 A 
HETATM   23  C   UNL     1       8.104  20.328  54.507  1.00  0.00     0.024 A 
HETATM   24 CL   UNL     1       8.416  20.868  57.130  1.00  0.00    -0.084 Cl
HETATM   25  C   UNL     1       7.961  20.700  53.176  1.00  0.00     0.004 A 
HETATM   26  C   UNL     1       7.963  22.055  52.828  1.00  0.00     0.029 A 
ENDBRANCH  17  20
ENDBRANCH  15  16
ENDBRANCH   1  15
TORSDOF 3
ENDMDL
MODEL 8
REMARK VINA RESULT:      -8.0      2.565      3.441
REMARK  3 active torsions:
REMARK  status: ('A' for Active; 'I' for Inactive)
REMARK    1  A    between atoms: C_6  and  N_7 
REMARK       I    between atoms: N_7  and  C_8 
REMARK    2  A    between atoms: C_8  and  C_9 
REMARK    3  A    between atoms: C_9  and  C_10 
ROOT
HETATM    1  C   UNL     1       7.841  27.530  56.534  1.00  0.00     0.286 C 
HETATM    2  N   UNL     1       6.781  27.780  55.469  1.00  0.00    -0.056 N 
HETATM    3  H   UNL     1       5.885  27.877  55.994  1.00  0.00     0.278 HD
HETATM    4  H   UNL     1       6.928  28.681  54.999  1.00  0.00     0.278 HD
HETATM    5  C   UNL     1       6.608  26.666  54.472  1.00  0.00     0.209 C 
HETATM    6  C   UNL     1       6.395  25.326  55.220  1.00  0.00     0.115 C 
HETATM    7  N   UNL     1       7.366  25.105  56.291  1.00  0.00    -0.353 N 
HETATM    8  C   UNL     1       7.788  26.110  57.130  1.00  0.00     0.249 C 
HETATM    9  O   UNL     1       8.200  25.840  58.252  1.00  0.00    -0.271 OA
HETATM   10  C   UNL     1       7.794  26.647  53.505  1.00  0.00     0.035 C 
HETATM   11  C   UNL     1       7.698  25.465  52.544  1.00  0.00     0.002 C 
HETATM   12  C   UNL     1       7.581  24.145  53.298  1.00  0.00     0.002 C 
HETATM   13  C   UNL     1       6.380  24.144  54.245  1.00  0.00     0.027 C 
HETATM   14  H   UNL     1       7.337  24.205  56.768  1.00  0.00     0.163 HD
ENDROOT
BRANCH   1  15
HETATM   15  C   UNL     1       7.811  28.605  57.634  1.00  0.00     0.146 C 
BRANCH  15  16
HETATM   16  C   UNL     1       9.101  29.377  57.700  1.00  0.00     0.224 C 
HETATM   17  N   UNL     1       9.352  30.314  58.649  1.00  0.00    -0.327 N 
HETATM   18  H   UNL     1      10.278  30.717  58.526  1.00  0.00     0.169 HD
HETATM   19  O   UNL     1      10.004  29.084  56.903  1.00  0.00    -0.273 OA
BRANCH  17  20
HETATM   20  C   UNL     1       8.631  30.835  59.745  1.00  0.00     0.036 A 
HETATM   21  C   UNL     1       7.457  31.582  59.675  1.00  0.00     0.053 A 
HETATM   22  C   UNL     1       6.844  32.049  60.846  1.00  0.00     0.036 A 
HETATM   23  C   UNL     1       7.379  31.768  62.098  1.00  0.00     0.024 A 
HETATM   24 CL   UNL     1       5.401  32.983  60.727  1.00  0.00    -0.084 Cl
HETATM   25  C   UNL     1       8.542  31.012  62.182  1.00  0.00     0.004 A 
HETATM   26  C   UNL     1       9.161  30.553  61.015  1.00  0.00     0.029 A 
ENDBRANCH  17  20
ENDBRANCH  15  16
ENDBRANCH   1  15
TORSDOF 3
ENDMDL
MODEL 9
REMARK VINA RESULT:      -8.0      5.237      6.807
REMARK  3 active torsions:
REMARK  status: ('A' for Active; 'I' for Inactive)
REMARK    1  A    between atoms: C_6  and  N_7 
REMARK       I    between atoms: N_7  and  C_8 
REMARK    2  A    between atoms: C_8  and  C_9 
REMARK    3  A    between atoms: C_9  and  C_10 
ROOT
HETATM    1  C   UNL     1       6.702  26.837  53.095  1.00  0.00     0.286 C 
HETATM    2  N   UNL     1       5.859  25.604  52.793  1.00  0.00    -0.056 N 
HETATM    3  H   UNL     1       4.929  25.798  53.224  1.00  0.00     0.278 HD
HETATM    4  H   UNL     1       5.685  25.508  51.786  1.00  0.00     0.278 HD
HETATM    5  C   UNL     1       6.378  24.321  53.383  1.00  0.00     0.209 C 
HETATM    6  C   UNL     1       6.632  24.510  54.900  1.00  0.00     0.115 C 
HETATM    7  N   UNL     1       7.383  25.726  55.209  1.00  0.00    -0.353 N 
HETATM    8  C   UNL     1       7.161  26.920  54.564  1.00  0.00     0.249 C 
HETATM    9  O   UNL     1       7.431  27.978  55.121  1.00  0.00    -0.271 OA
HETATM   10  C   UNL     1       7.612  23.855  52.607  1.00  0.00     0.035 C 
HETATM   11  C   UNL     1       8.222  22.609  53.244  1.00  0.00     0.002 C 
HETATM   12  C   UNL     1       8.551  22.842  54.715  1.00  0.00     0.002 C 
HETATM   13  C   UNL     1       7.316  23.279  55.504  1.00  0.00     0.027 C 
HETATM   14  H   UNL     1       7.660  25.869  56.180  1.00  0.00     0.163 HD
ENDROOT
BRANCH   1  15
HETATM   15  C   UNL     1       6.002  28.131  52.648  1.00  0.00     0.146 C 
BRANCH  15  16
HETATM   16  C   UNL     1       4.507  27.972  52.598  1.00  0.00     0.224 C 
HETATM   17  N   UNL     1       3.810  27.904  51.435  1.00  0.00    -0.327 N 
HETATM   18  H   UNL     1       2.815  27.791  51.613  1.00  0.00     0.169 HD
HETATM   19  O   UNL     1       3.895  27.814  53.665  1.00  0.00    -0.273 OA
BRANCH  17  20
HETATM   20  C   UNL     1       4.156  27.948  50.067  1.00  0.00     0.036 A 
HETATM   21  C   UNL     1       4.238  29.092  49.277  1.00  0.00     0.053 A 
HETATM   22  C   UNL     1       4.586  28.994  47.923  1.00  0.00     0.036 A 
HETATM   23  C   UNL     1       4.870  27.764  47.342  1.00  0.00     0.024 A 
HETATM   24 CL   UNL     1       4.665  30.426  46.967  1.00  0.00    -0.084 Cl
HETATM   25  C   UNL     1       4.805  26.616  48.122  1.00  0.00     0.004 A 
HETATM   26  C   UNL     1       4.449  26.710  49.471  1.00  0.00     0.029 A 
ENDBRANCH  17  20
ENDBRANCH  15  16
ENDBRANCH   1  15
TORSDOF 3
ENDMDL
MODEL 10
REMARK VINA RESULT:      -8.0      3.194      7.361
REMARK  3 active torsions:
REMARK  status: ('A' for Active; 'I' for Inactive)
REMARK    1  A    between atoms: C_6  and  N_7 
REMARK       I    between atoms: N_7  and  C_8 
REMARK    2  A    between atoms: C_8  and  C_9 
REMARK    3  A    between atoms: C_9  and  C_10 
ROOT
HETATM    1  C   UNL     1       6.343  27.924  56.188  1.00  0.00     0.286 C 
HETATM    2  N   UNL     1       6.224  29.223  55.401  1.00  0.00    -0.056 N 
HETATM    3  H   UNL     1       7.178  29.396  55.014  1.00  0.00     0.278 HD
HETATM    4  H   UNL     1       5.609  29.112  54.587  1.00  0.00     0.278 HD
HETATM    5  C   UNL     1       5.839  30.427  56.218  1.00  0.00     0.209 C 
HETATM    6  C   UNL     1       6.787  30.555  57.437  1.00  0.00     0.115 C 
HETATM    7  N   UNL     1       6.963  29.298  58.162  1.00  0.00    -0.353 N 
HETATM    8  C   UNL     1       7.092  28.085  57.526  1.00  0.00     0.249 C 
HETATM    9  O   UNL     1       7.684  27.164  58.075  1.00  0.00    -0.271 OA
HETATM   10  C   UNL     1       4.359  30.343  56.598  1.00  0.00     0.035 C 
HETATM   11  C   UNL     1       3.961  31.499  57.512  1.00  0.00     0.002 C 
HETATM   12  C   UNL     1       4.847  31.555  58.753  1.00  0.00     0.002 C 
HETATM   13  C   UNL     1       6.325  31.670  58.382  1.00  0.00     0.027 C 
HETATM   14  H   UNL     1       7.506  29.329  59.024  1.00  0.00     0.163 HD
ENDROOT
BRANCH   1  15
HETATM   15  C   UNL     1       6.946  26.794  55.337  1.00  0.00     0.146 C 
BRANCH  15  16
HETATM   16  C   UNL     1       5.935  26.203  54.392  1.00  0.00     0.224 C 
HETATM   17  N   UNL     1       5.996  24.920  53.954  1.00  0.00    -0.327 N 
HETATM   18  H   UNL     1       5.221  24.712  53.328  1.00  0.00     0.169 HD
HETATM   19  O   UNL     1       4.959  26.894  54.065  1.00  0.00    -0.273 OA
BRANCH  17  20
HETATM   20  C   UNL     1       6.873  23.836  54.174  1.00  0.00     0.036 A 
HETATM   21  C   UNL     1       7.149  23.239  55.403  1.00  0.00     0.053 A 
HETATM   22  C   UNL     1       8.052  22.171  55.484  1.00  0.00     0.036 A 
HETATM   23  C   UNL     1       8.681  21.674  54.348  1.00  0.00     0.024 A 
HETATM   24 CL   UNL     1       8.384  21.463  57.019  1.00  0.00    -0.084 Cl
HETATM   25  C   UNL     1       8.405  22.252  53.115  1.00  0.00     0.004 A 
HETATM   26  C   UNL     1       7.511  23.324  53.032  1.00  0.00     0.029 A 
ENDBRANCH  17  20
ENDBRANCH  15  16
ENDBRANCH   1  15
TORSDOF 3
ENDMDL
