MODEL 1
REMARK VINA RESULT:      -9.6      0.000      0.000
REMARK  8 active torsions:
REMARK  status: ('A' for Active; 'I' for Inactive)
REMARK    1  A    between atoms: O_2  and  C_3 
REMARK    2  A    between atoms: C_6  and  C_7 
REMARK    3  A    between atoms: C_11  and  S_12 
REMARK    4  A    between atoms: S_12  and  C_13 
REMARK    5  A    between atoms: C_13  and  C_14 
REMARK       I    between atoms: C_14  and  N_15 
REMARK    6  A    between atoms: N_15  and  C_16 
REMARK    7  A    between atoms: C_17  and  C_18 
REMARK       I    between atoms: C_18  and  N_19 
REMARK    8  A    between atoms: N_19  and  C_20 
ROOT
HETATM    1  C   UNL     1       7.629  27.855  55.664  1.00  0.00     0.231 C 
HETATM    2  N   UNL     1       6.779  26.769  55.686  1.00  0.00    -0.326 N 
HETATM    3  O   UNL     1       8.062  28.355  54.622  1.00  0.00    -0.272 OA
HETATM    4  H   UNL     1       6.217  26.679  56.528  1.00  0.00     0.169 HD
ENDROOT
BRANCH   1   5
HETATM    5  C   UNL     1       8.095  28.367  57.023  1.00  0.00     0.185 C 
BRANCH   5   6
HETATM    6  S   UNL     1       9.769  29.094  57.030  1.00  0.00    -0.081 SA
BRANCH   6   7
HETATM    7  C   UNL     1       9.543  30.361  58.166  1.00  0.00     0.185 A 
HETATM    8  N   UNL     1      10.219  31.536  58.153  1.00  0.00    -0.253 N 
HETATM    9  N   UNL     1       9.824  32.323  59.176  1.00  0.00    -0.152 NA
HETATM   10  H   UNL     1      10.937  31.856  57.514  1.00  0.00     0.191 HD
HETATM   11  C   UNL     1       8.891  31.559  59.775  1.00  0.00     0.182 A 
HETATM   12  N   UNL     1       8.682  30.352  59.145  1.00  0.00    -0.201 NA
BRANCH  11  13
HETATM   13  C   UNL     1       8.134  31.918  60.969  1.00  0.00     0.014 A 
HETATM   14  C   UNL     1       8.721  31.915  62.238  1.00  0.00     0.018 A 
HETATM   15  C   UNL     1       7.969  32.278  63.362  1.00  0.00     0.037 A 
HETATM   16  C   UNL     1       6.627  32.649  63.239  1.00  0.00     0.068 A 
HETATM   17  C   UNL     1       6.032  32.639  61.980  1.00  0.00     0.037 A 
HETATM   18  C   UNL     1       6.781  32.276  60.855  1.00  0.00     0.018 A 
BRANCH  16  19
HETATM   19  O   UNL     1       6.012  32.990  64.412  1.00  0.00    -0.356 OA
HETATM   20  C   UNL     1       6.747  33.830  65.295  1.00  0.00     0.210 C 
ENDBRANCH  16  19
ENDBRANCH  11  13
ENDBRANCH   6   7
ENDBRANCH   5   6
ENDBRANCH   1   5
BRANCH   2  21
HETATM   21  C   UNL     1       6.284  26.135  54.531  1.00  0.00     0.050 A 
HETATM   22  C   UNL     1       6.730  24.887  54.066  1.00  0.00     0.058 A 
HETATM   23  C   UNL     1       6.125  24.301  52.942  1.00  0.00     0.019 A 
HETATM   24  C   UNL     1       5.088  24.953  52.278  1.00  0.00     0.001 A 
HETATM   25  C   UNL     1       4.620  26.175  52.757  1.00  0.00     0.002 A 
HETATM   26  C   UNL     1       5.201  26.752  53.890  1.00  0.00     0.030 A 
BRANCH  22  27
HETATM   27  C   UNL     1       7.623  24.000  54.845  1.00  0.00     0.254 C 
HETATM   28  N   UNL     1       7.562  22.659  54.547  1.00  0.00    -0.352 N 
HETATM   29  H   UNL     1       6.998  22.373  53.745  1.00  0.00     0.163 HD
HETATM   30  O   UNL     1       8.325  24.491  55.725  1.00  0.00    -0.268 OA
BRANCH  28  31
HETATM   31  C   UNL     1       8.392  21.687  55.184  1.00  0.00     0.084 A 
HETATM   32  C   UNL     1       7.788  20.655  56.093  1.00  0.00     0.027 A 
HETATM   33  C   UNL     1       8.342  20.245  54.759  1.00  0.00     0.027 A 
ENDBRANCH  28  31
ENDBRANCH  22  27
ENDBRANCH   2  21
TORSDOF 8
ENDMDL
MODEL 2
REMARK VINA RESULT:      -9.5      2.413     10.065
REMARK  8 active torsions:
REMARK  status: ('A' for Active; 'I' for Inactive)
REMARK    1  A    between atoms: O_2  and  C_3 
REMARK    2  A    between atoms: C_6  and  C_7 
REMARK    3  A    between atoms: C_11  and  S_12 
REMARK    4  A    between atoms: S_12  and  C_13 
REMARK    5  A    between atoms: C_13  and  C_14 
REMARK       I    between atoms: C_14  and  N_15 
REMARK    6  A    between atoms: N_15  and  C_16 
REMARK    7  A    between atoms: C_17  and  C_18 
REMARK       I    between atoms: C_18  and  N_19 
REMARK    8  A    between atoms: N_19  and  C_20 
ROOT
HETATM    1  C   UNL     1       6.395  28.376  57.190  1.00  0.00     0.231 C 
HETATM    2  N   UNL     1       6.959  29.583  56.832  1.00  0.00    -0.326 N 
HETATM    3  O   UNL     1       7.021  27.482  57.767  1.00  0.00    -0.272 OA
HETATM    4  H   UNL     1       6.298  30.347  56.710  1.00  0.00     0.169 HD
ENDROOT
BRANCH   1   5
HETATM    5  C   UNL     1       4.953  28.154  56.748  1.00  0.00     0.185 C 
BRANCH   5   6
HETATM    6  S   UNL     1       4.638  28.486  54.980  1.00  0.00    -0.081 SA
BRANCH   6   7
HETATM    7  C   UNL     1       5.010  26.947  54.314  1.00  0.00     0.185 A 
HETATM    8  N   UNL     1       4.396  26.408  53.234  1.00  0.00    -0.253 N 
HETATM    9  N   UNL     1       4.903  25.188  52.958  1.00  0.00    -0.152 NA
HETATM   10  H   UNL     1       3.651  26.789  52.662  1.00  0.00     0.191 HD
HETATM   11  C   UNL     1       5.836  25.047  53.918  1.00  0.00     0.182 A 
HETATM   12  N   UNL     1       5.937  26.141  54.750  1.00  0.00    -0.201 NA
BRANCH  11  13
HETATM   13  C   UNL     1       6.694  23.883  54.110  1.00  0.00     0.014 A 
HETATM   14  C   UNL     1       6.980  23.385  55.384  1.00  0.00     0.018 A 
HETATM   15  C   UNL     1       7.798  22.257  55.531  1.00  0.00     0.037 A 
HETATM   16  C   UNL     1       8.338  21.611  54.415  1.00  0.00     0.068 A 
HETATM   17  C   UNL     1       8.069  22.112  53.144  1.00  0.00     0.037 A 
HETATM   18  C   UNL     1       7.253  23.238  52.994  1.00  0.00     0.018 A 
BRANCH  16  19
HETATM   19  O   UNL     1       9.108  20.516  54.697  1.00  0.00    -0.356 OA
HETATM   20  C   UNL     1       9.444  20.310  56.065  1.00  0.00     0.210 C 
ENDBRANCH  16  19
ENDBRANCH  11  13
ENDBRANCH   6   7
ENDBRANCH   5   6
ENDBRANCH   1   5
BRANCH   2  21
HETATM   21  C   UNL     1       8.289  29.945  57.114  1.00  0.00     0.050 A 
HETATM   22  C   UNL     1       8.671  30.752  58.199  1.00  0.00     0.058 A 
HETATM   23  C   UNL     1      10.032  31.001  58.441  1.00  0.00     0.019 A 
HETATM   24  C   UNL     1      11.009  30.458  57.608  1.00  0.00     0.001 A 
HETATM   25  C   UNL     1      10.634  29.628  56.553  1.00  0.00     0.002 A 
HETATM   26  C   UNL     1       9.283  29.357  56.321  1.00  0.00     0.030 A 
BRANCH  22  27
HETATM   27  C   UNL     1       7.748  31.147  59.286  1.00  0.00     0.254 C 
HETATM   28  N   UNL     1       8.241  31.064  60.566  1.00  0.00    -0.352 N 
HETATM   29  H   UNL     1       9.233  30.845  60.683  1.00  0.00     0.163 HD
HETATM   30  O   UNL     1       6.601  31.481  58.997  1.00  0.00    -0.268 OA
BRANCH  28  31
HETATM   31  C   UNL     1       7.483  31.450  61.713  1.00  0.00     0.084 A 
HETATM   32  C   UNL     1       8.181  31.897  62.966  1.00  0.00     0.027 A 
HETATM   33  C   UNL     1       7.422  32.892  62.137  1.00  0.00     0.027 A 
ENDBRANCH  28  31
ENDBRANCH  22  27
ENDBRANCH   2  21
TORSDOF 8
ENDMDL
MODEL 3
REMARK VINA RESULT:      -9.2      2.742     10.993
REMARK  8 active torsions:
REMARK  status: ('A' for Active; 'I' for Inactive)
REMARK    1  A    between atoms: O_2  and  C_3 
REMARK    2  A    between atoms: C_6  and  C_7 
REMARK    3  A    between atoms: C_11  and  S_12 
REMARK    4  A    between atoms: S_12  and  C_13 
REMARK    5  A    between atoms: C_13  and  C_14 
REMARK       I    between atoms: C_14  and  N_15 
REMARK    6  A    between atoms: N_15  and  C_16 
REMARK    7  A    between atoms: C_17  and  C_18 
REMARK       I    between atoms: C_18  and  N_19 
REMARK    8  A    between atoms: N_19  and  C_20 
ROOT
HETATM    1  C   UNL     1       8.429  31.282  58.968  1.00  0.00     0.231 C 
HETATM    2  N   UNL     1       7.495  31.091  59.965  1.00  0.00    -0.326 N 
HETATM    3  O   UNL     1       9.238  32.214  58.968  1.00  0.00    -0.272 OA
HETATM    4  H   UNL     1       7.151  30.138  60.056  1.00  0.00     0.169 HD
ENDROOT
BRANCH   1   5
HETATM    5  C   UNL     1       8.354  30.318  57.788  1.00  0.00     0.185 C 
BRANCH   5   6
HETATM    6  S   UNL     1       6.762  29.441  57.621  1.00  0.00    -0.081 SA
BRANCH   6   7
HETATM    7  C   UNL     1       7.061  28.544  56.188  1.00  0.00     0.185 A 
HETATM    8  N   UNL     1       7.258  29.090  54.964  1.00  0.00    -0.253 N 
HETATM    9  N   UNL     1       7.461  28.128  54.040  1.00  0.00    -0.152 NA
HETATM   10  H   UNL     1       7.259  30.066  54.690  1.00  0.00     0.191 HD
HETATM   11  C   UNL     1       7.380  27.006  54.780  1.00  0.00     0.182 A 
HETATM   12  N   UNL     1       7.161  27.246  56.119  1.00  0.00    -0.201 NA
BRANCH  11  13
HETATM   13  C   UNL     1       7.508  25.643  54.277  1.00  0.00     0.014 A 
HETATM   14  C   UNL     1       7.832  25.381  52.943  1.00  0.00     0.018 A 
HETATM   15  C   UNL     1       7.960  24.059  52.496  1.00  0.00     0.037 A 
HETATM   16  C   UNL     1       7.770  22.985  53.369  1.00  0.00     0.068 A 
HETATM   17  C   UNL     1       7.431  23.238  54.696  1.00  0.00     0.037 A 
HETATM   18  C   UNL     1       7.302  24.557  55.144  1.00  0.00     0.018 A 
BRANCH  16  19
HETATM   19  O   UNL     1       7.936  21.748  52.809  1.00  0.00    -0.356 OA
HETATM   20  C   UNL     1       7.831  20.632  53.687  1.00  0.00     0.210 C 
ENDBRANCH  16  19
ENDBRANCH  11  13
ENDBRANCH   6   7
ENDBRANCH   5   6
ENDBRANCH   1   5
BRANCH   2  21
HETATM   21  C   UNL     1       7.384  31.909  61.105  1.00  0.00     0.050 A 
HETATM   22  C   UNL     1       6.443  32.943  61.242  1.00  0.00     0.058 A 
HETATM   23  C   UNL     1       6.361  33.660  62.446  1.00  0.00     0.019 A 
HETATM   24  C   UNL     1       7.213  33.358  63.508  1.00  0.00     0.001 A 
HETATM   25  C   UNL     1       8.123  32.310  63.387  1.00  0.00     0.002 A 
HETATM   26  C   UNL     1       8.193  31.576  62.200  1.00  0.00     0.030 A 
BRANCH  22  27
HETATM   27  C   UNL     1       5.328  33.161  60.293  1.00  0.00     0.254 C 
HETATM   28  N   UNL     1       4.157  33.643  60.828  1.00  0.00    -0.352 N 
HETATM   29  H   UNL     1       4.160  33.923  61.811  1.00  0.00     0.163 HD
HETATM   30  O   UNL     1       5.489  32.866  59.112  1.00  0.00    -0.268 OA
BRANCH  28  31
HETATM   31  C   UNL     1       3.009  33.941  60.033  1.00  0.00     0.084 A 
HETATM   32  C   UNL     1       1.753  34.453  60.679  1.00  0.00     0.027 A 
HETATM   33  C   UNL     1       2.578  35.367  59.820  1.00  0.00     0.027 A 
ENDBRANCH  28  31
ENDBRANCH  22  27
ENDBRANCH   2  21
TORSDOF 8
ENDMDL
MODEL 4
REMARK VINA RESULT:      -9.1      1.711      3.684
REMARK  8 active torsions:
REMARK  status: ('A' for Active; 'I' for Inactive)
REMARK    1  A    between atoms: O_2  and  C_3 
REMARK    2  A    between atoms: C_6  and  C_7 
REMARK    3  A    between atoms: C_11  and  S_12 
REMARK    4  A    between atoms: S_12  and  C_13 
REMARK    5  A    between atoms: C_13  and  C_14 
REMARK       I    between atoms: C_14  and  N_15 
REMARK    6  A    between atoms: N_15  and  C_16 
REMARK    7  A    between atoms: C_17  and  C_18 
REMARK       I    between atoms: C_18  and  N_19 
REMARK    8  A    between atoms: N_19  and  C_20 
ROOT
HETATM    1  C   UNL     1       7.257  24.995  56.541  1.00  0.00     0.231 C 
HETATM    2  N   UNL     1       8.261  24.417  55.793  1.00  0.00    -0.326 N 
HETATM    3  O   UNL     1       6.102  24.559  56.575  1.00  0.00    -0.272 OA
HETATM    4  H   UNL     1       9.206  24.618  56.112  1.00  0.00     0.169 HD
ENDROOT
BRANCH   1   5
HETATM    5  C   UNL     1       7.622  26.283  57.270  1.00  0.00     0.185 C 
BRANCH   5   6
HETATM    6  S   UNL     1       7.740  27.757  56.199  1.00  0.00    -0.081 SA
BRANCH   6   7
HETATM    7  C   UNL     1       8.323  28.908  57.332  1.00  0.00     0.185 A 
HETATM    8  N   UNL     1       9.610  29.324  57.413  1.00  0.00    -0.253 N 
HETATM    9  N   UNL     1       9.757  30.226  58.406  1.00  0.00    -0.152 NA
HETATM   10  H   UNL     1      10.411  29.045  56.858  1.00  0.00     0.191 HD
HETATM   11  C   UNL     1       8.504  30.318  58.891  1.00  0.00     0.182 A 
HETATM   12  N   UNL     1       7.596  29.530  58.217  1.00  0.00    -0.201 NA
BRANCH  11  13
HETATM   13  C   UNL     1       8.082  31.154  60.009  1.00  0.00     0.014 A 
HETATM   14  C   UNL     1       8.796  31.188  61.210  1.00  0.00     0.018 A 
HETATM   15  C   UNL     1       8.370  32.012  62.259  1.00  0.00     0.037 A 
HETATM   16  C   UNL     1       7.232  32.812  62.127  1.00  0.00     0.068 A 
HETATM   17  C   UNL     1       6.507  32.771  60.939  1.00  0.00     0.037 A 
HETATM   18  C   UNL     1       6.930  31.948  59.889  1.00  0.00     0.018 A 
BRANCH  16  19
HETATM   19  O   UNL     1       6.933  33.577  63.220  1.00  0.00    -0.356 OA
HETATM   20  C   UNL     1       7.579  33.225  64.439  1.00  0.00     0.210 C 
ENDBRANCH  16  19
ENDBRANCH  11  13
ENDBRANCH   6   7
ENDBRANCH   5   6
ENDBRANCH   1   5
BRANCH   2  21
HETATM   21  C   UNL     1       8.095  23.253  55.020  1.00  0.00     0.050 A 
HETATM   22  C   UNL     1       7.680  23.253  53.677  1.00  0.00     0.058 A 
HETATM   23  C   UNL     1       7.612  22.044  52.966  1.00  0.00     0.019 A 
HETATM   24  C   UNL     1       7.946  20.841  53.584  1.00  0.00     0.001 A 
HETATM   25  C   UNL     1       8.391  20.842  54.904  1.00  0.00     0.002 A 
HETATM   26  C   UNL     1       8.485  22.044  55.611  1.00  0.00     0.030 A 
BRANCH  22  27
HETATM   27  C   UNL     1       7.568  24.482  52.860  1.00  0.00     0.254 C 
HETATM   28  N   UNL     1       6.326  24.755  52.337  1.00  0.00    -0.352 N 
HETATM   29  H   UNL     1       5.544  24.166  52.630  1.00  0.00     0.163 HD
HETATM   30  O   UNL     1       8.575  25.156  52.661  1.00  0.00    -0.268 OA
BRANCH  28  31
HETATM   31  C   UNL     1       6.053  25.924  51.564  1.00  0.00     0.084 A 
HETATM   32  C   UNL     1       4.868  25.961  50.640  1.00  0.00     0.027 A 
HETATM   33  C   UNL     1       4.869  26.794  51.889  1.00  0.00     0.027 A 
ENDBRANCH  28  31
ENDBRANCH  22  27
ENDBRANCH   2  21
TORSDOF 8
ENDMDL
MODEL 5
REMARK VINA RESULT:      -8.9      3.611      5.701
REMARK  8 active torsions:
REMARK  status: ('A' for Active; 'I' for Inactive)
REMARK    1  A    between atoms: O_2  and  C_3 
REMARK    2  A    between atoms: C_6  and  C_7 
REMARK    3  A    between atoms: C_11  and  S_12 
REMARK    4  A    between atoms: S_12  and  C_13 
REMARK    5  A    between atoms: C_13  and  C_14 
REMARK       I    between atoms: C_14  and  N_15 
REMARK    6  A    between atoms: N_15  and  C_16 
REMARK    7  A    between atoms: C_17  and  C_18 
REMARK       I    between atoms: C_18  and  N_19 
REMARK    8  A    between atoms: N_19  and  C_20 
ROOT
HETATM    1  C   UNL     1       7.106  24.486  52.848  1.00  0.00     0.231 C 
HETATM    2  N   UNL     1       8.276  23.855  53.218  1.00  0.00    -0.326 N 
HETATM    3  O   UNL     1       5.985  24.039  53.105  1.00  0.00    -0.272 OA
HETATM    4  H   UNL     1       9.090  24.461  53.285  1.00  0.00     0.169 HD
ENDROOT
BRANCH   1   5
HETATM    5  C   UNL     1       7.265  25.747  52.005  1.00  0.00     0.185 C 
BRANCH   5   6
HETATM    6  S   UNL     1       5.721  26.683  51.737  1.00  0.00    -0.081 SA
BRANCH   6   7
HETATM    7  C   UNL     1       5.774  27.746  53.084  1.00  0.00     0.185 A 
HETATM    8  N   UNL     1       4.794  28.622  53.413  1.00  0.00    -0.253 N 
HETATM    9  N   UNL     1       5.131  29.321  54.517  1.00  0.00    -0.152 NA
HETATM   10  H   UNL     1       3.910  28.799  52.950  1.00  0.00     0.191 HD
HETATM   11  C   UNL     1       6.341  28.810  54.815  1.00  0.00     0.182 A 
HETATM   12  N   UNL     1       6.743  27.812  53.954  1.00  0.00    -0.201 NA
BRANCH  11  13
HETATM   13  C   UNL     1       7.190  29.223  55.927  1.00  0.00     0.014 A 
HETATM   14  C   UNL     1       8.584  29.195  55.835  1.00  0.00     0.018 A 
HETATM   15  C   UNL     1       9.369  29.610  56.918  1.00  0.00     0.037 A 
HETATM   16  C   UNL     1       8.779  30.059  58.103  1.00  0.00     0.068 A 
HETATM   17  C   UNL     1       7.390  30.075  58.206  1.00  0.00     0.037 A 
HETATM   18  C   UNL     1       6.604  29.660  57.126  1.00  0.00     0.018 A 
BRANCH  16  19
HETATM   19  O   UNL     1       9.658  30.446  59.076  1.00  0.00    -0.356 OA
HETATM   20  C   UNL     1       9.105  30.725  60.358  1.00  0.00     0.210 C 
ENDBRANCH  16  19
ENDBRANCH  11  13
ENDBRANCH   6   7
ENDBRANCH   5   6
ENDBRANCH   1   5
BRANCH   2  21
HETATM   21  C   UNL     1       8.323  22.658  53.957  1.00  0.00     0.050 A 
HETATM   22  C   UNL     1       8.255  22.597  55.359  1.00  0.00     0.058 A 
HETATM   23  C   UNL     1       8.239  21.350  56.005  1.00  0.00     0.019 A 
HETATM   24  C   UNL     1       8.298  20.170  55.265  1.00  0.00     0.001 A 
HETATM   25  C   UNL     1       8.330  20.228  53.874  1.00  0.00     0.002 A 
HETATM   26  C   UNL     1       8.321  21.465  53.223  1.00  0.00     0.030 A 
BRANCH  22  27
HETATM   27  C   UNL     1       7.920  23.760  56.210  1.00  0.00     0.254 C 
HETATM   28  N   UNL     1       6.606  24.164  56.202  1.00  0.00    -0.352 N 
HETATM   29  H   UNL     1       5.930  23.580  55.705  1.00  0.00     0.163 HD
HETATM   30  O   UNL     1       8.821  24.317  56.833  1.00  0.00    -0.268 OA
BRANCH  28  31
HETATM   31  C   UNL     1       6.124  25.243  57.002  1.00  0.00     0.084 A 
HETATM   32  C   UNL     1       5.081  26.180  56.462  1.00  0.00     0.027 A 
HETATM   33  C   UNL     1       4.726  25.217  57.558  1.00  0.00     0.027 A 
ENDBRANCH  28  31
ENDBRANCH  22  27
ENDBRANCH   2  21
TORSDOF 8
ENDMDL
MODEL 6
REMARK VINA RESULT:      -8.8      2.640     10.324
REMARK  8 active torsions:
REMARK  status: ('A' for Active; 'I' for Inactive)
REMARK    1  A    between atoms: O_2  and  C_3 
REMARK    2  A    between atoms: C_6  and  C_7 
REMARK    3  A    between atoms: C_11  and  S_12 
REMARK    4  A    between atoms: S_12  and  C_13 
REMARK    5  A    between atoms: C_13  and  C_14 
REMARK       I    between atoms: C_14  and  N_15 
REMARK    6  A    between atoms: N_15  and  C_16 
REMARK    7  A    between atoms: C_17  and  C_18 
REMARK       I    between atoms: C_18  and  N_19 
REMARK    8  A    between atoms: N_19  and  C_20 
ROOT
HETATM    1  C   UNL     1       8.179  31.422  60.745  1.00  0.00     0.231 C 
HETATM    2  N   UNL     1       7.393  31.222  61.861  1.00  0.00    -0.326 N 
HETATM    3  O   UNL     1       8.563  32.536  60.379  1.00  0.00    -0.272 OA
HETATM    4  H   UNL     1       7.446  30.290  62.264  1.00  0.00     0.169 HD
ENDROOT
BRANCH   1   5
HETATM    5  C   UNL     1       8.486  30.182  59.913  1.00  0.00     0.185 C 
BRANCH   5   6
HETATM    6  S   UNL     1       9.157  30.528  58.250  1.00  0.00    -0.081 SA
BRANCH   6   7
HETATM    7  C   UNL     1       8.402  29.273  57.354  1.00  0.00     0.185 A 
HETATM    8  N   UNL     1       7.420  29.463  56.439  1.00  0.00    -0.253 N 
HETATM    9  N   UNL     1       7.028  28.286  55.910  1.00  0.00    -0.152 NA
HETATM   10  H   UNL     1       6.980  30.326  56.141  1.00  0.00     0.191 HD
HETATM   11  C   UNL     1       7.825  27.410  56.550  1.00  0.00     0.182 A 
HETATM   12  N   UNL     1       8.704  28.007  57.428  1.00  0.00    -0.201 NA
BRANCH  11  13
HETATM   13  C   UNL     1       7.815  25.962  56.374  1.00  0.00     0.014 A 
HETATM   14  C   UNL     1       7.138  25.357  55.311  1.00  0.00     0.018 A 
HETATM   15  C   UNL     1       7.159  23.965  55.163  1.00  0.00     0.037 A 
HETATM   16  C   UNL     1       7.855  23.157  56.068  1.00  0.00     0.068 A 
HETATM   17  C   UNL     1       8.518  23.752  57.138  1.00  0.00     0.037 A 
HETATM   18  C   UNL     1       8.498  25.143  57.288  1.00  0.00     0.018 A 
BRANCH  16  19
HETATM   19  O   UNL     1       7.805  21.817  55.803  1.00  0.00    -0.356 OA
HETATM   20  C   UNL     1       8.443  20.959  56.743  1.00  0.00     0.210 C 
ENDBRANCH  16  19
ENDBRANCH  11  13
ENDBRANCH   6   7
ENDBRANCH   5   6
ENDBRANCH   1   5
BRANCH   2  21
HETATM   21  C   UNL     1       6.972  32.254  62.721  1.00  0.00     0.050 A 
HETATM   22  C   UNL     1       5.707  32.862  62.659  1.00  0.00     0.058 A 
HETATM   23  C   UNL     1       5.351  33.835  63.607  1.00  0.00     0.019 A 
HETATM   24  C   UNL     1       6.248  34.210  64.606  1.00  0.00     0.001 A 
HETATM   25  C   UNL     1       7.490  33.584  64.690  1.00  0.00     0.002 A 
HETATM   26  C   UNL     1       7.841  32.596  63.766  1.00  0.00     0.030 A 
BRANCH  22  27
HETATM   27  C   UNL     1       4.598  32.352  61.822  1.00  0.00     0.254 C 
HETATM   28  N   UNL     1       4.624  32.708  60.494  1.00  0.00    -0.352 N 
HETATM   29  H   UNL     1       5.449  33.200  60.146  1.00  0.00     0.163 HD
HETATM   30  O   UNL     1       3.711  31.689  62.352  1.00  0.00    -0.268 OA
BRANCH  28  31
HETATM   31  C   UNL     1       3.646  32.259  59.555  1.00  0.00     0.084 A 
HETATM   32  C   UNL     1       3.728  32.684  58.116  1.00  0.00     0.027 A 
HETATM   33  C   UNL     1       4.012  31.259  58.492  1.00  0.00     0.027 A 
ENDBRANCH  28  31
ENDBRANCH  22  27
ENDBRANCH   2  21
TORSDOF 8
ENDMDL
MODEL 7
REMARK VINA RESULT:      -8.7      1.735      3.837
REMARK  8 active torsions:
REMARK  status: ('A' for Active; 'I' for Inactive)
REMARK    1  A    between atoms: O_2  and  C_3 
REMARK    2  A    between atoms: C_6  and  C_7 
REMARK    3  A    between atoms: C_11  and  S_12 
REMARK    4  A    between atoms: S_12  and  C_13 
REMARK    5  A    between atoms: C_13  and  C_14 
REMARK       I    between atoms: C_14  and  N_15 
REMARK    6  A    between atoms: N_15  and  C_16 
REMARK    7  A    between atoms: C_17  and  C_18 
REMARK       I    between atoms: C_18  and  N_19 
REMARK    8  A    between atoms: N_19  and  C_20 
ROOT
HETATM    1  C   UNL     1       7.475  27.663  56.128  1.00  0.00     0.231 C 
HETATM    2  N   UNL     1       7.653  27.278  54.816  1.00  0.00    -0.326 N 
HETATM    3  O   UNL     1       6.906  26.960  56.968  1.00  0.00    -0.272 OA
HETATM    4  H   UNL     1       8.420  27.739  54.332  1.00  0.00     0.169 HD
ENDROOT
BRANCH   1   5
HETATM    5  C   UNL     1       7.943  29.071  56.482  1.00  0.00     0.185 C 
BRANCH   5   6
HETATM    6  S   UNL     1       9.625  29.159  57.185  1.00  0.00    -0.081 SA
BRANCH   6   7
HETATM    7  C   UNL     1       9.414  30.439  58.310  1.00  0.00     0.185 A 
HETATM    8  N   UNL     1      10.126  31.592  58.307  1.00  0.00    -0.253 N 
HETATM    9  N   UNL     1       9.734  32.396  59.318  1.00  0.00    -0.152 NA
HETATM   10  H   UNL     1      10.867  31.887  57.683  1.00  0.00     0.191 HD
HETATM   11  C   UNL     1       8.765  31.664  59.900  1.00  0.00     0.182 A 
HETATM   12  N   UNL     1       8.533  30.461  59.271  1.00  0.00    -0.201 NA
BRANCH  11  13
HETATM   13  C   UNL     1       7.995  32.052  61.076  1.00  0.00     0.014 A 
HETATM   14  C   UNL     1       6.662  32.462  60.977  1.00  0.00     0.018 A 
HETATM   15  C   UNL     1       5.947  32.816  62.129  1.00  0.00     0.037 A 
HETATM   16  C   UNL     1       6.546  32.765  63.390  1.00  0.00     0.068 A 
HETATM   17  C   UNL     1       7.879  32.374  63.494  1.00  0.00     0.037 A 
HETATM   18  C   UNL     1       8.595  32.020  62.345  1.00  0.00     0.018 A 
BRANCH  16  19
HETATM   19  O   UNL     1       5.736  33.125  64.431  1.00  0.00    -0.356 OA
HETATM   20  C   UNL     1       6.365  33.765  65.536  1.00  0.00     0.210 C 
ENDBRANCH  16  19
ENDBRANCH  11  13
ENDBRANCH   6   7
ENDBRANCH   5   6
ENDBRANCH   1   5
BRANCH   2  21
HETATM   21  C   UNL     1       7.243  26.035  54.299  1.00  0.00     0.050 A 
HETATM   22  C   UNL     1       6.169  25.870  53.407  1.00  0.00     0.058 A 
HETATM   23  C   UNL     1       5.879  24.597  52.889  1.00  0.00     0.019 A 
HETATM   24  C   UNL     1       6.645  23.493  53.259  1.00  0.00     0.001 A 
HETATM   25  C   UNL     1       7.730  23.660  54.115  1.00  0.00     0.002 A 
HETATM   26  C   UNL     1       8.040  24.927  54.615  1.00  0.00     0.030 A 
BRANCH  22  27
HETATM   27  C   UNL     1       5.476  27.000  52.749  1.00  0.00     0.254 C 
HETATM   28  N   UNL     1       5.661  27.122  51.392  1.00  0.00    -0.352 N 
HETATM   29  H   UNL     1       6.165  26.376  50.909  1.00  0.00     0.163 HD
HETATM   30  O   UNL     1       4.821  27.776  53.439  1.00  0.00    -0.268 OA
BRANCH  28  31
HETATM   31  C   UNL     1       5.025  28.136  50.613  1.00  0.00     0.084 A 
HETATM   32  C   UNL     1       5.268  28.217  49.133  1.00  0.00     0.027 A 
HETATM   33  C   UNL     1       3.927  27.780  49.648  1.00  0.00     0.027 A 
ENDBRANCH  28  31
ENDBRANCH  22  27
ENDBRANCH   2  21
TORSDOF 8
ENDMDL
MODEL 8
REMARK VINA RESULT:      -8.6      2.736     11.040
REMARK  8 active torsions:
REMARK  status: ('A' for Active; 'I' for Inactive)
REMARK    1  A    between atoms: O_2  and  C_3 
REMARK    2  A    between atoms: C_6  and  C_7 
REMARK    3  A    between atoms: C_11  and  S_12 
REMARK    4  A    between atoms: S_12  and  C_13 
REMARK    5  A    between atoms: C_13  and  C_14 
REMARK       I    between atoms: C_14  and  N_15 
REMARK    6  A    between atoms: N_15  and  C_16 
REMARK    7  A    between atoms: C_17  and  C_18 
REMARK       I    between atoms: C_18  and  N_19 
REMARK    8  A    between atoms: N_19  and  C_20 
ROOT
HETATM    1  C   UNL     1       7.356  32.201  61.651  1.00  0.00     0.231 C 
HETATM    2  N   UNL     1       7.043  33.434  62.185  1.00  0.00    -0.326 N 
HETATM    3  O   UNL     1       7.213  31.141  62.268  1.00  0.00    -0.272 OA
HETATM    4  H   UNL     1       6.853  34.163  61.501  1.00  0.00     0.169 HD
ENDROOT
BRANCH   1   5
HETATM    5  C   UNL     1       7.988  32.214  60.264  1.00  0.00     0.185 C 
BRANCH   5   6
HETATM    6  S   UNL     1       9.087  30.798  59.914  1.00  0.00    -0.081 SA
BRANCH   6   7
HETATM    7  C   UNL     1       8.072  29.877  58.880  1.00  0.00     0.185 A 
HETATM    8  N   UNL     1       6.846  30.269  58.456  1.00  0.00    -0.253 N 
HETATM    9  N   UNL     1       6.294  29.328  57.661  1.00  0.00    -0.152 NA
HETATM   10  H   UNL     1       6.337  31.120  58.664  1.00  0.00     0.191 HD
HETATM   11  C   UNL     1       7.251  28.382  57.638  1.00  0.00     0.182 A 
HETATM   12  N   UNL     1       8.373  28.718  58.364  1.00  0.00    -0.201 NA
BRANCH  11  13
HETATM   13  C   UNL     1       7.175  27.109  56.929  1.00  0.00     0.014 A 
HETATM   14  C   UNL     1       7.700  25.934  57.473  1.00  0.00     0.018 A 
HETATM   15  C   UNL     1       7.599  24.726  56.771  1.00  0.00     0.037 A 
HETATM   16  C   UNL     1       6.973  24.672  55.523  1.00  0.00     0.068 A 
HETATM   17  C   UNL     1       6.462  25.843  54.967  1.00  0.00     0.037 A 
HETATM   18  C   UNL     1       6.562  27.050  55.667  1.00  0.00     0.018 A 
BRANCH  16  19
HETATM   19  O   UNL     1       6.932  23.431  54.950  1.00  0.00    -0.356 OA
HETATM   20  C   UNL     1       7.661  22.401  55.609  1.00  0.00     0.210 C 
ENDBRANCH  16  19
ENDBRANCH  11  13
ENDBRANCH   6   7
ENDBRANCH   5   6
ENDBRANCH   1   5
BRANCH   2  21
HETATM   21  C   UNL     1       6.496  33.620  63.468  1.00  0.00     0.050 A 
HETATM   22  C   UNL     1       5.119  33.598  63.746  1.00  0.00     0.058 A 
HETATM   23  C   UNL     1       4.670  33.723  65.071  1.00  0.00     0.019 A 
HETATM   24  C   UNL     1       5.582  33.876  66.114  1.00  0.00     0.001 A 
HETATM   25  C   UNL     1       6.948  33.863  65.845  1.00  0.00     0.002 A 
HETATM   26  C   UNL     1       7.403  33.714  64.531  1.00  0.00     0.030 A 
BRANCH  22  27
HETATM   27  C   UNL     1       4.096  33.174  62.763  1.00  0.00     0.254 C 
HETATM   28  N   UNL     1       3.457  34.179  62.077  1.00  0.00    -0.352 N 
HETATM   29  H   UNL     1       3.796  35.135  62.201  1.00  0.00     0.163 HD
HETATM   30  O   UNL     1       3.848  31.977  62.645  1.00  0.00    -0.268 OA
BRANCH  28  31
HETATM   31  C   UNL     1       2.478  33.925  61.069  1.00  0.00     0.084 A 
HETATM   32  C   UNL     1       1.289  34.832  60.922  1.00  0.00     0.027 A 
HETATM   33  C   UNL     1       2.362  34.829  59.872  1.00  0.00     0.027 A 
ENDBRANCH  28  31
ENDBRANCH  22  27
ENDBRANCH   2  21
TORSDOF 8
ENDMDL
MODEL 9
REMARK VINA RESULT:      -8.3      2.773      9.303
REMARK  8 active torsions:
REMARK  status: ('A' for Active; 'I' for Inactive)
REMARK    1  A    between atoms: O_2  and  C_3 
REMARK    2  A    between atoms: C_6  and  C_7 
REMARK    3  A    between atoms: C_11  and  S_12 
REMARK    4  A    between atoms: S_12  and  C_13 
REMARK    5  A    between atoms: C_13  and  C_14 
REMARK       I    between atoms: C_14  and  N_15 
REMARK    6  A    between atoms: N_15  and  C_16 
REMARK    7  A    between atoms: C_17  and  C_18 
REMARK       I    between atoms: C_18  and  N_19 
REMARK    8  A    between atoms: N_19  and  C_20 
ROOT
HETATM    1  C   UNL     1       5.869  30.855  57.797  1.00  0.00     0.231 C 
HETATM    2  N   UNL     1       6.790  29.834  57.913  1.00  0.00    -0.326 N 
HETATM    3  O   UNL     1       6.180  32.019  57.532  1.00  0.00    -0.272 OA
HETATM    4  H   UNL     1       6.416  28.899  57.769  1.00  0.00     0.169 HD
ENDROOT
BRANCH   1   5
HETATM    5  C   UNL     1       4.422  30.489  58.107  1.00  0.00     0.185 C 
BRANCH   5   6
HETATM    6  S   UNL     1       3.373  30.218  56.638  1.00  0.00    -0.081 SA
BRANCH   6   7
HETATM    7  C   UNL     1       4.450  29.303  55.663  1.00  0.00     0.185 A 
HETATM    8  N   UNL     1       5.050  29.764  54.539  1.00  0.00    -0.253 N 
HETATM    9  N   UNL     1       5.832  28.809  53.992  1.00  0.00    -0.152 NA
HETATM   10  H   UNL     1       4.972  30.672  54.096  1.00  0.00     0.191 HD
HETATM   11  C   UNL     1       5.664  27.783  54.848  1.00  0.00     0.182 A 
HETATM   12  N   UNL     1       4.834  28.081  55.906  1.00  0.00    -0.201 NA
BRANCH  11  13
HETATM   13  C   UNL     1       6.277  26.465  54.728  1.00  0.00     0.014 A 
HETATM   14  C   UNL     1       7.130  26.146  53.668  1.00  0.00     0.018 A 
HETATM   15  C   UNL     1       7.712  24.875  53.590  1.00  0.00     0.037 A 
HETATM   16  C   UNL     1       7.456  23.907  54.565  1.00  0.00     0.068 A 
HETATM   17  C   UNL     1       6.594  24.213  55.616  1.00  0.00     0.037 A 
HETATM   18  C   UNL     1       6.011  25.482  55.695  1.00  0.00     0.018 A 
BRANCH  16  19
HETATM   19  O   UNL     1       8.095  22.713  54.377  1.00  0.00    -0.356 OA
HETATM   20  C   UNL     1       9.240  22.470  55.188  1.00  0.00     0.210 C 
ENDBRANCH  16  19
ENDBRANCH  11  13
ENDBRANCH   6   7
ENDBRANCH   5   6
ENDBRANCH   1   5
BRANCH   2  21
HETATM   21  C   UNL     1       8.173  29.995  57.709  1.00  0.00     0.050 A 
HETATM   22  C   UNL     1       9.041  30.589  58.641  1.00  0.00     0.058 A 
HETATM   23  C   UNL     1      10.419  30.642  58.378  1.00  0.00     0.019 A 
HETATM   24  C   UNL     1      10.934  30.116  57.195  1.00  0.00     0.001 A 
HETATM   25  C   UNL     1      10.080  29.495  56.286  1.00  0.00     0.002 A 
HETATM   26  C   UNL     1       8.710  29.417  56.552  1.00  0.00     0.030 A 
BRANCH  22  27
HETATM   27  C   UNL     1       8.642  30.927  60.026  1.00  0.00     0.254 C 
HETATM   28  N   UNL     1       8.018  32.140  60.202  1.00  0.00    -0.352 N 
HETATM   29  H   UNL     1       7.771  32.676  59.368  1.00  0.00     0.163 HD
HETATM   30  O   UNL     1       8.920  30.145  60.930  1.00  0.00    -0.268 OA
BRANCH  28  31
HETATM   31  C   UNL     1       7.539  32.585  61.471  1.00  0.00     0.084 A 
HETATM   32  C   UNL     1       6.340  33.487  61.554  1.00  0.00     0.027 A 
HETATM   33  C   UNL     1       6.240  32.064  62.022  1.00  0.00     0.027 A 
ENDBRANCH  28  31
ENDBRANCH  22  27
ENDBRANCH   2  21
TORSDOF 8
ENDMDL
MODEL 10
REMARK VINA RESULT:      -8.3      2.093      3.028
REMARK  8 active torsions:
REMARK  status: ('A' for Active; 'I' for Inactive)
REMARK    1  A    between atoms: O_2  and  C_3 
REMARK    2  A    between atoms: C_6  and  C_7 
REMARK    3  A    between atoms: C_11  and  S_12 
REMARK    4  A    between atoms: S_12  and  C_13 
REMARK    5  A    between atoms: C_13  and  C_14 
REMARK       I    between atoms: C_14  and  N_15 
REMARK    6  A    between atoms: N_15  and  C_16 
REMARK    7  A    between atoms: C_17  and  C_18 
REMARK       I    between atoms: C_18  and  N_19 
REMARK    8  A    between atoms: N_19  and  C_20 
ROOT
HETATM    1  C   UNL     1       6.675  29.596  56.694  1.00  0.00     0.231 C 
HETATM    2  N   UNL     1       5.370  29.353  56.320  1.00  0.00    -0.326 N 
HETATM    3  O   UNL     1       7.638  29.426  55.941  1.00  0.00    -0.272 OA
HETATM    4  H   UNL     1       4.667  29.855  56.857  1.00  0.00     0.169 HD
ENDROOT
BRANCH   1   5
HETATM    5  C   UNL     1       6.888  30.008  58.147  1.00  0.00     0.185 C 
BRANCH   5   6
HETATM    6  S   UNL     1       8.618  30.400  58.581  1.00  0.00    -0.081 SA
BRANCH   6   7
HETATM    7  C   UNL     1       8.438  30.747  60.253  1.00  0.00     0.185 A 
HETATM    8  N   UNL     1       9.150  30.156  61.243  1.00  0.00    -0.253 N 
HETATM    9  N   UNL     1       8.776  30.634  62.448  1.00  0.00    -0.152 NA
HETATM   10  H   UNL     1       9.868  29.445  61.179  1.00  0.00     0.191 HD
HETATM   11  C   UNL     1       7.826  31.528  62.115  1.00  0.00     0.182 A 
HETATM   12  N   UNL     1       7.624  31.633  60.756  1.00  0.00    -0.201 NA
BRANCH  11  13
HETATM   13  C   UNL     1       7.056  32.341  63.049  1.00  0.00     0.014 A 
HETATM   14  C   UNL     1       5.695  32.592  62.853  1.00  0.00     0.018 A 
HETATM   15  C   UNL     1       4.982  33.367  63.776  1.00  0.00     0.037 A 
HETATM   16  C   UNL     1       5.611  33.900  64.905  1.00  0.00     0.068 A 
HETATM   17  C   UNL     1       6.971  33.667  65.097  1.00  0.00     0.037 A 
HETATM   18  C   UNL     1       7.686  32.893  64.176  1.00  0.00     0.018 A 
BRANCH  16  19
HETATM   19  O   UNL     1       4.800  34.627  65.731  1.00  0.00    -0.356 OA
HETATM   20  C   UNL     1       4.805  34.265  67.108  1.00  0.00     0.210 C 
ENDBRANCH  16  19
ENDBRANCH  11  13
ENDBRANCH   6   7
ENDBRANCH   5   6
ENDBRANCH   1   5
BRANCH   2  21
HETATM   21  C   UNL     1       4.988  28.921  55.036  1.00  0.00     0.050 A 
HETATM   22  C   UNL     1       5.139  27.604  54.572  1.00  0.00     0.058 A 
HETATM   23  C   UNL     1       4.662  27.251  53.299  1.00  0.00     0.019 A 
HETATM   24  C   UNL     1       4.045  28.202  52.487  1.00  0.00     0.001 A 
HETATM   25  C   UNL     1       3.863  29.500  52.959  1.00  0.00     0.002 A 
HETATM   26  C   UNL     1       4.313  29.851  54.235  1.00  0.00     0.030 A 
BRANCH  22  27
HETATM   27  C   UNL     1       5.527  26.472  55.444  1.00  0.00     0.254 C 
HETATM   28  N   UNL     1       6.327  25.511  54.875  1.00  0.00    -0.352 N 
HETATM   29  H   UNL     1       6.693  25.686  53.937  1.00  0.00     0.163 HD
HETATM   30  O   UNL     1       5.088  26.431  56.590  1.00  0.00    -0.268 OA
BRANCH  28  31
HETATM   31  C   UNL     1       6.816  24.383  55.602  1.00  0.00     0.084 A 
HETATM   32  C   UNL     1       7.350  23.184  54.871  1.00  0.00     0.027 A 
HETATM   33  C   UNL     1       8.288  24.074  55.633  1.00  0.00     0.027 A 
ENDBRANCH  28  31
ENDBRANCH  22  27
ENDBRANCH   2  21
TORSDOF 8
ENDMDL
