MODEL 1
REMARK VINA RESULT:      -9.4      0.000      0.000
REMARK  7 active torsions:
REMARK  status: ('A' for Active; 'I' for Inactive)
REMARK    1  A    between atoms: C_2  and  N_3 
REMARK       I    between atoms: N_3  and  C_4 
REMARK    2  A    between atoms: C_4  and  C_5 
REMARK    3  A    between atoms: C_8  and  C_9 
REMARK       I    between atoms: C_9  and  N_10 
REMARK    4  A    between atoms: N_13  and  C_14 
REMARK    5  A    between atoms: C_15  and  O_16 
REMARK    6  A    between atoms: N_26  and  C_27 
REMARK    7  A    between atoms: C_27  and  C_28 
ROOT
HETATM    1  C   UNL     1       5.982  26.701  53.892  1.00  0.00     0.098 A 
HETATM    2  C   UNL     1       6.785  27.680  54.680  1.00  0.00     0.206 A 
HETATM    3  O   UNL     1       6.792  28.874  54.383  1.00  0.00    -0.286 OA
HETATM    4  C   UNL     1       7.595  27.156  55.816  1.00  0.00     0.098 A 
HETATM    5  C   UNL     1       7.623  25.826  55.999  1.00  0.00     0.111 A 
HETATM    6  N   UNL     1       6.967  24.900  55.198  1.00  0.00    -0.364 N 
HETATM    7  C   UNL     1       6.143  25.399  54.191  1.00  0.00     0.111 A 
ENDROOT
BRANCH   4   8
HETATM    8  C   UNL     1       8.118  28.055  56.867  1.00  0.00     0.259 C 
HETATM    9  N   UNL     1       7.248  28.673  57.743  1.00  0.00    -0.345 N 
HETATM   10  C   UNL     1       7.776  29.716  58.629  1.00  0.00     0.146 C 
HETATM   11  C   UNL     1       5.777  28.614  57.756  1.00  0.00     0.146 C 
HETATM   12  C   UNL     1       7.230  31.092  58.212  1.00  0.00     0.143 C 
HETATM   13  N   UNL     1       5.741  31.066  58.211  1.00  0.00    -0.376 N 
HETATM   14  C   UNL     1       5.170  29.987  57.373  1.00  0.00     0.143 C 
HETATM   15  O   UNL     1       9.331  28.264  56.889  1.00  0.00    -0.267 OA
BRANCH  13  16
HETATM   16  C   UNL     1       5.174  32.357  58.138  1.00  0.00     0.064 A 
HETATM   17  C   UNL     1       4.778  33.047  59.316  1.00  0.00     0.094 A 
HETATM   18  C   UNL     1       4.235  34.338  59.239  1.00  0.00     0.039 A 
HETATM   19  C   UNL     1       4.082  34.968  58.005  1.00  0.00     0.003 A 
HETATM   20  C   UNL     1       4.452  34.307  56.841  1.00  0.00     0.002 A 
HETATM   21  C   UNL     1       4.987  33.017  56.908  1.00  0.00     0.032 A 
BRANCH  17  22
HETATM   22  O   UNL     1       4.898  32.358  60.503  1.00  0.00    -0.354 OA
HETATM   23  C   UNL     1       5.873  32.821  61.427  1.00  0.00     0.210 C 
ENDBRANCH  17  22
ENDBRANCH  13  16
ENDBRANCH   4   8
BRANCH   1  24
HETATM   24  C   UNL     1       4.995  27.068  52.834  1.00  0.00     0.257 C 
HETATM   25  N   UNL     1       5.458  26.986  51.546  1.00  0.00    -0.353 N 
HETATM   26  H   UNL     1       6.417  26.662  51.408  1.00  0.00     0.163 HD
HETATM   27  O   UNL     1       3.862  27.443  53.126  1.00  0.00    -0.267 OA
BRANCH  25  28
HETATM   28  C   UNL     1       4.731  27.432  50.364  1.00  0.00     0.076 C 
HETATM   29  C   UNL     1       4.610  26.325  49.319  1.00  0.00     0.032 C 
HETATM   30  C   UNL     1       5.310  28.711  49.763  1.00  0.00     0.032 C 
ENDBRANCH  25  28
ENDBRANCH   1  24
BRANCH   6  31
HETATM   31  C   UNL     1       7.066  23.441  55.432  1.00  0.00     0.132 C 
BRANCH  31  32
HETATM   32  C   UNL     1       8.469  22.860  55.141  1.00  0.00     0.004 C 
HETATM   33  C   UNL     1       8.717  21.478  55.769  1.00  0.00     0.006 C 
HETATM   34  C   UNL     1       7.942  20.362  55.077  1.00  0.00     0.000 C 
HETATM   35  C   UNL     1       8.243  20.325  53.583  1.00  0.00     0.000 C 
HETATM   36  C   UNL     1       7.986  21.674  52.919  1.00  0.00     0.000 C 
HETATM   37  C   UNL     1       8.732  22.807  53.624  1.00  0.00     0.006 C 
ENDBRANCH  31  32
ENDBRANCH   6  31
TORSDOF 7
ENDMDL
MODEL 2
REMARK VINA RESULT:      -9.1      2.278      8.953
REMARK  7 active torsions:
REMARK  status: ('A' for Active; 'I' for Inactive)
REMARK    1  A    between atoms: C_2  and  N_3 
REMARK       I    between atoms: N_3  and  C_4 
REMARK    2  A    between atoms: C_4  and  C_5 
REMARK    3  A    between atoms: C_8  and  C_9 
REMARK       I    between atoms: C_9  and  N_10 
REMARK    4  A    between atoms: N_13  and  C_14 
REMARK    5  A    between atoms: C_15  and  O_16 
REMARK    6  A    between atoms: N_26  and  C_27 
REMARK    7  A    between atoms: C_27  and  C_28 
ROOT
HETATM    1  C   UNL     1       4.988  30.588  56.638  1.00  0.00     0.098 A 
HETATM    2  C   UNL     1       5.277  29.571  55.586  1.00  0.00     0.206 A 
HETATM    3  O   UNL     1       4.456  29.327  54.702  1.00  0.00    -0.286 OA
HETATM    4  C   UNL     1       6.578  28.848  55.660  1.00  0.00     0.098 A 
HETATM    5  C   UNL     1       7.364  29.089  56.721  1.00  0.00     0.111 A 
HETATM    6  N   UNL     1       7.049  29.952  57.763  1.00  0.00    -0.364 N 
HETATM    7  C   UNL     1       5.873  30.690  57.646  1.00  0.00     0.111 A 
ENDROOT
BRANCH   4   8
HETATM    8  C   UNL     1       7.117  28.112  54.496  1.00  0.00     0.259 C 
HETATM    9  N   UNL     1       6.622  26.862  54.181  1.00  0.00    -0.345 N 
HETATM   10  C   UNL     1       7.320  26.075  53.158  1.00  0.00     0.146 C 
HETATM   11  C   UNL     1       5.611  26.075  54.906  1.00  0.00     0.146 C 
HETATM   12  C   UNL     1       8.018  24.866  53.806  1.00  0.00     0.143 C 
HETATM   13  N   UNL     1       7.022  24.049  54.554  1.00  0.00    -0.376 N 
HETATM   14  C   UNL     1       6.254  24.823  55.554  1.00  0.00     0.143 C 
HETATM   15  O   UNL     1       8.043  28.629  53.871  1.00  0.00    -0.267 OA
BRANCH  13  16
HETATM   16  C   UNL     1       7.522  22.777  54.913  1.00  0.00     0.064 A 
HETATM   17  C   UNL     1       7.935  22.507  56.246  1.00  0.00     0.094 A 
HETATM   18  C   UNL     1       8.411  21.235  56.601  1.00  0.00     0.039 A 
HETATM   19  C   UNL     1       8.481  20.216  55.654  1.00  0.00     0.003 A 
HETATM   20  C   UNL     1       8.093  20.464  54.343  1.00  0.00     0.002 A 
HETATM   21  C   UNL     1       7.625  21.730  53.978  1.00  0.00     0.032 A 
BRANCH  17  22
HETATM   22  O   UNL     1       7.899  23.564  57.129  1.00  0.00    -0.354 OA
HETATM   23  C   UNL     1       9.128  24.218  57.410  1.00  0.00     0.210 C 
ENDBRANCH  17  22
ENDBRANCH  13  16
ENDBRANCH   4   8
BRANCH   1  24
HETATM   24  C   UNL     1       3.817  31.515  56.625  1.00  0.00     0.257 C 
HETATM   25  N   UNL     1       3.660  32.244  55.474  1.00  0.00    -0.353 N 
HETATM   26  H   UNL     1       4.327  32.083  54.717  1.00  0.00     0.163 HD
HETATM   27  O   UNL     1       3.080  31.620  57.602  1.00  0.00    -0.267 OA
BRANCH  25  28
HETATM   28  C   UNL     1       2.686  33.311  55.285  1.00  0.00     0.076 C 
HETATM   29  C   UNL     1       1.352  32.779  54.767  1.00  0.00     0.032 C 
HETATM   30  C   UNL     1       3.216  34.445  54.411  1.00  0.00     0.032 C 
ENDBRANCH  25  28
ENDBRANCH   1  24
BRANCH   6  31
HETATM   31  C   UNL     1       7.945  30.150  58.925  1.00  0.00     0.132 C 
BRANCH  31  32
HETATM   32  C   UNL     1       8.204  31.637  59.264  1.00  0.00     0.004 C 
HETATM   33  C   UNL     1       7.128  32.272  60.159  1.00  0.00     0.006 C 
HETATM   34  C   UNL     1       7.183  31.775  61.599  1.00  0.00     0.000 C 
HETATM   35  C   UNL     1       8.566  31.987  62.205  1.00  0.00     0.000 C 
HETATM   36  C   UNL     1       9.660  31.349  61.355  1.00  0.00     0.000 C 
HETATM   37  C   UNL     1       9.596  31.815  59.901  1.00  0.00     0.006 C 
ENDBRANCH  31  32
ENDBRANCH   6  31
TORSDOF 7
ENDMDL
MODEL 3
REMARK VINA RESULT:      -9.1      3.148      8.387
REMARK  7 active torsions:
REMARK  status: ('A' for Active; 'I' for Inactive)
REMARK    1  A    between atoms: C_2  and  N_3 
REMARK       I    between atoms: N_3  and  C_4 
REMARK    2  A    between atoms: C_4  and  C_5 
REMARK    3  A    between atoms: C_8  and  C_9 
REMARK       I    between atoms: C_9  and  N_10 
REMARK    4  A    between atoms: N_13  and  C_14 
REMARK    5  A    between atoms: C_15  and  O_16 
REMARK    6  A    between atoms: N_26  and  C_27 
REMARK    7  A    between atoms: C_27  and  C_28 
ROOT
HETATM    1  C   UNL     1       6.788  25.605  54.534  1.00  0.00     0.098 A 
HETATM    2  C   UNL     1       5.765  25.967  53.512  1.00  0.00     0.206 A 
HETATM    3  O   UNL     1       5.178  25.096  52.871  1.00  0.00    -0.286 OA
HETATM    4  C   UNL     1       5.501  27.415  53.278  1.00  0.00     0.098 A 
HETATM    5  C   UNL     1       6.268  28.301  53.935  1.00  0.00     0.111 A 
HETATM    6  N   UNL     1       7.299  27.968  54.804  1.00  0.00    -0.364 N 
HETATM    7  C   UNL     1       7.484  26.616  55.084  1.00  0.00     0.111 A 
ENDROOT
BRANCH   4   8
HETATM    8  C   UNL     1       4.281  27.873  52.580  1.00  0.00     0.259 C 
HETATM    9  N   UNL     1       4.285  28.021  51.207  1.00  0.00    -0.345 N 
HETATM   10  C   UNL     1       3.135  28.676  50.574  1.00  0.00     0.146 C 
HETATM   11  C   UNL     1       5.410  27.833  50.277  1.00  0.00     0.146 C 
HETATM   12  C   UNL     1       3.546  30.053  50.024  1.00  0.00     0.143 C 
HETATM   13  N   UNL     1       4.687  29.899  49.080  1.00  0.00    -0.376 N 
HETATM   14  C   UNL     1       5.846  29.188  49.665  1.00  0.00     0.143 C 
HETATM   15  O   UNL     1       3.302  28.162  53.270  1.00  0.00    -0.267 OA
BRANCH  13  16
HETATM   16  C   UNL     1       4.918  31.061  48.312  1.00  0.00     0.064 A 
HETATM   17  C   UNL     1       4.344  31.205  47.019  1.00  0.00     0.094 A 
HETATM   18  C   UNL     1       4.559  32.372  46.269  1.00  0.00     0.039 A 
HETATM   19  C   UNL     1       5.334  33.410  46.783  1.00  0.00     0.003 A 
HETATM   20  C   UNL     1       5.912  33.284  48.040  1.00  0.00     0.002 A 
HETATM   21  C   UNL     1       5.709  32.122  48.791  1.00  0.00     0.032 A 
BRANCH  17  22
HETATM   22  O   UNL     1       3.635  30.127  46.535  1.00  0.00    -0.354 OA
HETATM   23  C   UNL     1       2.223  30.257  46.467  1.00  0.00     0.210 C 
ENDBRANCH  17  22
ENDBRANCH  13  16
ENDBRANCH   4   8
BRANCH   1  24
HETATM   24  C   UNL     1       7.059  24.216  55.010  1.00  0.00     0.257 C 
HETATM   25  N   UNL     1       7.695  23.401  54.108  1.00  0.00    -0.353 N 
HETATM   26  H   UNL     1       7.953  23.804  53.207  1.00  0.00     0.163 HD
HETATM   27  O   UNL     1       6.700  23.845  56.125  1.00  0.00    -0.267 OA
BRANCH  25  28
HETATM   28  C   UNL     1       7.930  21.974  54.290  1.00  0.00     0.076 C 
HETATM   29  C   UNL     1       9.216  21.705  55.069  1.00  0.00     0.032 C 
HETATM   30  C   UNL     1       7.897  21.200  52.975  1.00  0.00     0.032 C 
ENDBRANCH  25  28
ENDBRANCH   1  24
BRANCH   6  31
HETATM   31  C   UNL     1       8.133  28.993  55.472  1.00  0.00     0.132 C 
BRANCH  31  32
HETATM   32  C   UNL     1       8.799  28.498  56.777  1.00  0.00     0.004 C 
HETATM   33  C   UNL     1      10.220  29.042  57.000  1.00  0.00     0.006 C 
HETATM   34  C   UNL     1      10.240  30.521  57.369  1.00  0.00     0.000 C 
HETATM   35  C   UNL     1       9.371  30.797  58.591  1.00  0.00     0.000 C 
HETATM   36  C   UNL     1       7.945  30.292  58.398  1.00  0.00     0.000 C 
HETATM   37  C   UNL     1       7.913  28.818  57.996  1.00  0.00     0.006 C 
ENDBRANCH  31  32
ENDBRANCH   6  31
TORSDOF 7
ENDMDL
MODEL 4
REMARK VINA RESULT:      -8.9      2.591      7.224
REMARK  7 active torsions:
REMARK  status: ('A' for Active; 'I' for Inactive)
REMARK    1  A    between atoms: C_2  and  N_3 
REMARK       I    between atoms: N_3  and  C_4 
REMARK    2  A    between atoms: C_4  and  C_5 
REMARK    3  A    between atoms: C_8  and  C_9 
REMARK       I    between atoms: C_9  and  N_10 
REMARK    4  A    between atoms: N_13  and  C_14 
REMARK    5  A    between atoms: C_15  and  O_16 
REMARK    6  A    between atoms: N_26  and  C_27 
REMARK    7  A    between atoms: C_27  and  C_28 
ROOT
HETATM    1  C   UNL     1       7.782  28.471  57.343  1.00  0.00     0.098 A 
HETATM    2  C   UNL     1       6.383  28.822  56.965  1.00  0.00     0.206 A 
HETATM    3  O   UNL     1       5.867  29.868  57.358  1.00  0.00    -0.286 OA
HETATM    4  C   UNL     1       5.629  27.853  56.120  1.00  0.00     0.098 A 
HETATM    5  C   UNL     1       6.224  26.684  55.833  1.00  0.00     0.111 A 
HETATM    6  N   UNL     1       7.484  26.304  56.278  1.00  0.00    -0.364 N 
HETATM    7  C   UNL     1       8.218  27.247  56.993  1.00  0.00     0.111 A 
ENDROOT
BRANCH   4   8
HETATM    8  C   UNL     1       4.405  28.253  55.394  1.00  0.00     0.259 C 
HETATM    9  N   UNL     1       4.319  28.064  54.029  1.00  0.00    -0.345 N 
HETATM   10  C   UNL     1       3.186  28.663  53.313  1.00  0.00     0.146 C 
HETATM   11  C   UNL     1       5.349  27.540  53.118  1.00  0.00     0.146 C 
HETATM   12  C   UNL     1       3.675  29.815  52.419  1.00  0.00     0.143 C 
HETATM   13  N   UNL     1       4.724  29.319  51.485  1.00  0.00    -0.376 N 
HETATM   14  C   UNL     1       5.857  28.655  52.168  1.00  0.00     0.143 C 
HETATM   15  O   UNL     1       3.510  28.801  56.040  1.00  0.00    -0.267 OA
BRANCH  13  16
HETATM   16  C   UNL     1       4.998  30.231  50.442  1.00  0.00     0.064 A 
HETATM   17  C   UNL     1       4.695  29.906  49.091  1.00  0.00     0.094 A 
HETATM   18  C   UNL     1       4.950  30.825  48.062  1.00  0.00     0.039 A 
HETATM   19  C   UNL     1       5.498  32.074  48.348  1.00  0.00     0.003 A 
HETATM   20  C   UNL     1       5.811  32.406  49.659  1.00  0.00     0.002 A 
HETATM   21  C   UNL     1       5.568  31.494  50.691  1.00  0.00     0.032 A 
BRANCH  17  22
HETATM   22  O   UNL     1       4.208  28.638  48.857  1.00  0.00    -0.354 OA
HETATM   23  C   UNL     1       4.904  27.840  47.911  1.00  0.00     0.210 C 
ENDBRANCH  17  22
ENDBRANCH  13  16
ENDBRANCH   4   8
BRANCH   1  24
HETATM   24  C   UNL     1       8.730  29.390  58.039  1.00  0.00     0.257 C 
HETATM   25  N   UNL     1       8.300  29.867  59.251  1.00  0.00    -0.353 N 
HETATM   26  H   UNL     1       7.393  29.544  59.592  1.00  0.00     0.163 HD
HETATM   27  O   UNL     1       9.801  29.705  57.527  1.00  0.00    -0.267 OA
BRANCH  25  28
HETATM   28  C   UNL     1       8.981  30.885  60.040  1.00  0.00     0.076 C 
HETATM   29  C   UNL     1       9.189  30.439  61.487  1.00  0.00     0.032 C 
HETATM   30  C   UNL     1       8.296  32.246  59.965  1.00  0.00     0.032 C 
ENDBRANCH  25  28
ENDBRANCH   1  24
BRANCH   6  31
HETATM   31  C   UNL     1       8.072  24.984  55.954  1.00  0.00     0.132 C 
BRANCH  31  32
HETATM   32  C   UNL     1       7.054  23.978  55.367  1.00  0.00     0.004 C 
HETATM   33  C   UNL     1       6.818  24.137  53.856  1.00  0.00     0.006 C 
HETATM   34  C   UNL     1       8.001  23.667  53.016  1.00  0.00     0.000 C 
HETATM   35  C   UNL     1       8.373  22.225  53.344  1.00  0.00     0.000 C 
HETATM   36  C   UNL     1       8.639  22.033  54.834  1.00  0.00     0.000 C 
HETATM   37  C   UNL     1       7.473  22.531  55.688  1.00  0.00     0.006 C 
ENDBRANCH  31  32
ENDBRANCH   6  31
TORSDOF 7
ENDMDL
MODEL 5
REMARK VINA RESULT:      -8.9      2.070      2.510
REMARK  7 active torsions:
REMARK  status: ('A' for Active; 'I' for Inactive)
REMARK    1  A    between atoms: C_2  and  N_3 
REMARK       I    between atoms: N_3  and  C_4 
REMARK    2  A    between atoms: C_4  and  C_5 
REMARK    3  A    between atoms: C_8  and  C_9 
REMARK       I    between atoms: C_9  and  N_10 
REMARK    4  A    between atoms: N_13  and  C_14 
REMARK    5  A    between atoms: C_15  and  O_16 
REMARK    6  A    between atoms: N_26  and  C_27 
REMARK    7  A    between atoms: C_27  and  C_28 
ROOT
HETATM    1  C   UNL     1       5.928  26.532  52.318  1.00  0.00     0.098 A 
HETATM    2  C   UNL     1       6.383  27.739  53.067  1.00  0.00     0.206 A 
HETATM    3  O   UNL     1       6.381  28.849  52.535  1.00  0.00    -0.286 OA
HETATM    4  C   UNL     1       6.863  27.548  54.465  1.00  0.00     0.098 A 
HETATM    5  C   UNL     1       6.943  26.290  54.928  1.00  0.00     0.111 A 
HETATM    6  N   UNL     1       6.627  25.152  54.196  1.00  0.00    -0.364 N 
HETATM    7  C   UNL     1       6.098  25.342  52.921  1.00  0.00     0.111 A 
ENDROOT
BRANCH   4   8
HETATM    8  C   UNL     1       6.981  28.686  55.401  1.00  0.00     0.259 C 
HETATM    9  N   UNL     1       5.846  29.239  55.962  1.00  0.00    -0.345 N 
HETATM   10  C   UNL     1       5.981  30.491  56.713  1.00  0.00     0.146 C 
HETATM   11  C   UNL     1       4.441  28.880  55.711  1.00  0.00     0.146 C 
HETATM   12  C   UNL     1       5.315  31.645  55.943  1.00  0.00     0.143 C 
HETATM   13  N   UNL     1       3.890  31.311  55.668  1.00  0.00    -0.376 N 
HETATM   14  C   UNL     1       3.709  30.023  54.963  1.00  0.00     0.143 C 
HETATM   15  O   UNL     1       8.106  29.141  55.609  1.00  0.00    -0.267 OA
BRANCH  13  16
HETATM   16  C   UNL     1       3.142  32.432  55.242  1.00  0.00     0.064 A 
HETATM   17  C   UNL     1       2.630  33.366  56.183  1.00  0.00     0.094 A 
HETATM   18  C   UNL     1       1.906  34.489  55.751  1.00  0.00     0.039 A 
HETATM   19  C   UNL     1       1.683  34.707  54.393  1.00  0.00     0.003 A 
HETATM   20  C   UNL     1       2.166  33.800  53.460  1.00  0.00     0.002 A 
HETATM   21  C   UNL     1       2.881  32.675  53.880  1.00  0.00     0.032 A 
BRANCH  17  22
HETATM   22  O   UNL     1       2.829  33.073  57.514  1.00  0.00    -0.354 OA
HETATM   23  C   UNL     1       3.482  34.056  58.305  1.00  0.00     0.210 C 
ENDBRANCH  17  22
ENDBRANCH  13  16
ENDBRANCH   4   8
BRANCH   1  24
HETATM   24  C   UNL     1       5.268  26.562  50.979  1.00  0.00     0.257 C 
HETATM   25  N   UNL     1       5.221  27.793  50.376  1.00  0.00    -0.353 N 
HETATM   26  H   UNL     1       5.655  28.577  50.867  1.00  0.00     0.163 HD
HETATM   27  O   UNL     1       4.783  25.546  50.488  1.00  0.00    -0.267 OA
BRANCH  25  28
HETATM   28  C   UNL     1       4.504  28.095  49.145  1.00  0.00     0.076 C 
HETATM   29  C   UNL     1       5.401  27.961  47.916  1.00  0.00     0.032 C 
HETATM   30  C   UNL     1       3.807  29.453  49.186  1.00  0.00     0.032 C 
ENDBRANCH  25  28
ENDBRANCH   1  24
BRANCH   6  31
HETATM   31  C   UNL     1       6.771  23.788  54.753  1.00  0.00     0.132 C 
BRANCH  31  32
HETATM   32  C   UNL     1       8.223  23.257  54.730  1.00  0.00     0.004 C 
HETATM   33  C   UNL     1       8.582  22.364  55.929  1.00  0.00     0.006 C 
HETATM   34  C   UNL     1       7.917  20.993  55.871  1.00  0.00     0.000 C 
HETATM   35  C   UNL     1       8.240  20.278  54.564  1.00  0.00     0.000 C 
HETATM   36  C   UNL     1       7.875  21.125  53.349  1.00  0.00     0.000 C 
HETATM   37  C   UNL     1       8.510  22.514  53.411  1.00  0.00     0.006 C 
ENDBRANCH  31  32
ENDBRANCH   6  31
TORSDOF 7
ENDMDL
MODEL 6
REMARK VINA RESULT:      -8.8      3.144      7.544
REMARK  7 active torsions:
REMARK  status: ('A' for Active; 'I' for Inactive)
REMARK    1  A    between atoms: C_2  and  N_3 
REMARK       I    between atoms: N_3  and  C_4 
REMARK    2  A    between atoms: C_4  and  C_5 
REMARK    3  A    between atoms: C_8  and  C_9 
REMARK       I    between atoms: C_9  and  N_10 
REMARK    4  A    between atoms: N_13  and  C_14 
REMARK    5  A    between atoms: C_15  and  O_16 
REMARK    6  A    between atoms: N_26  and  C_27 
REMARK    7  A    between atoms: C_27  and  C_28 
ROOT
HETATM    1  C   UNL     1       7.079  27.831  54.566  1.00  0.00     0.098 A 
HETATM    2  C   UNL     1       5.824  28.429  54.027  1.00  0.00     0.206 A 
HETATM    3  O   UNL     1       5.602  29.634  54.137  1.00  0.00    -0.286 OA
HETATM    4  C   UNL     1       4.842  27.514  53.379  1.00  0.00     0.098 A 
HETATM    5  C   UNL     1       5.108  26.198  53.405  1.00  0.00     0.111 A 
HETATM    6  N   UNL     1       6.222  25.624  54.005  1.00  0.00    -0.364 N 
HETATM    7  C   UNL     1       7.178  26.490  54.533  1.00  0.00     0.111 A 
ENDROOT
BRANCH   4   8
HETATM    8  C   UNL     1       3.769  28.031  52.503  1.00  0.00     0.259 C 
HETATM    9  N   UNL     1       4.000  28.194  51.152  1.00  0.00    -0.345 N 
HETATM   10  C   UNL     1       2.994  28.904  50.354  1.00  0.00     0.146 C 
HETATM   11  C   UNL     1       5.251  27.968  50.409  1.00  0.00     0.146 C 
HETATM   12  C   UNL     1       3.543  30.267  49.901  1.00  0.00     0.143 C 
HETATM   13  N   UNL     1       4.814  30.075  49.149  1.00  0.00    -0.376 N 
HETATM   14  C   UNL     1       5.834  29.310  49.899  1.00  0.00     0.143 C 
HETATM   15  O   UNL     1       2.705  28.354  53.032  1.00  0.00    -0.267 OA
BRANCH  13  16
HETATM   16  C   UNL     1       5.211  31.235  48.448  1.00  0.00     0.064 A 
HETATM   17  C   UNL     1       4.810  31.445  47.100  1.00  0.00     0.094 A 
HETATM   18  C   UNL     1       5.190  32.610  46.416  1.00  0.00     0.039 A 
HETATM   19  C   UNL     1       5.963  33.581  47.049  1.00  0.00     0.003 A 
HETATM   20  C   UNL     1       6.374  33.390  48.361  1.00  0.00     0.002 A 
HETATM   21  C   UNL     1       6.007  32.229  49.048  1.00  0.00     0.032 A 
BRANCH  17  22
HETATM   22  O   UNL     1       4.095  30.429  46.504  1.00  0.00    -0.354 OA
HETATM   23  C   UNL     1       2.729  30.682  46.209  1.00  0.00     0.210 C 
ENDBRANCH  17  22
ENDBRANCH  13  16
ENDBRANCH   4   8
BRANCH   1  24
HETATM   24  C   UNL     1       8.235  28.614  55.094  1.00  0.00     0.257 C 
HETATM   25  N   UNL     1       8.178  28.913  56.432  1.00  0.00    -0.353 N 
HETATM   26  H   UNL     1       7.378  28.563  56.961  1.00  0.00     0.163 HD
HETATM   27  O   UNL     1       9.146  28.979  54.355  1.00  0.00    -0.267 OA
BRANCH  25  28
HETATM   28  C   UNL     1       9.109  29.786  57.135  1.00  0.00     0.076 C 
HETATM   29  C   UNL     1      10.554  29.316  56.984  1.00  0.00     0.032 C 
HETATM   30  C   UNL     1       8.734  29.989  58.601  1.00  0.00     0.032 C 
ENDBRANCH  25  28
ENDBRANCH   1  24
BRANCH   6  31
HETATM   31  C   UNL     1       6.441  24.160  54.030  1.00  0.00     0.132 C 
BRANCH  31  32
HETATM   32  C   UNL     1       7.930  23.756  54.141  1.00  0.00     0.004 C 
HETATM   33  C   UNL     1       8.302  23.099  55.481  1.00  0.00     0.006 C 
HETATM   34  C   UNL     1       7.748  21.685  55.623  1.00  0.00     0.000 C 
HETATM   35  C   UNL     1       8.186  20.801  54.461  1.00  0.00     0.000 C 
HETATM   36  C   UNL     1       7.812  21.410  53.113  1.00  0.00     0.000 C 
HETATM   37  C   UNL     1       8.334  22.840  52.971  1.00  0.00     0.006 C 
ENDBRANCH  31  32
ENDBRANCH   6  31
TORSDOF 7
ENDMDL
MODEL 7
REMARK VINA RESULT:      -8.8      1.527      2.154
REMARK  7 active torsions:
REMARK  status: ('A' for Active; 'I' for Inactive)
REMARK    1  A    between atoms: C_2  and  N_3 
REMARK       I    between atoms: N_3  and  C_4 
REMARK    2  A    between atoms: C_4  and  C_5 
REMARK    3  A    between atoms: C_8  and  C_9 
REMARK       I    between atoms: C_9  and  N_10 
REMARK    4  A    between atoms: N_13  and  C_14 
REMARK    5  A    between atoms: C_15  and  O_16 
REMARK    6  A    between atoms: N_26  and  C_27 
REMARK    7  A    between atoms: C_27  and  C_28 
ROOT
HETATM    1  C   UNL     1       6.739  26.449  53.436  1.00  0.00     0.098 A 
HETATM    2  C   UNL     1       7.390  27.486  54.288  1.00  0.00     0.206 A 
HETATM    3  O   UNL     1       7.584  28.623  53.861  1.00  0.00    -0.286 OA
HETATM    4  C   UNL     1       7.819  27.087  55.659  1.00  0.00     0.098 A 
HETATM    5  C   UNL     1       7.677  25.797  56.004  1.00  0.00     0.111 A 
HETATM    6  N   UNL     1       7.174  24.802  55.173  1.00  0.00    -0.364 N 
HETATM    7  C   UNL     1       6.696  25.197  53.926  1.00  0.00     0.111 A 
ENDROOT
BRANCH   4   8
HETATM    8  C   UNL     1       8.124  28.096  56.695  1.00  0.00     0.259 C 
HETATM    9  N   UNL     1       7.108  28.624  57.466  1.00  0.00    -0.345 N 
HETATM   10  C   UNL     1       7.412  29.770  58.330  1.00  0.00     0.146 C 
HETATM   11  C   UNL     1       5.663  28.358  57.370  1.00  0.00     0.146 C 
HETATM   12  C   UNL     1       6.719  31.035  57.796  1.00  0.00     0.143 C 
HETATM   13  N   UNL     1       5.253  30.798  57.682  1.00  0.00    -0.376 N 
HETATM   14  C   UNL     1       4.907  29.614  56.866  1.00  0.00     0.143 C 
HETATM   15  O   UNL     1       9.291  28.475  56.797  1.00  0.00    -0.267 OA
BRANCH  13  16
HETATM   16  C   UNL     1       4.523  31.993  57.494  1.00  0.00     0.064 A 
HETATM   17  C   UNL     1       4.242  32.477  56.187  1.00  0.00     0.094 A 
HETATM   18  C   UNL     1       3.497  33.652  56.007  1.00  0.00     0.039 A 
HETATM   19  C   UNL     1       3.017  34.361  57.107  1.00  0.00     0.003 A 
HETATM   20  C   UNL     1       3.290  33.911  58.392  1.00  0.00     0.002 A 
HETATM   21  C   UNL     1       4.038  32.744  58.581  1.00  0.00     0.032 A 
BRANCH  17  22
HETATM   22  O   UNL     1       4.788  31.771  55.138  1.00  0.00    -0.354 OA
HETATM   23  C   UNL     1       4.014  31.668  53.952  1.00  0.00     0.210 C 
ENDBRANCH  17  22
ENDBRANCH  13  16
ENDBRANCH   4   8
BRANCH   1  24
HETATM   24  C   UNL     1       6.105  26.715  52.111  1.00  0.00     0.257 C 
HETATM   25  N   UNL     1       5.685  28.006  51.910  1.00  0.00    -0.353 N 
HETATM   26  H   UNL     1       5.858  28.681  52.657  1.00  0.00     0.163 HD
HETATM   27  O   UNL     1       5.954  25.816  51.287  1.00  0.00    -0.267 OA
BRANCH  25  28
HETATM   28  C   UNL     1       4.912  28.467  50.764  1.00  0.00     0.076 C 
HETATM   29  C   UNL     1       5.602  29.622  50.041  1.00  0.00     0.032 C 
HETATM   30  C   UNL     1       3.470  28.810  51.126  1.00  0.00     0.032 C 
ENDBRANCH  25  28
ENDBRANCH   1  24
BRANCH   6  31
HETATM   31  C   UNL     1       7.075  23.389  55.602  1.00  0.00     0.132 C 
BRANCH  31  32
HETATM   32  C   UNL     1       8.442  22.739  55.920  1.00  0.00     0.004 C 
HETATM   33  C   UNL     1       8.344  21.450  56.753  1.00  0.00     0.006 C 
HETATM   34  C   UNL     1       7.792  20.270  55.961  1.00  0.00     0.000 C 
HETATM   35  C   UNL     1       8.610  20.021  54.699  1.00  0.00     0.000 C 
HETATM   36  C   UNL     1       8.710  21.273  53.833  1.00  0.00     0.000 C 
HETATM   37  C   UNL     1       9.231  22.472  54.624  1.00  0.00     0.006 C 
ENDBRANCH  31  32
ENDBRANCH   6  31
TORSDOF 7
ENDMDL
MODEL 8
REMARK VINA RESULT:      -8.6      2.281      5.640
REMARK  7 active torsions:
REMARK  status: ('A' for Active; 'I' for Inactive)
REMARK    1  A    between atoms: C_2  and  N_3 
REMARK       I    between atoms: N_3  and  C_4 
REMARK    2  A    between atoms: C_4  and  C_5 
REMARK    3  A    between atoms: C_8  and  C_9 
REMARK       I    between atoms: C_9  and  N_10 
REMARK    4  A    between atoms: N_13  and  C_14 
REMARK    5  A    between atoms: C_15  and  O_16 
REMARK    6  A    between atoms: N_26  and  C_27 
REMARK    7  A    between atoms: C_27  and  C_28 
ROOT
HETATM    1  C   UNL     1       5.146  26.893  55.225  1.00  0.00     0.098 A 
HETATM    2  C   UNL     1       4.662  28.000  56.100  1.00  0.00     0.206 A 
HETATM    3  O   UNL     1       4.735  27.913  57.325  1.00  0.00    -0.286 OA
HETATM    4  C   UNL     1       4.068  29.196  55.440  1.00  0.00     0.098 A 
HETATM    5  C   UNL     1       3.919  29.160  54.105  1.00  0.00     0.111 A 
HETATM    6  N   UNL     1       4.264  28.085  53.296  1.00  0.00    -0.364 N 
HETATM    7  C   UNL     1       4.898  27.006  53.908  1.00  0.00     0.111 A 
ENDROOT
BRANCH   4   8
HETATM    8  C   UNL     1       3.904  30.474  56.164  1.00  0.00     0.259 C 
HETATM    9  N   UNL     1       5.015  31.208  56.531  1.00  0.00    -0.345 N 
HETATM   10  C   UNL     1       4.828  32.353  57.428  1.00  0.00     0.146 C 
HETATM   11  C   UNL     1       6.434  30.861  56.346  1.00  0.00     0.146 C 
HETATM   12  C   UNL     1       5.438  32.050  58.807  1.00  0.00     0.143 C 
HETATM   13  N   UNL     1       6.875  31.690  58.656  1.00  0.00    -0.376 N 
HETATM   14  C   UNL     1       7.109  30.576  57.711  1.00  0.00     0.143 C 
HETATM   15  O   UNL     1       2.761  30.818  56.467  1.00  0.00    -0.267 OA
BRANCH  13  16
HETATM   16  C   UNL     1       7.570  31.698  59.886  1.00  0.00     0.064 A 
HETATM   17  C   UNL     1       8.949  32.039  59.942  1.00  0.00     0.094 A 
HETATM   18  C   UNL     1       9.627  32.066  61.170  1.00  0.00     0.039 A 
HETATM   19  C   UNL     1       8.958  31.764  62.355  1.00  0.00     0.003 A 
HETATM   20  C   UNL     1       7.614  31.418  62.320  1.00  0.00     0.002 A 
HETATM   21  C   UNL     1       6.931  31.382  61.101  1.00  0.00     0.032 A 
BRANCH  17  22
HETATM   22  O   UNL     1       9.575  32.272  58.738  1.00  0.00    -0.354 OA
HETATM   23  C   UNL     1      10.451  31.263  58.255  1.00  0.00     0.210 C 
ENDBRANCH  17  22
ENDBRANCH  13  16
ENDBRANCH   4   8
BRANCH   1  24
HETATM   24  C   UNL     1       5.911  25.704  55.704  1.00  0.00     0.257 C 
HETATM   25  N   UNL     1       6.675  25.077  54.753  1.00  0.00    -0.353 N 
HETATM   26  H   UNL     1       6.683  25.477  53.814  1.00  0.00     0.163 HD
HETATM   27  O   UNL     1       5.822  25.318  56.867  1.00  0.00    -0.267 OA
BRANCH  25  28
HETATM   28  C   UNL     1       7.387  23.820  54.946  1.00  0.00     0.076 C 
HETATM   29  C   UNL     1       8.650  24.005  55.785  1.00  0.00     0.032 C 
HETATM   30  C   UNL     1       7.685  23.103  53.632  1.00  0.00     0.032 C 
ENDBRANCH  25  28
ENDBRANCH   1  24
BRANCH   6  31
HETATM   31  C   UNL     1       4.043  28.093  51.832  1.00  0.00     0.132 C 
BRANCH  31  32
HETATM   32  C   UNL     1       5.290  27.687  51.013  1.00  0.00     0.004 C 
HETATM   33  C   UNL     1       5.169  26.317  50.326  1.00  0.00     0.006 C 
HETATM   34  C   UNL     1       4.206  26.326  49.144  1.00  0.00     0.000 C 
HETATM   35  C   UNL     1       4.590  27.395  48.127  1.00  0.00     0.000 C 
HETATM   36  C   UNL     1       4.697  28.775  48.768  1.00  0.00     0.000 C 
HETATM   37  C   UNL     1       5.635  28.771  49.974  1.00  0.00     0.006 C 
ENDBRANCH  31  32
ENDBRANCH   6  31
TORSDOF 7
ENDMDL
MODEL 9
REMARK VINA RESULT:      -8.5      2.327      3.877
REMARK  7 active torsions:
REMARK  status: ('A' for Active; 'I' for Inactive)
REMARK    1  A    between atoms: C_2  and  N_3 
REMARK       I    between atoms: N_3  and  C_4 
REMARK    2  A    between atoms: C_4  and  C_5 
REMARK    3  A    between atoms: C_8  and  C_9 
REMARK       I    between atoms: C_9  and  N_10 
REMARK    4  A    between atoms: N_13  and  C_14 
REMARK    5  A    between atoms: C_15  and  O_16 
REMARK    6  A    between atoms: N_26  and  C_27 
REMARK    7  A    between atoms: C_27  and  C_28 
ROOT
HETATM    1  C   UNL     1       4.855  28.539  53.855  1.00  0.00     0.098 A 
HETATM    2  C   UNL     1       4.452  29.706  54.691  1.00  0.00     0.206 A 
HETATM    3  O   UNL     1       4.089  30.760  54.170  1.00  0.00    -0.286 OA
HETATM    4  C   UNL     1       4.531  29.558  56.172  1.00  0.00     0.098 A 
HETATM    5  C   UNL     1       5.048  28.417  56.656  1.00  0.00     0.111 A 
HETATM    6  N   UNL     1       5.530  27.370  55.879  1.00  0.00    -0.364 N 
HETATM    7  C   UNL     1       5.374  27.479  54.499  1.00  0.00     0.111 A 
ENDROOT
BRANCH   4   8
HETATM    8  C   UNL     1       3.824  30.488  57.078  1.00  0.00     0.259 C 
HETATM    9  N   UNL     1       4.497  31.561  57.628  1.00  0.00    -0.345 N 
HETATM   10  C   UNL     1       3.831  32.335  58.681  1.00  0.00     0.146 C 
HETATM   11  C   UNL     1       5.919  31.912  57.484  1.00  0.00     0.146 C 
HETATM   12  C   UNL     1       4.529  32.100  60.032  1.00  0.00     0.143 C 
HETATM   13  N   UNL     1       5.973  32.442  59.920  1.00  0.00    -0.376 N 
HETATM   14  C   UNL     1       6.668  31.725  58.828  1.00  0.00     0.143 C 
HETATM   15  O   UNL     1       2.651  30.235  57.355  1.00  0.00    -0.267 OA
BRANCH  13  16
HETATM   16  C   UNL     1       6.607  32.544  61.179  1.00  0.00     0.064 A 
HETATM   17  C   UNL     1       6.317  33.626  62.055  1.00  0.00     0.094 A 
HETATM   18  C   UNL     1       6.933  33.710  63.312  1.00  0.00     0.039 A 
HETATM   19  C   UNL     1       7.835  32.732  63.725  1.00  0.00     0.003 A 
HETATM   20  C   UNL     1       8.140  31.673  62.880  1.00  0.00     0.002 A 
HETATM   21  C   UNL     1       7.537  31.585  61.621  1.00  0.00     0.032 A 
BRANCH  17  22
HETATM   22  O   UNL     1       5.463  34.595  61.575  1.00  0.00    -0.354 OA
HETATM   23  C   UNL     1       5.405  35.821  62.290  1.00  0.00     0.210 C 
ENDBRANCH  17  22
ENDBRANCH  13  16
ENDBRANCH   4   8
BRANCH   1  24
HETATM   24  C   UNL     1       4.684  28.456  52.374  1.00  0.00     0.257 C 
HETATM   25  N   UNL     1       3.555  29.059  51.879  1.00  0.00    -0.353 N 
HETATM   26  H   UNL     1       2.942  29.532  52.544  1.00  0.00     0.163 HD
HETATM   27  O   UNL     1       5.497  27.857  51.673  1.00  0.00    -0.267 OA
BRANCH  25  28
HETATM   28  C   UNL     1       3.102  28.982  50.497  1.00  0.00     0.076 C 
HETATM   29  C   UNL     1       3.783  30.027  49.616  1.00  0.00     0.032 C 
HETATM   30  C   UNL     1       1.582  29.044  50.370  1.00  0.00     0.032 C 
ENDBRANCH  25  28
ENDBRANCH   1  24
BRANCH   6  31
HETATM   31  C   UNL     1       6.121  26.151  56.474  1.00  0.00     0.132 C 
BRANCH  31  32
HETATM   32  C   UNL     1       7.562  25.861  55.993  1.00  0.00     0.004 C 
HETATM   33  C   UNL     1       8.407  25.056  56.995  1.00  0.00     0.006 C 
HETATM   34  C   UNL     1       7.981  23.596  57.094  1.00  0.00     0.000 C 
HETATM   35  C   UNL     1       7.999  22.921  55.727  1.00  0.00     0.000 C 
HETATM   36  C   UNL     1       7.151  23.679  54.710  1.00  0.00     0.000 C 
HETATM   37  C   UNL     1       7.547  25.153  54.625  1.00  0.00     0.006 C 
ENDBRANCH  31  32
ENDBRANCH   6  31
TORSDOF 7
ENDMDL
MODEL 10
REMARK VINA RESULT:      -8.4      2.473      7.863
REMARK  7 active torsions:
REMARK  status: ('A' for Active; 'I' for Inactive)
REMARK    1  A    between atoms: C_2  and  N_3 
REMARK       I    between atoms: N_3  and  C_4 
REMARK    2  A    between atoms: C_4  and  C_5 
REMARK    3  A    between atoms: C_8  and  C_9 
REMARK       I    between atoms: C_9  and  N_10 
REMARK    4  A    between atoms: N_13  and  C_14 
REMARK    5  A    between atoms: C_15  and  O_16 
REMARK    6  A    between atoms: N_26  and  C_27 
REMARK    7  A    between atoms: C_27  and  C_28 
ROOT
HETATM    1  C   UNL     1       7.526  29.844  58.188  1.00  0.00     0.098 A 
HETATM    2  C   UNL     1       6.373  30.560  57.570  1.00  0.00     0.206 A 
HETATM    3  O   UNL     1       5.916  31.580  58.084  1.00  0.00    -0.286 OA
HETATM    4  C   UNL     1       5.783  29.983  56.330  1.00  0.00     0.098 A 
HETATM    5  C   UNL     1       6.265  28.805  55.901  1.00  0.00     0.111 A 
HETATM    6  N   UNL     1       7.264  28.077  56.537  1.00  0.00    -0.364 N 
HETATM    7  C   UNL     1       7.870  28.662  57.646  1.00  0.00     0.111 A 
ENDROOT
BRANCH   4   8
HETATM    8  C   UNL     1       4.908  30.784  55.448  1.00  0.00     0.259 C 
HETATM    9  N   UNL     1       3.972  30.157  54.649  1.00  0.00    -0.345 N 
HETATM   10  C   UNL     1       3.272  30.956  53.638  1.00  0.00     0.146 C 
HETATM   11  C   UNL     1       3.735  28.712  54.491  1.00  0.00     0.146 C 
HETATM   12  C   UNL     1       3.727  30.540  52.228  1.00  0.00     0.143 C 
HETATM   13  N   UNL     1       3.504  29.080  52.035  1.00  0.00    -0.376 N 
HETATM   14  C   UNL     1       4.146  28.243  53.073  1.00  0.00     0.143 C 
HETATM   15  O   UNL     1       5.086  32.002  55.419  1.00  0.00    -0.267 OA
BRANCH  13  16
HETATM   16  C   UNL     1       3.609  28.689  50.682  1.00  0.00     0.064 A 
HETATM   17  C   UNL     1       2.510  28.839  49.793  1.00  0.00     0.094 A 
HETATM   18  C   UNL     1       2.627  28.468  48.445  1.00  0.00     0.039 A 
HETATM   19  C   UNL     1       3.825  27.951  47.955  1.00  0.00     0.003 A 
HETATM   20  C   UNL     1       4.907  27.786  48.810  1.00  0.00     0.002 A 
HETATM   21  C   UNL     1       4.797  28.146  50.157  1.00  0.00     0.032 A 
BRANCH  17  22
HETATM   22  O   UNL     1       1.333  29.301  50.340  1.00  0.00    -0.354 OA
HETATM   23  C   UNL     1       0.825  30.531  49.844  1.00  0.00     0.210 C 
ENDBRANCH  17  22
ENDBRANCH  13  16
ENDBRANCH   4   8
BRANCH   1  24
HETATM   24  C   UNL     1       8.337  30.365  59.329  1.00  0.00     0.257 C 
HETATM   25  N   UNL     1       7.615  30.833  60.396  1.00  0.00    -0.353 N 
HETATM   26  H   UNL     1       6.597  30.769  60.343  1.00  0.00     0.163 HD
HETATM   27  O   UNL     1       9.565  30.388  59.276  1.00  0.00    -0.267 OA
BRANCH  25  28
HETATM   28  C   UNL     1       8.177  31.520  61.552  1.00  0.00     0.076 C 
HETATM   29  C   UNL     1       8.557  30.543  62.663  1.00  0.00     0.032 C 
HETATM   30  C   UNL     1       7.277  32.638  62.069  1.00  0.00     0.032 C 
ENDBRANCH  25  28
ENDBRANCH   1  24
BRANCH   6  31
HETATM   31  C   UNL     1       7.729  26.765  56.033  1.00  0.00     0.132 C 
BRANCH  31  32
HETATM   32  C   UNL     1       6.613  25.923  55.369  1.00  0.00     0.004 C 
HETATM   33  C   UNL     1       6.799  25.718  53.857  1.00  0.00     0.006 C 
HETATM   34  C   UNL     1       7.935  24.758  53.522  1.00  0.00     0.000 C 
HETATM   35  C   UNL     1       7.747  23.415  54.218  1.00  0.00     0.000 C 
HETATM   36  C   UNL     1       7.583  23.576  55.726  1.00  0.00     0.000 C 
HETATM   37  C   UNL     1       6.467  24.562  56.075  1.00  0.00     0.006 C 
ENDBRANCH  31  32
ENDBRANCH   6  31
TORSDOF 7
ENDMDL
