MODEL 1
REMARK VINA RESULT:     -10.0      0.000      0.000
REMARK  4 active torsions:
REMARK  status: ('A' for Active; 'I' for Inactive)
REMARK    1  A    between atoms: C_6  and  C_7 
REMARK    2  A    between atoms: C_10  and  N_11 
REMARK       I    between atoms: N_11  and  C_12 
REMARK    3  A    between atoms: C_24  and  C_25 
REMARK       I    between atoms: C_25  and  N_26 
REMARK    4  A    between atoms: N_26  and  C_27 
ROOT
HETATM    1  C   UNL     1       3.059  30.210  53.381  1.00  0.00     0.070 C 
HETATM    2  C   UNL     1       4.297  29.606  53.995  1.00  0.00     0.037 C 
HETATM    3  N   UNL     1       4.472  29.862  55.351  1.00  0.00    -0.193 N 
HETATM    4  C   UNL     1       5.665  29.762  55.971  1.00  0.00     0.709 A 
HETATM    5  N   UNL     1       6.699  29.134  55.325  1.00  0.00    -0.165 N 
HETATM    6  C   UNL     1       6.545  28.496  54.011  1.00  0.00     0.182 C 
HETATM    7  N   UNL     1       6.037  30.238  57.132  1.00  0.00    -0.062 NA
HETATM    8  C   UNL     1       7.382  29.958  57.214  1.00  0.00     0.103 A 
HETATM    9  C   UNL     1       7.831  29.273  56.085  1.00  0.00     0.082 A 
HETATM   10  C   UNL     1       8.298  30.277  58.229  1.00  0.00     0.034 A 
HETATM   11  C   UNL     1       9.638  29.904  58.072  1.00  0.00     0.002 A 
HETATM   12  C   UNL     1      10.060  29.219  56.931  1.00  0.00     0.002 A 
HETATM   13  C   UNL     1       9.163  28.884  55.909  1.00  0.00     0.032 A 
HETATM   14  C   UNL     1       5.264  28.938  53.315  1.00  0.00     0.061 C 
HETATM   15  H   UNL     1       3.776  30.449  55.806  1.00  0.00     0.184 HD
ENDROOT
BRANCH   6  16
HETATM   16  C   UNL     1       6.642  26.978  54.156  1.00  0.00    -0.030 A 
HETATM   17  C   UNL     1       5.807  26.261  55.027  1.00  0.00     0.012 A 
HETATM   18  C   UNL     1       5.960  24.881  55.204  1.00  0.00     0.030 A 
HETATM   19  C   UNL     1       6.944  24.183  54.505  1.00  0.00     0.034 A 
HETATM   20  C   UNL     1       7.752  24.883  53.601  1.00  0.00     0.030 A 
HETATM   21  C   UNL     1       7.600  26.263  53.422  1.00  0.00     0.012 A 
BRANCH  19  22
HETATM   22  N   UNL     1       7.203  22.806  54.673  1.00  0.00    -0.328 N 
HETATM   23  C   UNL     1       7.853  22.194  55.730  1.00  0.00     0.218 C 
HETATM   24  C   UNL     1       8.030  20.712  55.511  1.00  0.00     0.117 C 
HETATM   25  O   UNL     1       8.242  22.723  56.765  1.00  0.00    -0.274 OA
HETATM   26  H   UNL     1       6.893  22.203  53.921  1.00  0.00     0.169 HD
ENDBRANCH  19  22
ENDBRANCH   6  16
BRANCH  14  27
HETATM   27  C   UNL     1       5.284  28.728  51.838  1.00  0.00     0.256 C 
HETATM   28  N   UNL     1       4.449  27.730  51.388  1.00  0.00    -0.323 N 
HETATM   29  H   UNL     1       3.981  27.172  52.090  1.00  0.00     0.169 HD
HETATM   30  O   UNL     1       6.043  29.414  51.161  1.00  0.00    -0.267 OA
BRANCH  28  31
HETATM   31  C   UNL     1       4.102  27.455  50.047  1.00  0.00     0.035 A 
HETATM   32  C   UNL     1       4.690  26.448  49.279  1.00  0.00     0.029 A 
HETATM   33  C   UNL     1       4.332  26.274  47.938  1.00  0.00     0.002 A 
HETATM   34  C   UNL     1       3.386  27.109  47.351  1.00  0.00     0.000 A 
HETATM   35  C   UNL     1       2.790  28.114  48.108  1.00  0.00     0.002 A 
HETATM   36  C   UNL     1       3.142  28.283  49.450  1.00  0.00     0.029 A 
ENDBRANCH  28  31
ENDBRANCH  14  27
TORSDOF 4
ENDMDL
MODEL 2
REMARK VINA RESULT:      -9.9      1.535      2.066
REMARK  4 active torsions:
REMARK  status: ('A' for Active; 'I' for Inactive)
REMARK    1  A    between atoms: C_6  and  C_7 
REMARK    2  A    between atoms: C_10  and  N_11 
REMARK       I    between atoms: N_11  and  C_12 
REMARK    3  A    between atoms: C_24  and  C_25 
REMARK       I    between atoms: C_25  and  N_26 
REMARK    4  A    between atoms: N_26  and  C_27 
ROOT
HETATM    1  C   UNL     1       3.096  30.234  56.065  1.00  0.00     0.070 C 
HETATM    2  C   UNL     1       4.503  29.699  56.156  1.00  0.00     0.037 C 
HETATM    3  N   UNL     1       5.165  29.974  57.349  1.00  0.00    -0.193 N 
HETATM    4  C   UNL     1       6.507  29.940  57.470  1.00  0.00     0.709 A 
HETATM    5  N   UNL     1       7.250  29.361  56.472  1.00  0.00    -0.165 N 
HETATM    6  C   UNL     1       6.643  28.706  55.306  1.00  0.00     0.182 C 
HETATM    7  N   UNL     1       7.266  30.443  58.410  1.00  0.00    -0.062 NA
HETATM    8  C   UNL     1       8.555  30.234  57.973  1.00  0.00     0.103 A 
HETATM    9  C   UNL     1       8.577  29.564  56.749  1.00  0.00     0.082 A 
HETATM   10  C   UNL     1       9.769  30.607  58.570  1.00  0.00     0.034 A 
HETATM   11  C   UNL     1      10.967  30.303  57.913  1.00  0.00     0.002 A 
HETATM   12  C   UNL     1      10.960  29.632  56.688  1.00  0.00     0.002 A 
HETATM   13  C   UNL     1       9.761  29.243  56.078  1.00  0.00     0.032 A 
HETATM   14  C   UNL     1       5.172  29.076  55.153  1.00  0.00     0.061 C 
HETATM   15  H   UNL     1       4.664  30.527  58.040  1.00  0.00     0.184 HD
ENDROOT
BRANCH   6  16
HETATM   16  C   UNL     1       6.864  27.196  55.385  1.00  0.00    -0.030 A 
HETATM   17  C   UNL     1       7.393  26.467  54.308  1.00  0.00     0.012 A 
HETATM   18  C   UNL     1       7.518  25.074  54.370  1.00  0.00     0.030 A 
HETATM   19  C   UNL     1       7.128  24.378  55.513  1.00  0.00     0.034 A 
HETATM   20  C   UNL     1       6.640  25.103  56.607  1.00  0.00     0.030 A 
HETATM   21  C   UNL     1       6.514  26.496  56.548  1.00  0.00     0.012 A 
BRANCH  19  22
HETATM   22  N   UNL     1       7.164  22.974  55.631  1.00  0.00    -0.328 N 
HETATM   23  C   UNL     1       8.253  22.140  55.443  1.00  0.00     0.218 C 
HETATM   24  C   UNL     1       7.882  20.682  55.560  1.00  0.00     0.117 C 
HETATM   25  O   UNL     1       9.412  22.474  55.230  1.00  0.00    -0.274 OA
HETATM   26  H   UNL     1       6.285  22.526  55.862  1.00  0.00     0.169 HD
ENDBRANCH  19  22
ENDBRANCH   6  16
BRANCH  14  27
HETATM   27  C   UNL     1       4.643  28.857  53.776  1.00  0.00     0.256 C 
HETATM   28  N   UNL     1       5.443  29.349  52.769  1.00  0.00    -0.323 N 
HETATM   29  H   UNL     1       6.250  29.892  53.046  1.00  0.00     0.169 HD
HETATM   30  O   UNL     1       3.556  28.305  53.648  1.00  0.00    -0.267 OA
BRANCH  28  31
HETATM   31  C   UNL     1       5.310  29.104  51.384  1.00  0.00     0.035 A 
HETATM   32  C   UNL     1       5.159  27.833  50.826  1.00  0.00     0.029 A 
HETATM   33  C   UNL     1       5.090  27.667  49.439  1.00  0.00     0.002 A 
HETATM   34  C   UNL     1       5.177  28.771  48.596  1.00  0.00     0.000 A 
HETATM   35  C   UNL     1       5.323  30.045  49.141  1.00  0.00     0.002 A 
HETATM   36  C   UNL     1       5.384  30.210  50.527  1.00  0.00     0.029 A 
ENDBRANCH  28  31
ENDBRANCH  14  27
TORSDOF 4
ENDMDL
MODEL 3
REMARK VINA RESULT:      -9.6      2.414      6.358
REMARK  4 active torsions:
REMARK  status: ('A' for Active; 'I' for Inactive)
REMARK    1  A    between atoms: C_6  and  C_7 
REMARK    2  A    between atoms: C_10  and  N_11 
REMARK       I    between atoms: N_11  and  C_12 
REMARK    3  A    between atoms: C_24  and  C_25 
REMARK       I    between atoms: C_25  and  N_26 
REMARK    4  A    between atoms: N_26  and  C_27 
ROOT
HETATM    1  C   UNL     1       5.311  27.625  50.540  1.00  0.00     0.070 C 
HETATM    2  C   UNL     1       5.922  26.968  51.752  1.00  0.00     0.037 C 
HETATM    3  N   UNL     1       6.907  26.023  51.481  1.00  0.00    -0.193 N 
HETATM    4  C   UNL     1       7.274  25.070  52.361  1.00  0.00     0.709 A 
HETATM    5  N   UNL     1       6.869  25.181  53.667  1.00  0.00    -0.165 N 
HETATM    6  C   UNL     1       6.111  26.333  54.170  1.00  0.00     0.182 C 
HETATM    7  N   UNL     1       7.949  23.968  52.154  1.00  0.00    -0.062 NA
HETATM    8  C   UNL     1       7.928  23.309  53.362  1.00  0.00     0.103 A 
HETATM    9  C   UNL     1       7.245  24.042  54.332  1.00  0.00     0.082 A 
HETATM   10  C   UNL     1       8.464  22.057  53.703  1.00  0.00     0.034 A 
HETATM   11  C   UNL     1       8.289  21.580  55.007  1.00  0.00     0.002 A 
HETATM   12  C   UNL     1       7.601  22.335  55.959  1.00  0.00     0.002 A 
HETATM   13  C   UNL     1       7.064  23.589  55.643  1.00  0.00     0.032 A 
HETATM   14  C   UNL     1       5.520  27.160  53.034  1.00  0.00     0.061 C 
HETATM   15  H   UNL     1       7.113  25.836  50.502  1.00  0.00     0.184 HD
ENDROOT
BRANCH   6  16
HETATM   16  C   UNL     1       6.987  27.163  55.107  1.00  0.00    -0.030 A 
HETATM   17  C   UNL     1       6.905  27.038  56.503  1.00  0.00     0.012 A 
HETATM   18  C   UNL     1       7.660  27.860  57.348  1.00  0.00     0.030 A 
HETATM   19  C   UNL     1       8.524  28.817  56.818  1.00  0.00     0.034 A 
HETATM   20  C   UNL     1       8.644  28.917  55.427  1.00  0.00     0.030 A 
HETATM   21  C   UNL     1       7.890  28.097  54.580  1.00  0.00     0.012 A 
BRANCH  19  22
HETATM   22  N   UNL     1       9.271  29.723  57.599  1.00  0.00    -0.328 N 
HETATM   23  C   UNL     1       8.804  30.837  58.275  1.00  0.00     0.218 C 
HETATM   24  C   UNL     1       9.919  31.621  58.922  1.00  0.00     0.117 C 
HETATM   25  O   UNL     1       7.638  31.191  58.399  1.00  0.00    -0.274 OA
HETATM   26  H   UNL     1      10.267  29.546  57.652  1.00  0.00     0.169 HD
ENDBRANCH  19  22
ENDBRANCH   6  16
BRANCH  14  27
HETATM   27  C   UNL     1       4.377  28.020  53.455  1.00  0.00     0.256 C 
HETATM   28  N   UNL     1       4.726  29.301  53.820  1.00  0.00    -0.323 N 
HETATM   29  H   UNL     1       5.714  29.512  53.867  1.00  0.00     0.169 HD
HETATM   30  O   UNL     1       3.253  27.529  53.477  1.00  0.00    -0.267 OA
BRANCH  28  31
HETATM   31  C   UNL     1       3.851  30.385  54.052  1.00  0.00     0.035 A 
HETATM   32  C   UNL     1       3.435  31.279  53.063  1.00  0.00     0.029 A 
HETATM   33  C   UNL     1       2.610  32.362  53.384  1.00  0.00     0.002 A 
HETATM   34  C   UNL     1       2.199  32.565  54.698  1.00  0.00     0.000 A 
HETATM   35  C   UNL     1       2.603  31.678  55.692  1.00  0.00     0.002 A 
HETATM   36  C   UNL     1       3.421  30.591  55.369  1.00  0.00     0.029 A 
ENDBRANCH  28  31
ENDBRANCH  14  27
TORSDOF 4
ENDMDL
MODEL 4
REMARK VINA RESULT:      -9.0      9.567     13.630
REMARK  4 active torsions:
REMARK  status: ('A' for Active; 'I' for Inactive)
REMARK    1  A    between atoms: C_6  and  C_7 
REMARK    2  A    between atoms: C_10  and  N_11 
REMARK       I    between atoms: N_11  and  C_12 
REMARK    3  A    between atoms: C_24  and  C_25 
REMARK       I    between atoms: C_25  and  N_26 
REMARK    4  A    between atoms: N_26  and  C_27 
ROOT
HETATM    1  C   UNL     1       2.636  33.953  60.420  1.00  0.00     0.070 C 
HETATM    2  C   UNL     1       3.357  34.878  61.368  1.00  0.00     0.037 C 
HETATM    3  N   UNL     1       2.855  36.175  61.425  1.00  0.00    -0.193 N 
HETATM    4  C   UNL     1       3.573  37.222  61.881  1.00  0.00     0.709 A 
HETATM    5  N   UNL     1       4.739  36.981  62.562  1.00  0.00    -0.165 N 
HETATM    6  C   UNL     1       5.208  35.627  62.884  1.00  0.00     0.182 C 
HETATM    7  N   UNL     1       3.355  38.503  61.729  1.00  0.00    -0.062 NA
HETATM    8  C   UNL     1       4.457  39.117  62.281  1.00  0.00     0.103 A 
HETATM    9  C   UNL     1       5.353  38.183  62.804  1.00  0.00     0.082 A 
HETATM   10  C   UNL     1       4.771  40.482  62.358  1.00  0.00     0.034 A 
HETATM   11  C   UNL     1       5.980  40.865  62.952  1.00  0.00     0.002 A 
HETATM   12  C   UNL     1       6.858  39.910  63.467  1.00  0.00     0.002 A 
HETATM   13  C   UNL     1       6.562  38.543  63.409  1.00  0.00     0.032 A 
HETATM   14  C   UNL     1       4.478  34.568  62.067  1.00  0.00     0.061 C 
HETATM   15  H   UNL     1       2.073  36.397  60.813  1.00  0.00     0.184 HD
ENDROOT
BRANCH   6  16
HETATM   16  C   UNL     1       5.103  35.384  64.389  1.00  0.00    -0.030 A 
HETATM   17  C   UNL     1       4.147  36.040  65.181  1.00  0.00     0.012 A 
HETATM   18  C   UNL     1       4.114  35.863  66.569  1.00  0.00     0.030 A 
HETATM   19  C   UNL     1       5.028  35.019  67.197  1.00  0.00     0.034 A 
HETATM   20  C   UNL     1       5.956  34.327  66.409  1.00  0.00     0.030 A 
HETATM   21  C   UNL     1       5.991  34.502  65.021  1.00  0.00     0.012 A 
BRANCH  19  22
HETATM   22  N   UNL     1       5.101  34.835  68.594  1.00  0.00    -0.328 N 
HETATM   23  C   UNL     1       6.162  35.139  69.429  1.00  0.00     0.218 C 
HETATM   24  C   UNL     1       5.909  34.709  70.852  1.00  0.00     0.117 C 
HETATM   25  O   UNL     1       7.202  35.712  69.125  1.00  0.00    -0.274 OA
HETATM   26  H   UNL     1       4.289  34.414  69.028  1.00  0.00     0.169 HD
ENDBRANCH  19  22
ENDBRANCH   6  16
BRANCH  14  27
HETATM   27  C   UNL     1       5.212  33.272  61.979  1.00  0.00     0.256 C 
HETATM   28  N   UNL     1       6.519  33.380  61.560  1.00  0.00    -0.323 N 
HETATM   29  H   UNL     1       6.831  34.294  61.259  1.00  0.00     0.169 HD
HETATM   30  O   UNL     1       4.607  32.239  62.245  1.00  0.00    -0.267 OA
BRANCH  28  31
HETATM   31  C   UNL     1       7.504  32.369  61.589  1.00  0.00     0.035 A 
HETATM   32  C   UNL     1       7.661  31.459  62.637  1.00  0.00     0.029 A 
HETATM   33  C   UNL     1       8.698  30.521  62.617  1.00  0.00     0.002 A 
HETATM   34  C   UNL     1       9.592  30.487  61.551  1.00  0.00     0.000 A 
HETATM   35  C   UNL     1       9.443  31.386  60.497  1.00  0.00     0.002 A 
HETATM   36  C   UNL     1       8.402  32.318  60.514  1.00  0.00     0.029 A 
ENDBRANCH  28  31
ENDBRANCH  14  27
TORSDOF 4
ENDMDL
MODEL 5
REMARK VINA RESULT:      -8.9      2.008      6.273
REMARK  4 active torsions:
REMARK  status: ('A' for Active; 'I' for Inactive)
REMARK    1  A    between atoms: C_6  and  C_7 
REMARK    2  A    between atoms: C_10  and  N_11 
REMARK       I    between atoms: N_11  and  C_12 
REMARK    3  A    between atoms: C_24  and  C_25 
REMARK       I    between atoms: C_25  and  N_26 
REMARK    4  A    between atoms: N_26  and  C_27 
ROOT
HETATM    1  C   UNL     1       9.337  26.051  57.179  1.00  0.00     0.070 C 
HETATM    2  C   UNL     1       8.179  26.941  56.804  1.00  0.00     0.037 C 
HETATM    3  N   UNL     1       8.309  28.274  57.184  1.00  0.00    -0.193 N 
HETATM    4  C   UNL     1       7.259  29.111  57.300  1.00  0.00     0.709 A 
HETATM    5  N   UNL     1       6.048  28.734  56.777  1.00  0.00    -0.165 N 
HETATM    6  C   UNL     1       5.859  27.486  56.027  1.00  0.00     0.182 C 
HETATM    7  N   UNL     1       7.186  30.267  57.910  1.00  0.00    -0.062 NA
HETATM    8  C   UNL     1       5.858  30.625  57.830  1.00  0.00     0.103 A 
HETATM    9  C   UNL     1       5.114  29.673  57.132  1.00  0.00     0.082 A 
HETATM   10  C   UNL     1       5.208  31.754  58.350  1.00  0.00     0.034 A 
HETATM   11  C   UNL     1       3.827  31.886  58.160  1.00  0.00     0.002 A 
HETATM   12  C   UNL     1       3.106  30.918  57.458  1.00  0.00     0.002 A 
HETATM   13  C   UNL     1       3.735  29.788  56.923  1.00  0.00     0.032 A 
HETATM   14  C   UNL     1       7.023  26.523  56.230  1.00  0.00     0.061 C 
HETATM   15  H   UNL     1       9.149  28.529  57.698  1.00  0.00     0.184 HD
ENDROOT
BRANCH   6  16
HETATM   16  C   UNL     1       5.604  27.799  54.553  1.00  0.00    -0.030 A 
HETATM   17  C   UNL     1       4.308  27.842  54.017  1.00  0.00     0.012 A 
HETATM   18  C   UNL     1       4.097  28.055  52.649  1.00  0.00     0.030 A 
HETATM   19  C   UNL     1       5.177  28.242  51.788  1.00  0.00     0.034 A 
HETATM   20  C   UNL     1       6.471  28.244  52.322  1.00  0.00     0.030 A 
HETATM   21  C   UNL     1       6.684  28.032  53.689  1.00  0.00     0.012 A 
BRANCH  19  22
HETATM   22  N   UNL     1       5.053  28.400  50.392  1.00  0.00    -0.328 N 
HETATM   23  C   UNL     1       4.852  27.410  49.447  1.00  0.00     0.218 C 
HETATM   24  C   UNL     1       4.870  27.952  48.039  1.00  0.00     0.117 C 
HETATM   25  O   UNL     1       4.649  26.219  49.654  1.00  0.00    -0.274 OA
HETATM   26  H   UNL     1       5.142  29.347  50.044  1.00  0.00     0.169 HD
ENDBRANCH  19  22
ENDBRANCH   6  16
BRANCH  14  27
HETATM   27  C   UNL     1       6.685  25.105  55.915  1.00  0.00     0.256 C 
HETATM   28  N   UNL     1       7.554  24.488  55.043  1.00  0.00    -0.323 N 
HETATM   29  H   UNL     1       8.271  25.066  54.623  1.00  0.00     0.169 HD
HETATM   30  O   UNL     1       5.674  24.620  56.412  1.00  0.00    -0.267 OA
BRANCH  28  31
HETATM   31  C   UNL     1       7.611  23.111  54.735  1.00  0.00     0.035 A 
HETATM   32  C   UNL     1       7.643  22.097  55.694  1.00  0.00     0.029 A 
HETATM   33  C   UNL     1       7.756  20.757  55.310  1.00  0.00     0.002 A 
HETATM   34  C   UNL     1       7.846  20.419  53.963  1.00  0.00     0.000 A 
HETATM   35  C   UNL     1       7.812  21.421  52.997  1.00  0.00     0.002 A 
HETATM   36  C   UNL     1       7.690  22.760  53.381  1.00  0.00     0.029 A 
ENDBRANCH  28  31
ENDBRANCH  14  27
TORSDOF 4
ENDMDL
MODEL 6
REMARK VINA RESULT:      -8.2      3.804      7.333
REMARK  4 active torsions:
REMARK  status: ('A' for Active; 'I' for Inactive)
REMARK    1  A    between atoms: C_6  and  C_7 
REMARK    2  A    between atoms: C_10  and  N_11 
REMARK       I    between atoms: N_11  and  C_12 
REMARK    3  A    between atoms: C_24  and  C_25 
REMARK       I    between atoms: C_25  and  N_26 
REMARK    4  A    between atoms: N_26  and  C_27 
ROOT
HETATM    1  C   UNL     1      10.385  29.397  56.894  1.00  0.00     0.070 C 
HETATM    2  C   UNL     1       9.192  30.033  57.562  1.00  0.00     0.037 C 
HETATM    3  N   UNL     1       9.447  31.242  58.204  1.00  0.00    -0.193 N 
HETATM    4  C   UNL     1       8.647  31.747  59.164  1.00  0.00     0.709 A 
HETATM    5  N   UNL     1       7.399  31.206  59.342  1.00  0.00    -0.165 N 
HETATM    6  C   UNL     1       6.862  30.143  58.483  1.00  0.00     0.182 C 
HETATM    7  N   UNL     1       8.897  32.689  60.038  1.00  0.00    -0.062 NA
HETATM    8  C   UNL     1       7.788  32.717  60.854  1.00  0.00     0.103 A 
HETATM    9  C   UNL     1       6.832  31.786  60.448  1.00  0.00     0.082 A 
HETATM   10  C   UNL     1       7.534  33.509  61.984  1.00  0.00     0.034 A 
HETATM   11  C   UNL     1       6.328  33.335  62.674  1.00  0.00     0.002 A 
HETATM   12  C   UNL     1       5.388  32.395  62.246  1.00  0.00     0.002 A 
HETATM   13  C   UNL     1       5.618  31.599  61.117  1.00  0.00     0.032 A 
HETATM   14  C   UNL     1       7.957  29.478  57.658  1.00  0.00     0.061 C 
HETATM   15  H   UNL     1      10.407  31.579  58.193  1.00  0.00     0.184 HD
ENDROOT
BRANCH   6  16
HETATM   16  C   UNL     1       5.729  30.696  57.619  1.00  0.00    -0.030 A 
HETATM   17  C   UNL     1       4.430  30.167  57.672  1.00  0.00     0.012 A 
HETATM   18  C   UNL     1       3.423  30.635  56.820  1.00  0.00     0.030 A 
HETATM   19  C   UNL     1       3.688  31.650  55.902  1.00  0.00     0.034 A 
HETATM   20  C   UNL     1       4.969  32.214  55.874  1.00  0.00     0.030 A 
HETATM   21  C   UNL     1       5.978  31.748  56.725  1.00  0.00     0.012 A 
BRANCH  19  22
HETATM   22  N   UNL     1       2.748  32.134  54.969  1.00  0.00    -0.328 N 
HETATM   23  C   UNL     1       1.783  33.105  55.171  1.00  0.00     0.218 C 
HETATM   24  C   UNL     1       0.894  33.286  53.965  1.00  0.00     0.117 C 
HETATM   25  O   UNL     1       1.625  33.794  56.172  1.00  0.00    -0.274 OA
HETATM   26  H   UNL     1       2.773  31.705  54.052  1.00  0.00     0.169 HD
ENDBRANCH  19  22
ENDBRANCH   6  16
BRANCH  14  27
HETATM   27  C   UNL     1       7.585  28.123  57.156  1.00  0.00     0.256 C 
HETATM   28  N   UNL     1       7.075  28.105  55.877  1.00  0.00    -0.323 N 
HETATM   29  H   UNL     1       6.907  29.000  55.436  1.00  0.00     0.169 HD
HETATM   30  O   UNL     1       7.725  27.163  57.906  1.00  0.00    -0.267 OA
BRANCH  28  31
HETATM   31  C   UNL     1       6.843  26.968  55.073  1.00  0.00     0.035 A 
HETATM   32  C   UNL     1       5.867  26.005  55.344  1.00  0.00     0.029 A 
HETATM   33  C   UNL     1       5.736  24.876  54.530  1.00  0.00     0.002 A 
HETATM   34  C   UNL     1       6.582  24.695  53.440  1.00  0.00     0.000 A 
HETATM   35  C   UNL     1       7.555  25.650  53.156  1.00  0.00     0.002 A 
HETATM   36  C   UNL     1       7.681  26.782  53.966  1.00  0.00     0.029 A 
ENDBRANCH  28  31
ENDBRANCH  14  27
TORSDOF 4
ENDMDL
MODEL 7
REMARK VINA RESULT:      -8.1      2.835      8.779
REMARK  4 active torsions:
REMARK  status: ('A' for Active; 'I' for Inactive)
REMARK    1  A    between atoms: C_6  and  C_7 
REMARK    2  A    between atoms: C_10  and  N_11 
REMARK       I    between atoms: N_11  and  C_12 
REMARK    3  A    between atoms: C_24  and  C_25 
REMARK       I    between atoms: C_25  and  N_26 
REMARK    4  A    between atoms: N_26  and  C_27 
ROOT
HETATM    1  C   UNL     1       7.103  26.358  57.890  1.00  0.00     0.070 C 
HETATM    2  C   UNL     1       6.486  26.933  56.640  1.00  0.00     0.037 C 
HETATM    3  N   UNL     1       5.790  26.023  55.850  1.00  0.00    -0.193 N 
HETATM    4  C   UNL     1       5.522  26.236  54.546  1.00  0.00     0.709 A 
HETATM    5  N   UNL     1       5.695  27.495  54.029  1.00  0.00    -0.165 N 
HETATM    6  C   UNL     1       6.092  28.645  54.852  1.00  0.00     0.182 C 
HETATM    7  N   UNL     1       5.152  25.381  53.627  1.00  0.00    -0.062 NA
HETATM    8  C   UNL     1       5.143  26.104  52.455  1.00  0.00     0.103 A 
HETATM    9  C   UNL     1       5.493  27.437  52.674  1.00  0.00     0.082 A 
HETATM   10  C   UNL     1       4.859  25.678  51.148  1.00  0.00     0.034 A 
HETATM   11  C   UNL     1       4.944  26.605  50.102  1.00  0.00     0.002 A 
HETATM   12  C   UNL     1       5.296  27.933  50.350  1.00  0.00     0.002 A 
HETATM   13  C   UNL     1       5.577  28.382  51.646  1.00  0.00     0.032 A 
HETATM   14  C   UNL     1       6.640  28.209  56.205  1.00  0.00     0.061 C 
HETATM   15  H   UNL     1       5.778  25.054  56.160  1.00  0.00     0.184 HD
ENDROOT
BRANCH   6  16
HETATM   16  C   UNL     1       4.923  29.621  54.978  1.00  0.00    -0.030 A 
HETATM   17  C   UNL     1       4.063  29.609  56.088  1.00  0.00     0.012 A 
HETATM   18  C   UNL     1       2.953  30.460  56.151  1.00  0.00     0.030 A 
HETATM   19  C   UNL     1       2.682  31.349  55.113  1.00  0.00     0.034 A 
HETATM   20  C   UNL     1       3.559  31.398  54.024  1.00  0.00     0.030 A 
HETATM   21  C   UNL     1       4.671  30.550  53.957  1.00  0.00     0.012 A 
BRANCH  19  22
HETATM   22  N   UNL     1       1.552  32.193  55.073  1.00  0.00    -0.328 N 
HETATM   23  C   UNL     1       1.513  33.558  55.294  1.00  0.00     0.218 C 
HETATM   24  C   UNL     1       0.105  34.101  55.262  1.00  0.00     0.117 C 
HETATM   25  O   UNL     1       2.466  34.307  55.476  1.00  0.00    -0.274 OA
HETATM   26  H   UNL     1       0.668  31.740  54.877  1.00  0.00     0.169 HD
ENDBRANCH  19  22
ENDBRANCH   6  16
BRANCH  14  27
HETATM   27  C   UNL     1       7.486  29.245  56.867  1.00  0.00     0.256 C 
HETATM   28  N   UNL     1       6.955  29.763  58.027  1.00  0.00    -0.323 N 
HETATM   29  H   UNL     1       6.015  29.478  58.270  1.00  0.00     0.169 HD
HETATM   30  O   UNL     1       8.539  29.571  56.330  1.00  0.00    -0.267 OA
BRANCH  28  31
HETATM   31  C   UNL     1       7.614  30.586  58.967  1.00  0.00     0.035 A 
HETATM   32  C   UNL     1       8.880  30.314  59.491  1.00  0.00     0.029 A 
HETATM   33  C   UNL     1       9.442  31.149  60.463  1.00  0.00     0.002 A 
HETATM   34  C   UNL     1       8.741  32.260  60.924  1.00  0.00     0.000 A 
HETATM   35  C   UNL     1       7.480  32.543  60.405  1.00  0.00     0.002 A 
HETATM   36  C   UNL     1       6.922  31.713  59.429  1.00  0.00     0.029 A 
ENDBRANCH  28  31
ENDBRANCH  14  27
TORSDOF 4
ENDMDL
MODEL 8
REMARK VINA RESULT:      -7.8      3.158      7.169
REMARK  4 active torsions:
REMARK  status: ('A' for Active; 'I' for Inactive)
REMARK    1  A    between atoms: C_6  and  C_7 
REMARK    2  A    between atoms: C_10  and  N_11 
REMARK       I    between atoms: N_11  and  C_12 
REMARK    3  A    between atoms: C_24  and  C_25 
REMARK       I    between atoms: C_25  and  N_26 
REMARK    4  A    between atoms: N_26  and  C_27 
ROOT
HETATM    1  C   UNL     1       9.028  28.768  57.085  1.00  0.00     0.070 C 
HETATM    2  C   UNL     1       7.840  29.645  57.390  1.00  0.00     0.037 C 
HETATM    3  N   UNL     1       8.128  30.808  58.098  1.00  0.00    -0.193 N 
HETATM    4  C   UNL     1       7.199  31.494  58.793  1.00  0.00     0.709 A 
HETATM    5  N   UNL     1       5.873  31.207  58.593  1.00  0.00    -0.165 N 
HETATM    6  C   UNL     1       5.411  30.231  57.597  1.00  0.00     0.182 C 
HETATM    7  N   UNL     1       7.363  32.406  59.717  1.00  0.00    -0.062 NA
HETATM    8  C   UNL     1       6.094  32.676  60.177  1.00  0.00     0.103 A 
HETATM    9  C   UNL     1       5.134  31.927  59.496  1.00  0.00     0.082 A 
HETATM   10  C   UNL     1       5.683  33.548  61.197  1.00  0.00     0.034 A 
HETATM   11  C   UNL     1       4.320  33.633  61.506  1.00  0.00     0.002 A 
HETATM   12  C   UNL     1       3.381  32.871  60.808  1.00  0.00     0.002 A 
HETATM   13  C   UNL     1       3.766  32.001  59.781  1.00  0.00     0.032 A 
HETATM   14  C   UNL     1       6.547  29.338  57.114  1.00  0.00     0.061 C 
HETATM   15  H   UNL     1       9.097  30.956  58.371  1.00  0.00     0.184 HD
ENDROOT
BRANCH   6  16
HETATM   16  C   UNL     1       4.703  30.953  56.451  1.00  0.00    -0.030 A 
HETATM   17  C   UNL     1       5.293  32.035  55.779  1.00  0.00     0.012 A 
HETATM   18  C   UNL     1       4.600  32.732  54.782  1.00  0.00     0.030 A 
HETATM   19  C   UNL     1       3.305  32.359  54.428  1.00  0.00     0.034 A 
HETATM   20  C   UNL     1       2.726  31.254  55.063  1.00  0.00     0.030 A 
HETATM   21  C   UNL     1       3.417  30.554  56.059  1.00  0.00     0.012 A 
BRANCH  19  22
HETATM   22  N   UNL     1       2.517  33.046  53.481  1.00  0.00    -0.328 N 
HETATM   23  C   UNL     1       2.314  32.713  52.153  1.00  0.00     0.218 C 
HETATM   24  C   UNL     1       1.487  33.744  51.426  1.00  0.00     0.117 C 
HETATM   25  O   UNL     1       2.705  31.705  51.575  1.00  0.00    -0.274 OA
HETATM   26  H   UNL     1       2.066  33.891  53.810  1.00  0.00     0.169 HD
ENDBRANCH  19  22
ENDBRANCH   6  16
BRANCH  14  27
HETATM   27  C   UNL     1       6.081  28.059  56.503  1.00  0.00     0.256 C 
HETATM   28  N   UNL     1       6.356  27.931  55.160  1.00  0.00    -0.323 N 
HETATM   29  H   UNL     1       6.750  28.737  54.692  1.00  0.00     0.169 HD
HETATM   30  O   UNL     1       5.479  27.258  57.211  1.00  0.00    -0.267 OA
BRANCH  28  31
HETATM   31  C   UNL     1       6.230  26.762  54.376  1.00  0.00     0.035 A 
HETATM   32  C   UNL     1       5.110  26.461  53.597  1.00  0.00     0.029 A 
HETATM   33  C   UNL     1       5.037  25.255  52.892  1.00  0.00     0.002 A 
HETATM   34  C   UNL     1       6.081  24.337  52.964  1.00  0.00     0.000 A 
HETATM   35  C   UNL     1       7.204  24.628  53.734  1.00  0.00     0.002 A 
HETATM   36  C   UNL     1       7.279  25.837  54.432  1.00  0.00     0.029 A 
ENDBRANCH  28  31
ENDBRANCH  14  27
TORSDOF 4
ENDMDL
MODEL 9
REMARK VINA RESULT:      -7.8      3.852      7.217
REMARK  4 active torsions:
REMARK  status: ('A' for Active; 'I' for Inactive)
REMARK    1  A    between atoms: C_6  and  C_7 
REMARK    2  A    between atoms: C_10  and  N_11 
REMARK       I    between atoms: N_11  and  C_12 
REMARK    3  A    between atoms: C_24  and  C_25 
REMARK       I    between atoms: C_25  and  N_26 
REMARK    4  A    between atoms: N_26  and  C_27 
ROOT
HETATM    1  C   UNL     1       3.227  32.094  54.084  1.00  0.00     0.070 C 
HETATM    2  C   UNL     1       3.601  30.805  53.396  1.00  0.00     0.037 C 
HETATM    3  N   UNL     1       3.573  29.672  54.204  1.00  0.00    -0.193 N 
HETATM    4  C   UNL     1       4.235  28.537  53.903  1.00  0.00     0.709 A 
HETATM    5  N   UNL     1       4.742  28.379  52.638  1.00  0.00    -0.165 N 
HETATM    6  C   UNL     1       4.531  29.363  51.568  1.00  0.00     0.182 C 
HETATM    7  N   UNL     1       4.537  27.525  54.676  1.00  0.00    -0.062 NA
HETATM    8  C   UNL     1       5.323  26.707  53.896  1.00  0.00     0.103 A 
HETATM    9  C   UNL     1       5.480  27.224  52.610  1.00  0.00     0.082 A 
HETATM   10  C   UNL     1       5.957  25.500  54.229  1.00  0.00     0.034 A 
HETATM   11  C   UNL     1       6.736  24.856  53.261  1.00  0.00     0.002 A 
HETATM   12  C   UNL     1       6.876  25.396  51.980  1.00  0.00     0.002 A 
HETATM   13  C   UNL     1       6.246  26.594  51.623  1.00  0.00     0.032 A 
HETATM   14  C   UNL     1       4.041  30.697  52.116  1.00  0.00     0.061 C 
HETATM   15  H   UNL     1       3.332  29.807  55.183  1.00  0.00     0.184 HD
ENDROOT
BRANCH   6  16
HETATM   16  C   UNL     1       3.597  28.784  50.506  1.00  0.00    -0.030 A 
HETATM   17  C   UNL     1       4.082  28.064  49.403  1.00  0.00     0.012 A 
HETATM   18  C   UNL     1       3.218  27.607  48.401  1.00  0.00     0.030 A 
HETATM   19  C   UNL     1       1.848  27.848  48.483  1.00  0.00     0.034 A 
HETATM   20  C   UNL     1       1.351  28.527  49.602  1.00  0.00     0.030 A 
HETATM   21  C   UNL     1       2.212  28.986  50.606  1.00  0.00     0.012 A 
BRANCH  19  22
HETATM   22  N   UNL     1       0.921  27.476  47.488  1.00  0.00    -0.328 N 
HETATM   23  C   UNL     1       0.436  28.258  46.454  1.00  0.00     0.218 C 
HETATM   24  C   UNL     1      -0.619  27.545  45.645  1.00  0.00     0.117 C 
HETATM   25  O   UNL     1       0.792  29.392  46.154  1.00  0.00    -0.274 OA
HETATM   26  H   UNL     1       0.557  26.533  47.552  1.00  0.00     0.169 HD
ENDBRANCH  19  22
ENDBRANCH   6  16
BRANCH  14  27
HETATM   27  C   UNL     1       4.271  31.844  51.189  1.00  0.00     0.256 C 
HETATM   28  N   UNL     1       5.588  32.223  51.062  1.00  0.00    -0.323 N 
HETATM   29  H   UNL     1       6.258  31.770  51.669  1.00  0.00     0.169 HD
HETATM   30  O   UNL     1       3.299  32.367  50.655  1.00  0.00    -0.267 OA
BRANCH  28  31
HETATM   31  C   UNL     1       6.124  33.118  50.110  1.00  0.00     0.035 A 
HETATM   32  C   UNL     1       6.548  32.740  48.833  1.00  0.00     0.029 A 
HETATM   33  C   UNL     1       7.121  33.676  47.967  1.00  0.00     0.002 A 
HETATM   34  C   UNL     1       7.281  34.998  48.370  1.00  0.00     0.000 A 
HETATM   35  C   UNL     1       6.859  35.389  49.638  1.00  0.00     0.002 A 
HETATM   36  C   UNL     1       6.279  34.454  50.501  1.00  0.00     0.029 A 
ENDBRANCH  28  31
ENDBRANCH  14  27
TORSDOF 4
ENDMDL
MODEL 10
REMARK VINA RESULT:      -7.8      3.614      7.403
REMARK  4 active torsions:
REMARK  status: ('A' for Active; 'I' for Inactive)
REMARK    1  A    between atoms: C_6  and  C_7 
REMARK    2  A    between atoms: C_10  and  N_11 
REMARK       I    between atoms: N_11  and  C_12 
REMARK    3  A    between atoms: C_24  and  C_25 
REMARK       I    between atoms: C_25  and  N_26 
REMARK    4  A    between atoms: N_26  and  C_27 
ROOT
HETATM    1  C   UNL     1       3.935  25.905  48.057  1.00  0.00     0.070 C 
HETATM    2  C   UNL     1       4.315  26.804  49.206  1.00  0.00     0.037 C 
HETATM    3  N   UNL     1       5.422  26.392  49.941  1.00  0.00    -0.193 N 
HETATM    4  C   UNL     1       5.670  26.814  51.197  1.00  0.00     0.709 A 
HETATM    5  N   UNL     1       4.970  27.887  51.687  1.00  0.00    -0.165 N 
HETATM    6  C   UNL     1       4.010  28.648  50.878  1.00  0.00     0.182 C 
HETATM    7  N   UNL     1       6.477  26.310  52.095  1.00  0.00    -0.062 NA
HETATM    8  C   UNL     1       6.246  27.050  53.233  1.00  0.00     0.103 A 
HETATM    9  C   UNL     1       5.293  28.044  53.011  1.00  0.00     0.082 A 
HETATM   10  C   UNL     1       6.809  26.917  54.512  1.00  0.00     0.034 A 
HETATM   11  C   UNL     1       6.389  27.783  55.529  1.00  0.00     0.002 A 
HETATM   12  C   UNL     1       5.433  28.769  55.278  1.00  0.00     0.002 A 
HETATM   13  C   UNL     1       4.863  28.925  54.009  1.00  0.00     0.032 A 
HETATM   14  C   UNL     1       3.616  27.894  49.613  1.00  0.00     0.061 C 
HETATM   15  H   UNL     1       5.862  25.517  49.664  1.00  0.00     0.184 HD
ENDROOT
BRANCH   6  16
HETATM   16  C   UNL     1       4.566  30.040  50.583  1.00  0.00    -0.030 A 
HETATM   17  C   UNL     1       5.671  30.235  49.740  1.00  0.00     0.012 A 
HETATM   18  C   UNL     1       6.214  31.510  49.542  1.00  0.00     0.030 A 
HETATM   19  C   UNL     1       5.658  32.622  50.172  1.00  0.00     0.034 A 
HETATM   20  C   UNL     1       4.529  32.442  50.980  1.00  0.00     0.030 A 
HETATM   21  C   UNL     1       3.984  31.169  51.180  1.00  0.00     0.012 A 
BRANCH  19  22
HETATM   22  N   UNL     1       6.182  33.928  50.074  1.00  0.00    -0.328 N 
HETATM   23  C   UNL     1       6.277  34.714  48.939  1.00  0.00     0.218 C 
HETATM   24  C   UNL     1       6.986  36.018  49.206  1.00  0.00     0.117 C 
HETATM   25  O   UNL     1       5.839  34.458  47.824  1.00  0.00    -0.274 OA
HETATM   26  H   UNL     1       6.546  34.324  50.932  1.00  0.00     0.169 HD
ENDBRANCH  19  22
ENDBRANCH   6  16
BRANCH  14  27
HETATM   27  C   UNL     1       2.329  28.359  49.018  1.00  0.00     0.256 C 
HETATM   28  N   UNL     1       2.363  28.550  47.655  1.00  0.00    -0.323 N 
HETATM   29  H   UNL     1       3.261  28.458  47.200  1.00  0.00     0.169 HD
HETATM   30  O   UNL     1       1.379  28.562  49.767  1.00  0.00    -0.267 OA
BRANCH  28  31
HETATM   31  C   UNL     1       1.259  28.774  46.803  1.00  0.00     0.035 A 
HETATM   32  C   UNL     1       0.855  30.036  46.363  1.00  0.00     0.029 A 
HETATM   33  C   UNL     1      -0.284  30.181  45.565  1.00  0.00     0.002 A 
HETATM   34  C   UNL     1      -1.034  29.065  45.203  1.00  0.00     0.000 A 
HETATM   35  C   UNL     1      -0.638  27.801  45.632  1.00  0.00     0.002 A 
HETATM   36  C   UNL     1       0.505  27.656  46.423  1.00  0.00     0.029 A 
ENDBRANCH  28  31
ENDBRANCH  14  27
TORSDOF 4
ENDMDL
