MODEL 1
REMARK VINA RESULT:     -10.9      0.000      0.000
REMARK  9 active torsions:
REMARK  status: ('A' for Active; 'I' for Inactive)
REMARK    1  A    between atoms: C_2  and  C_3 
REMARK    2  A    between atoms: C_6  and  N_7 
REMARK       I    between atoms: N_7  and  C_8 
REMARK    3  A    between atoms: C_8  and  C_9 
REMARK    4  A    between atoms: C_9  and  S_10 
REMARK    5  A    between atoms: S_10  and  C_11 
REMARK    6  A    between atoms: C_15  and  C_16 
REMARK       I    between atoms: C_16  and  N_17 
REMARK    7  A    between atoms: N_17  and  C_18 
REMARK    8  A    between atoms: C_19  and  O_20 
REMARK    9  A    between atoms: C_27  and  C_28 
ROOT
HETATM    1  C   UNL     1       6.364  28.246  57.142  1.00  0.00     0.087 C 
HETATM    2  N   UNL     1       7.177  27.274  57.709  1.00  0.00    -0.353 N 
HETATM    3  C   UNL     1       7.525  26.084  57.086  1.00  0.00     0.019 C 
HETATM    4  C   UNL     1       8.638  25.299  57.741  1.00  0.00     0.069 C 
HETATM    5  C   UNL     1       6.899  25.716  55.945  1.00  0.00     0.046 C 
HETATM    6  C   UNL     1       5.677  26.493  55.460  1.00  0.00     0.104 C 
HETATM    7  C   UNL     1       5.549  27.879  56.118  1.00  0.00     0.055 C 
HETATM    8  C   UNL     1       4.399  28.758  55.655  1.00  0.00     0.019 C 
HETATM    9  N   UNL     1       3.444  29.487  55.270  1.00  0.00    -0.096 N 
HETATM   10  H   UNL     1       7.829  27.578  58.426  1.00  0.00     0.166 HD
ENDROOT
BRANCH   1  11
HETATM   11  S   UNL     1       6.414  29.947  57.594  1.00  0.00    -0.102 SA
BRANCH  11  12
HETATM   12  C   UNL     1       8.122  30.333  58.024  1.00  0.00     0.184 C 
BRANCH  12  13
HETATM   13  C   UNL     1       8.386  31.254  59.213  1.00  0.00     0.231 C 
HETATM   14  N   UNL     1       7.778  30.921  60.405  1.00  0.00    -0.327 N 
HETATM   15  H   UNL     1       7.383  29.988  60.464  1.00  0.00     0.169 HD
HETATM   16  O   UNL     1       9.047  32.275  59.021  1.00  0.00    -0.272 OA
BRANCH  14  17
HETATM   17  C   UNL     1       7.440  31.802  61.459  1.00  0.00     0.034 A 
HETATM   18  C   UNL     1       6.189  32.405  61.600  1.00  0.00     0.030 A 
HETATM   19  C   UNL     1       5.857  33.093  62.774  1.00  0.00     0.009 A 
HETATM   20  C   UNL     1       6.773  33.194  63.827  1.00  0.00    -0.058 A 
HETATM   21  C   UNL     1       8.048  32.645  63.659  1.00  0.00     0.009 A 
HETATM   22  C   UNL     1       8.382  31.968  62.480  1.00  0.00     0.030 A 
BRANCH  20  23
HETATM   23  C   UNL     1       6.362  33.799  65.145  1.00  0.00     0.034 C 
HETATM   24  C   UNL     1       4.868  33.628  65.395  1.00  0.00     0.010 C 
ENDBRANCH  20  23
ENDBRANCH  14  17
ENDBRANCH  12  13
ENDBRANCH  11  12
ENDBRANCH   1  11
BRANCH   6  25
HETATM   25  C   UNL     1       5.576  26.592  53.939  1.00  0.00    -0.044 A 
HETATM   26  C   UNL     1       4.976  25.549  53.211  1.00  0.00     0.008 A 
HETATM   27  C   UNL     1       4.896  25.607  51.820  1.00  0.00     0.001 A 
HETATM   28  C   UNL     1       5.411  26.706  51.138  1.00  0.00     0.000 A 
HETATM   29  C   UNL     1       6.000  27.751  51.845  1.00  0.00     0.001 A 
HETATM   30  C   UNL     1       6.080  27.700  53.238  1.00  0.00     0.008 A 
ENDBRANCH   6  25
BRANCH   5  31
HETATM   31  C   UNL     1       7.624  24.764  55.049  1.00  0.00     0.255 C 
HETATM   32  N   UNL     1       7.488  23.434  55.353  1.00  0.00    -0.321 N 
HETATM   33  H   UNL     1       7.041  23.160  56.219  1.00  0.00     0.169 HD
HETATM   34  O   UNL     1       8.244  25.222  54.093  1.00  0.00    -0.268 OA
BRANCH  32  35
HETATM   35  C   UNL     1       7.849  22.342  54.521  1.00  0.00     0.068 A 
HETATM   36  C   UNL     1       8.665  21.338  55.080  1.00  0.00     0.095 A 
HETATM   37  C   UNL     1       9.006  20.214  54.315  1.00  0.00     0.039 A 
HETATM   38  C   UNL     1       8.552  20.088  53.002  1.00  0.00     0.003 A 
HETATM   39  C   UNL     1       7.755  21.080  52.444  1.00  0.00     0.002 A 
HETATM   40  C   UNL     1       7.404  22.200  53.201  1.00  0.00     0.032 A 
BRANCH  36  41
HETATM   41  O   UNL     1       9.062  21.547  56.382  1.00  0.00    -0.354 OA
HETATM   42  C   UNL     1       8.270  20.923  57.387  1.00  0.00     0.210 C 
ENDBRANCH  36  41
ENDBRANCH  32  35
ENDBRANCH   5  31
TORSDOF 9
ENDMDL
MODEL 2
REMARK VINA RESULT:     -10.6      1.613      2.307
REMARK  9 active torsions:
REMARK  status: ('A' for Active; 'I' for Inactive)
REMARK    1  A    between atoms: C_2  and  C_3 
REMARK    2  A    between atoms: C_6  and  N_7 
REMARK       I    between atoms: N_7  and  C_8 
REMARK    3  A    between atoms: C_8  and  C_9 
REMARK    4  A    between atoms: C_9  and  S_10 
REMARK    5  A    between atoms: S_10  and  C_11 
REMARK    6  A    between atoms: C_15  and  C_16 
REMARK       I    between atoms: C_16  and  N_17 
REMARK    7  A    between atoms: N_17  and  C_18 
REMARK    8  A    between atoms: C_19  and  O_20 
REMARK    9  A    between atoms: C_27  and  C_28 
ROOT
HETATM    1  C   UNL     1       7.365  29.180  57.572  1.00  0.00     0.087 C 
HETATM    2  N   UNL     1       7.669  27.920  58.071  1.00  0.00    -0.353 N 
HETATM    3  C   UNL     1       7.243  26.729  57.500  1.00  0.00     0.019 C 
HETATM    4  C   UNL     1       7.910  25.475  58.016  1.00  0.00     0.069 C 
HETATM    5  C   UNL     1       6.311  26.751  56.519  1.00  0.00     0.046 C 
HETATM    6  C   UNL     1       5.581  28.051  56.189  1.00  0.00     0.104 C 
HETATM    7  C   UNL     1       6.298  29.297  56.739  1.00  0.00     0.055 C 
HETATM    8  C   UNL     1       5.684  30.647  56.409  1.00  0.00     0.019 C 
HETATM    9  N   UNL     1       5.173  31.768  56.135  1.00  0.00    -0.096 N 
HETATM   10  H   UNL     1       8.508  27.836  58.636  1.00  0.00     0.166 HD
ENDROOT
BRANCH   1  11
HETATM   11  S   UNL     1       8.352  30.609  57.864  1.00  0.00    -0.102 SA
BRANCH  11  12
HETATM   12  C   UNL     1       9.064  30.436  59.511  1.00  0.00     0.184 C 
BRANCH  12  13
HETATM   13  C   UNL     1       8.775  31.517  60.549  1.00  0.00     0.231 C 
HETATM   14  N   UNL     1       8.135  31.116  61.703  1.00  0.00    -0.327 N 
HETATM   15  H   UNL     1       8.097  30.116  61.873  1.00  0.00     0.169 HD
HETATM   16  O   UNL     1       9.047  32.684  60.265  1.00  0.00    -0.272 OA
BRANCH  14  17
HETATM   17  C   UNL     1       7.330  31.916  62.547  1.00  0.00     0.034 A 
HETATM   18  C   UNL     1       5.935  31.930  62.510  1.00  0.00     0.030 A 
HETATM   19  C   UNL     1       5.201  32.581  63.511  1.00  0.00     0.009 A 
HETATM   20  C   UNL     1       5.851  33.232  64.565  1.00  0.00    -0.058 A 
HETATM   21  C   UNL     1       7.248  33.273  64.566  1.00  0.00     0.009 A 
HETATM   22  C   UNL     1       7.980  32.632  63.559  1.00  0.00     0.030 A 
BRANCH  20  23
HETATM   23  C   UNL     1       5.063  33.797  65.719  1.00  0.00     0.034 C 
HETATM   24  C   UNL     1       3.989  34.767  65.238  1.00  0.00     0.010 C 
ENDBRANCH  20  23
ENDBRANCH  14  17
ENDBRANCH  12  13
ENDBRANCH  11  12
ENDBRANCH   1  11
BRANCH   6  25
HETATM   25  C   UNL     1       5.256  28.212  54.705  1.00  0.00    -0.044 A 
HETATM   26  C   UNL     1       3.913  28.261  54.287  1.00  0.00     0.008 A 
HETATM   27  C   UNL     1       3.592  28.381  52.935  1.00  0.00     0.001 A 
HETATM   28  C   UNL     1       4.605  28.459  51.984  1.00  0.00     0.000 A 
HETATM   29  C   UNL     1       5.939  28.421  52.382  1.00  0.00     0.001 A 
HETATM   30  C   UNL     1       6.266  28.303  53.734  1.00  0.00     0.008 A 
ENDBRANCH   6  25
BRANCH   5  31
HETATM   31  C   UNL     1       6.271  25.576  55.594  1.00  0.00     0.255 C 
HETATM   32  N   UNL     1       7.479  24.994  55.314  1.00  0.00    -0.321 N 
HETATM   33  H   UNL     1       8.336  25.445  55.613  1.00  0.00     0.169 HD
HETATM   34  O   UNL     1       5.177  25.192  55.190  1.00  0.00    -0.268 OA
BRANCH  32  35
HETATM   35  C   UNL     1       7.679  23.734  54.691  1.00  0.00     0.068 A 
HETATM   36  C   UNL     1       7.986  23.728  53.315  1.00  0.00     0.095 A 
HETATM   37  C   UNL     1       8.243  22.512  52.667  1.00  0.00     0.039 A 
HETATM   38  C   UNL     1       8.186  21.309  53.370  1.00  0.00     0.003 A 
HETATM   39  C   UNL     1       7.874  21.310  54.725  1.00  0.00     0.002 A 
HETATM   40  C   UNL     1       7.624  22.517  55.381  1.00  0.00     0.032 A 
BRANCH  36  41
HETATM   41  O   UNL     1       8.022  24.962  52.706  1.00  0.00    -0.354 OA
HETATM   42  C   UNL     1       7.048  25.190  51.694  1.00  0.00     0.210 C 
ENDBRANCH  36  41
ENDBRANCH  32  35
ENDBRANCH   5  31
TORSDOF 9
ENDMDL
MODEL 3
REMARK VINA RESULT:     -10.4      2.783      5.513
REMARK  9 active torsions:
REMARK  status: ('A' for Active; 'I' for Inactive)
REMARK    1  A    between atoms: C_2  and  C_3 
REMARK    2  A    between atoms: C_6  and  N_7 
REMARK       I    between atoms: N_7  and  C_8 
REMARK    3  A    between atoms: C_8  and  C_9 
REMARK    4  A    between atoms: C_9  and  S_10 
REMARK    5  A    between atoms: S_10  and  C_11 
REMARK    6  A    between atoms: C_15  and  C_16 
REMARK       I    between atoms: C_16  and  N_17 
REMARK    7  A    between atoms: N_17  and  C_18 
REMARK    8  A    between atoms: C_19  and  O_20 
REMARK    9  A    between atoms: C_27  and  C_28 
ROOT
HETATM    1  C   UNL     1       6.187  29.929  56.284  1.00  0.00     0.087 C 
HETATM    2  N   UNL     1       5.300  30.663  55.508  1.00  0.00    -0.353 N 
HETATM    3  C   UNL     1       4.780  30.232  54.295  1.00  0.00     0.019 C 
HETATM    4  C   UNL     1       3.622  31.038  53.752  1.00  0.00     0.069 C 
HETATM    5  C   UNL     1       5.292  29.132  53.698  1.00  0.00     0.046 C 
HETATM    6  C   UNL     1       6.566  28.491  54.245  1.00  0.00     0.104 C 
HETATM    7  C   UNL     1       6.893  28.936  55.681  1.00  0.00     0.055 C 
HETATM    8  C   UNL     1       8.109  28.305  56.339  1.00  0.00     0.019 C 
HETATM    9  N   UNL     1       9.118  27.781  56.884  1.00  0.00    -0.096 N 
HETATM   10  H   UNL     1       4.730  31.354  55.986  1.00  0.00     0.166 HD
ENDROOT
BRANCH   1  11
HETATM   11  S   UNL     1       6.361  30.133  58.024  1.00  0.00    -0.102 SA
BRANCH  11  12
HETATM   12  C   UNL     1       7.951  30.934  58.309  1.00  0.00     0.184 C 
BRANCH  12  13
HETATM   13  C   UNL     1       8.193  31.622  59.649  1.00  0.00     0.231 C 
HETATM   14  N   UNL     1       7.652  31.020  60.765  1.00  0.00    -0.327 N 
HETATM   15  H   UNL     1       7.323  30.067  60.648  1.00  0.00     0.169 HD
HETATM   16  O   UNL     1       8.776  32.707  59.648  1.00  0.00    -0.272 OA
BRANCH  14  17
HETATM   17  C   UNL     1       7.291  31.652  61.978  1.00  0.00     0.034 A 
HETATM   18  C   UNL     1       8.206  32.039  62.959  1.00  0.00     0.030 A 
HETATM   19  C   UNL     1       7.803  32.845  64.032  1.00  0.00     0.009 A 
HETATM   20  C   UNL     1       6.477  33.275  64.145  1.00  0.00    -0.058 A 
HETATM   21  C   UNL     1       5.548  32.833  63.199  1.00  0.00     0.009 A 
HETATM   22  C   UNL     1       5.949  32.018  62.134  1.00  0.00     0.030 A 
BRANCH  20  23
HETATM   23  C   UNL     1       6.080  34.264  65.211  1.00  0.00     0.034 C 
HETATM   24  C   UNL     1       4.783  33.851  65.899  1.00  0.00     0.010 C 
ENDBRANCH  20  23
ENDBRANCH  14  17
ENDBRANCH  12  13
ENDBRANCH  11  12
ENDBRANCH   1  11
BRANCH   6  25
HETATM   25  C   UNL     1       6.590  26.968  54.120  1.00  0.00    -0.044 A 
HETATM   26  C   UNL     1       7.354  26.364  53.105  1.00  0.00     0.008 A 
HETATM   27  C   UNL     1       7.370  24.978  52.957  1.00  0.00     0.001 A 
HETATM   28  C   UNL     1       6.628  24.176  53.820  1.00  0.00     0.000 A 
HETATM   29  C   UNL     1       5.873  24.759  54.835  1.00  0.00     0.001 A 
HETATM   30  C   UNL     1       5.856  26.146  54.990  1.00  0.00     0.008 A 
ENDBRANCH   6  25
BRANCH   5  31
HETATM   31  C   UNL     1       4.410  28.411  52.729  1.00  0.00     0.255 C 
HETATM   32  N   UNL     1       4.759  28.520  51.408  1.00  0.00    -0.321 N 
HETATM   33  H   UNL     1       5.483  29.173  51.132  1.00  0.00     0.169 HD
HETATM   34  O   UNL     1       3.478  27.747  53.173  1.00  0.00    -0.268 OA
BRANCH  32  35
HETATM   35  C   UNL     1       4.255  27.734  50.339  1.00  0.00     0.068 A 
HETATM   36  C   UNL     1       3.276  28.315  49.508  1.00  0.00     0.095 A 
HETATM   37  C   UNL     1       2.784  27.598  48.409  1.00  0.00     0.039 A 
HETATM   38  C   UNL     1       3.249  26.310  48.139  1.00  0.00     0.003 A 
HETATM   39  C   UNL     1       4.207  25.731  48.962  1.00  0.00     0.002 A 
HETATM   40  C   UNL     1       4.708  26.440  50.054  1.00  0.00     0.032 A 
BRANCH  36  41
HETATM   41  O   UNL     1       2.881  29.588  49.850  1.00  0.00    -0.354 OA
HETATM   42  C   UNL     1       1.553  29.720  50.348  1.00  0.00     0.210 C 
ENDBRANCH  36  41
ENDBRANCH  32  35
ENDBRANCH   5  31
TORSDOF 9
ENDMDL
MODEL 4
REMARK VINA RESULT:     -10.1      3.190      6.116
REMARK  9 active torsions:
REMARK  status: ('A' for Active; 'I' for Inactive)
REMARK    1  A    between atoms: C_2  and  C_3 
REMARK    2  A    between atoms: C_6  and  N_7 
REMARK       I    between atoms: N_7  and  C_8 
REMARK    3  A    between atoms: C_8  and  C_9 
REMARK    4  A    between atoms: C_9  and  S_10 
REMARK    5  A    between atoms: S_10  and  C_11 
REMARK    6  A    between atoms: C_15  and  C_16 
REMARK       I    between atoms: C_16  and  N_17 
REMARK    7  A    between atoms: N_17  and  C_18 
REMARK    8  A    between atoms: C_19  and  O_20 
REMARK    9  A    between atoms: C_27  and  C_28 
ROOT
HETATM    1  C   UNL     1       4.668  29.734  54.744  1.00  0.00     0.087 C 
HETATM    2  N   UNL     1       4.329  30.506  53.640  1.00  0.00    -0.353 N 
HETATM    3  C   UNL     1       4.548  30.127  52.323  1.00  0.00     0.019 C 
HETATM    4  C   UNL     1       3.855  30.964  51.273  1.00  0.00     0.069 C 
HETATM    5  C   UNL     1       5.314  29.045  52.055  1.00  0.00     0.046 C 
HETATM    6  C   UNL     1       6.102  28.371  53.177  1.00  0.00     0.104 C 
HETATM    7  C   UNL     1       5.599  28.758  54.579  1.00  0.00     0.055 C 
HETATM    8  C   UNL     1       6.278  28.091  55.764  1.00  0.00     0.019 C 
HETATM    9  N   UNL     1       6.842  27.536  56.746  1.00  0.00    -0.096 N 
HETATM   10  H   UNL     1       3.584  31.185  53.762  1.00  0.00     0.166 HD
ENDROOT
BRANCH   1  11
HETATM   11  S   UNL     1       3.877  29.871  56.311  1.00  0.00    -0.102 SA
BRANCH  11  12
HETATM   12  C   UNL     1       3.835  31.623  56.734  1.00  0.00     0.184 C 
BRANCH  12  13
HETATM   13  C   UNL     1       5.007  32.215  57.512  1.00  0.00     0.231 C 
HETATM   14  N   UNL     1       5.473  31.487  58.586  1.00  0.00    -0.327 N 
HETATM   15  H   UNL     1       5.154  30.526  58.652  1.00  0.00     0.169 HD
HETATM   16  O   UNL     1       5.408  33.335  57.194  1.00  0.00    -0.272 OA
BRANCH  14  17
HETATM   17  C   UNL     1       6.148  31.991  59.722  1.00  0.00     0.034 A 
HETATM   18  C   UNL     1       5.542  32.772  60.708  1.00  0.00     0.030 A 
HETATM   19  C   UNL     1       6.212  33.057  61.905  1.00  0.00     0.009 A 
HETATM   20  C   UNL     1       7.502  32.567  62.136  1.00  0.00    -0.058 A 
HETATM   21  C   UNL     1       8.133  31.839  61.122  1.00  0.00     0.009 A 
HETATM   22  C   UNL     1       7.467  31.566  59.922  1.00  0.00     0.030 A 
BRANCH  20  23
HETATM   23  C   UNL     1       8.160  32.743  63.481  1.00  0.00     0.034 C 
HETATM   24  C   UNL     1       7.165  33.235  64.527  1.00  0.00     0.010 C 
ENDBRANCH  20  23
ENDBRANCH  14  17
ENDBRANCH  12  13
ENDBRANCH  11  12
ENDBRANCH   1  11
BRANCH   6  25
HETATM   25  C   UNL     1       6.207  26.854  53.028  1.00  0.00    -0.044 A 
HETATM   26  C   UNL     1       7.439  26.272  52.675  1.00  0.00     0.008 A 
HETATM   27  C   UNL     1       7.551  24.892  52.508  1.00  0.00     0.001 A 
HETATM   28  C   UNL     1       6.440  24.075  52.695  1.00  0.00     0.000 A 
HETATM   29  C   UNL     1       5.216  24.635  53.053  1.00  0.00     0.001 A 
HETATM   30  C   UNL     1       5.098  26.015  53.223  1.00  0.00     0.008 A 
ENDBRANCH   6  25
BRANCH   5  31
HETATM   31  C   UNL     1       5.101  28.370  50.738  1.00  0.00     0.255 C 
HETATM   32  N   UNL     1       3.932  27.667  50.609  1.00  0.00    -0.321 N 
HETATM   33  H   UNL     1       3.345  27.514  51.420  1.00  0.00     0.169 HD
HETATM   34  O   UNL     1       5.947  28.525  49.861  1.00  0.00    -0.268 OA
BRANCH  32  35
HETATM   35  C   UNL     1       3.381  27.170  49.398  1.00  0.00     0.068 A 
HETATM   36  C   UNL     1       2.306  27.881  48.829  1.00  0.00     0.095 A 
HETATM   37  C   UNL     1       1.762  27.459  47.609  1.00  0.00     0.039 A 
HETATM   38  C   UNL     1       2.271  26.335  46.959  1.00  0.00     0.003 A 
HETATM   39  C   UNL     1       3.326  25.625  47.521  1.00  0.00     0.002 A 
HETATM   40  C   UNL     1       3.879  26.042  48.733  1.00  0.00     0.032 A 
BRANCH  36  41
HETATM   41  O   UNL     1       1.872  28.977  49.541  1.00  0.00    -0.354 OA
HETATM   42  C   UNL     1       1.216  29.992  48.789  1.00  0.00     0.210 C 
ENDBRANCH  36  41
ENDBRANCH  32  35
ENDBRANCH   5  31
TORSDOF 9
ENDMDL
MODEL 5
REMARK VINA RESULT:      -9.9      2.238      3.188
REMARK  9 active torsions:
REMARK  status: ('A' for Active; 'I' for Inactive)
REMARK    1  A    between atoms: C_2  and  C_3 
REMARK    2  A    between atoms: C_6  and  N_7 
REMARK       I    between atoms: N_7  and  C_8 
REMARK    3  A    between atoms: C_8  and  C_9 
REMARK    4  A    between atoms: C_9  and  S_10 
REMARK    5  A    between atoms: S_10  and  C_11 
REMARK    6  A    between atoms: C_15  and  C_16 
REMARK       I    between atoms: C_16  and  N_17 
REMARK    7  A    between atoms: N_17  and  C_18 
REMARK    8  A    between atoms: C_19  and  O_20 
REMARK    9  A    between atoms: C_27  and  C_28 
ROOT
HETATM    1  C   UNL     1       5.151  31.035  57.367  1.00  0.00     0.087 C 
HETATM    2  N   UNL     1       6.161  30.264  57.926  1.00  0.00    -0.353 N 
HETATM    3  C   UNL     1       6.693  29.125  57.338  1.00  0.00     0.019 C 
HETATM    4  C   UNL     1       7.967  28.598  57.956  1.00  0.00     0.069 C 
HETATM    5  C   UNL     1       6.087  28.583  56.257  1.00  0.00     0.046 C 
HETATM    6  C   UNL     1       4.716  29.092  55.815  1.00  0.00     0.104 C 
HETATM    7  C   UNL     1       4.365  30.465  56.415  1.00  0.00     0.055 C 
HETATM    8  C   UNL     1       3.048  31.089  55.985  1.00  0.00     0.019 C 
HETATM    9  N   UNL     1       1.954  31.605  55.628  1.00  0.00    -0.096 N 
HETATM   10  H   UNL     1       6.782  30.723  58.585  1.00  0.00     0.166 HD
ENDROOT
BRANCH   1  11
HETATM   11  S   UNL     1       4.905  32.739  57.736  1.00  0.00    -0.102 SA
BRANCH  11  12
HETATM   12  C   UNL     1       4.131  32.825  59.362  1.00  0.00     0.184 C 
BRANCH  12  13
HETATM   13  C   UNL     1       4.920  33.440  60.515  1.00  0.00     0.231 C 
HETATM   14  N   UNL     1       5.641  32.573  61.308  1.00  0.00    -0.327 N 
HETATM   15  H   UNL     1       5.770  31.633  60.948  1.00  0.00     0.169 HD
HETATM   16  O   UNL     1       4.800  34.648  60.721  1.00  0.00    -0.272 OA
BRANCH  14  17
HETATM   17  C   UNL     1       6.016  32.772  62.658  1.00  0.00     0.034 A 
HETATM   18  C   UNL     1       7.336  32.921  63.087  1.00  0.00     0.030 A 
HETATM   19  C   UNL     1       7.618  33.324  64.399  1.00  0.00     0.009 A 
HETATM   20  C   UNL     1       6.585  33.581  65.305  1.00  0.00    -0.058 A 
HETATM   21  C   UNL     1       5.265  33.369  64.894  1.00  0.00     0.009 A 
HETATM   22  C   UNL     1       4.986  32.955  63.587  1.00  0.00     0.030 A 
BRANCH  20  23
HETATM   23  C   UNL     1       6.884  34.161  66.665  1.00  0.00     0.034 C 
HETATM   24  C   UNL     1       5.605  34.415  67.455  1.00  0.00     0.010 C 
ENDBRANCH  20  23
ENDBRANCH  14  17
ENDBRANCH  12  13
ENDBRANCH  11  12
ENDBRANCH   1  11
BRANCH   6  25
HETATM   25  C   UNL     1       4.517  29.084  54.301  1.00  0.00    -0.044 A 
HETATM   26  C   UNL     1       4.838  30.229  53.549  1.00  0.00     0.008 A 
HETATM   27  C   UNL     1       4.640  30.253  52.169  1.00  0.00     0.001 A 
HETATM   28  C   UNL     1       4.125  29.134  51.520  1.00  0.00     0.000 A 
HETATM   29  C   UNL     1       3.812  27.989  52.248  1.00  0.00     0.001 A 
HETATM   30  C   UNL     1       4.009  27.959  53.630  1.00  0.00     0.008 A 
ENDBRANCH   6  25
BRANCH   5  31
HETATM   31  C   UNL     1       6.928  27.732  55.361  1.00  0.00     0.255 C 
HETATM   32  N   UNL     1       6.657  26.389  55.384  1.00  0.00    -0.321 N 
HETATM   33  H   UNL     1       6.024  26.016  56.081  1.00  0.00     0.169 HD
HETATM   34  O   UNL     1       7.759  28.284  54.645  1.00  0.00    -0.268 OA
BRANCH  32  35
HETATM   35  C   UNL     1       7.122  25.422  54.454  1.00  0.00     0.068 A 
HETATM   36  C   UNL     1       7.532  24.173  54.961  1.00  0.00     0.095 A 
HETATM   37  C   UNL     1       7.951  23.168  54.077  1.00  0.00     0.039 A 
HETATM   38  C   UNL     1       7.974  23.401  52.702  1.00  0.00     0.003 A 
HETATM   39  C   UNL     1       7.579  24.634  52.199  1.00  0.00     0.002 A 
HETATM   40  C   UNL     1       7.154  25.638  53.071  1.00  0.00     0.032 A 
BRANCH  36  41
HETATM   41  O   UNL     1       7.473  24.035  56.329  1.00  0.00    -0.354 OA
HETATM   42  C   UNL     1       8.721  24.044  57.015  1.00  0.00     0.210 C 
ENDBRANCH  36  41
ENDBRANCH  32  35
ENDBRANCH   5  31
TORSDOF 9
ENDMDL
MODEL 6
REMARK VINA RESULT:      -9.9      2.384     11.201
REMARK  9 active torsions:
REMARK  status: ('A' for Active; 'I' for Inactive)
REMARK    1  A    between atoms: C_2  and  C_3 
REMARK    2  A    between atoms: C_6  and  N_7 
REMARK       I    between atoms: N_7  and  C_8 
REMARK    3  A    between atoms: C_8  and  C_9 
REMARK    4  A    between atoms: C_9  and  S_10 
REMARK    5  A    between atoms: S_10  and  C_11 
REMARK    6  A    between atoms: C_15  and  C_16 
REMARK       I    between atoms: C_16  and  N_17 
REMARK    7  A    between atoms: N_17  and  C_18 
REMARK    8  A    between atoms: C_19  and  O_20 
REMARK    9  A    between atoms: C_27  and  C_28 
ROOT
HETATM    1  C   UNL     1       5.940  29.280  55.820  1.00  0.00     0.087 C 
HETATM    2  N   UNL     1       4.757  29.998  55.944  1.00  0.00    -0.353 N 
HETATM    3  C   UNL     1       4.510  30.933  56.939  1.00  0.00     0.019 C 
HETATM    4  C   UNL     1       3.294  31.806  56.735  1.00  0.00     0.069 C 
HETATM    5  C   UNL     1       5.359  31.037  57.987  1.00  0.00     0.046 C 
HETATM    6  C   UNL     1       6.462  29.998  58.183  1.00  0.00     0.104 C 
HETATM    7  C   UNL     1       6.739  29.173  56.914  1.00  0.00     0.055 C 
HETATM    8  C   UNL     1       7.865  28.154  56.987  1.00  0.00     0.019 C 
HETATM    9  N   UNL     1       8.798  27.308  57.049  1.00  0.00    -0.096 N 
HETATM   10  H   UNL     1       4.205  30.127  55.102  1.00  0.00     0.166 HD
ENDROOT
BRANCH   1  11
HETATM   11  S   UNL     1       6.516  28.602  54.300  1.00  0.00    -0.102 SA
BRANCH  11  12
HETATM   12  C   UNL     1       5.245  27.470  53.707  1.00  0.00     0.184 C 
BRANCH  12  13
HETATM   13  C   UNL     1       5.428  25.974  53.947  1.00  0.00     0.231 C 
HETATM   14  N   UNL     1       6.477  25.598  54.759  1.00  0.00    -0.327 N 
HETATM   15  H   UNL     1       6.912  26.335  55.304  1.00  0.00     0.169 HD
HETATM   16  O   UNL     1       4.693  25.194  53.341  1.00  0.00    -0.272 OA
BRANCH  14  17
HETATM   17  C   UNL     1       7.161  24.360  54.742  1.00  0.00     0.034 A 
HETATM   18  C   UNL     1       7.101  23.420  55.772  1.00  0.00     0.030 A 
HETATM   19  C   UNL     1       7.628  22.134  55.597  1.00  0.00     0.009 A 
HETATM   20  C   UNL     1       8.228  21.766  54.389  1.00  0.00    -0.058 A 
HETATM   21  C   UNL     1       8.346  22.727  53.380  1.00  0.00     0.009 A 
HETATM   22  C   UNL     1       7.829  24.015  53.561  1.00  0.00     0.030 A 
BRANCH  20  23
HETATM   23  C   UNL     1       8.655  20.341  54.147  1.00  0.00     0.034 C 
HETATM   24  C   UNL     1       8.680  20.011  52.659  1.00  0.00     0.010 C 
ENDBRANCH  20  23
ENDBRANCH  14  17
ENDBRANCH  12  13
ENDBRANCH  11  12
ENDBRANCH   1  11
BRANCH   6  25
HETATM   25  C   UNL     1       7.753  30.575  58.760  1.00  0.00    -0.044 A 
HETATM   26  C   UNL     1       7.909  30.677  60.155  1.00  0.00     0.008 A 
HETATM   27  C   UNL     1       9.069  31.223  60.703  1.00  0.00     0.001 A 
HETATM   28  C   UNL     1      10.089  31.672  59.869  1.00  0.00     0.000 A 
HETATM   29  C   UNL     1       9.954  31.570  58.486  1.00  0.00     0.001 A 
HETATM   30  C   UNL     1       8.796  31.022  57.932  1.00  0.00     0.008 A 
ENDBRANCH   6  25
BRANCH   5  31
HETATM   31  C   UNL     1       5.376  32.341  58.720  1.00  0.00     0.255 C 
HETATM   32  N   UNL     1       4.866  32.317  59.992  1.00  0.00    -0.321 N 
HETATM   33  H   UNL     1       4.384  31.491  60.325  1.00  0.00     0.169 HD
HETATM   34  O   UNL     1       5.877  33.315  58.164  1.00  0.00    -0.268 OA
BRANCH  32  35
HETATM   35  C   UNL     1       5.006  33.336  60.971  1.00  0.00     0.068 A 
HETATM   36  C   UNL     1       3.900  34.179  61.199  1.00  0.00     0.095 A 
HETATM   37  C   UNL     1       3.971  35.166  62.191  1.00  0.00     0.039 A 
HETATM   38  C   UNL     1       5.133  35.326  62.946  1.00  0.00     0.003 A 
HETATM   39  C   UNL     1       6.229  34.504  62.718  1.00  0.00     0.002 A 
HETATM   40  C   UNL     1       6.165  33.513  61.737  1.00  0.00     0.032 A 
BRANCH  36  41
HETATM   41  O   UNL     1       2.797  33.944  60.408  1.00  0.00    -0.354 OA
HETATM   42  C   UNL     1       1.592  34.590  60.805  1.00  0.00     0.210 C 
ENDBRANCH  36  41
ENDBRANCH  32  35
ENDBRANCH   5  31
TORSDOF 9
ENDMDL
MODEL 7
REMARK VINA RESULT:      -9.8      2.364     11.436
REMARK  9 active torsions:
REMARK  status: ('A' for Active; 'I' for Inactive)
REMARK    1  A    between atoms: C_2  and  C_3 
REMARK    2  A    between atoms: C_6  and  N_7 
REMARK       I    between atoms: N_7  and  C_8 
REMARK    3  A    between atoms: C_8  and  C_9 
REMARK    4  A    between atoms: C_9  and  S_10 
REMARK    5  A    between atoms: S_10  and  C_11 
REMARK    6  A    between atoms: C_15  and  C_16 
REMARK       I    between atoms: C_16  and  N_17 
REMARK    7  A    between atoms: N_17  and  C_18 
REMARK    8  A    between atoms: C_19  and  O_20 
REMARK    9  A    between atoms: C_27  and  C_28 
ROOT
HETATM    1  C   UNL     1       5.201  30.896  57.370  1.00  0.00     0.087 C 
HETATM    2  N   UNL     1       4.120  31.513  57.986  1.00  0.00    -0.353 N 
HETATM    3  C   UNL     1       4.155  32.063  59.260  1.00  0.00     0.019 C 
HETATM    4  C   UNL     1       2.977  32.934  59.633  1.00  0.00     0.069 C 
HETATM    5  C   UNL     1       5.218  31.831  60.062  1.00  0.00     0.046 C 
HETATM    6  C   UNL     1       6.273  30.804  59.654  1.00  0.00     0.104 C 
HETATM    7  C   UNL     1       6.214  30.448  58.158  1.00  0.00     0.055 C 
HETATM    8  C   UNL     1       7.265  29.480  57.638  1.00  0.00     0.019 C 
HETATM    9  N   UNL     1       8.137  28.677  57.207  1.00  0.00    -0.096 N 
HETATM   10  H   UNL     1       3.404  31.903  57.381  1.00  0.00     0.166 HD
ENDROOT
BRANCH   1  11
HETATM   11  S   UNL     1       5.386  30.766  55.624  1.00  0.00    -0.102 SA
BRANCH  11  12
HETATM   12  C   UNL     1       4.585  29.233  55.117  1.00  0.00     0.184 C 
BRANCH  12  13
HETATM   13  C   UNL     1       5.432  28.151  54.453  1.00  0.00     0.231 C 
HETATM   14  N   UNL     1       4.863  26.900  54.334  1.00  0.00    -0.327 N 
HETATM   15  H   UNL     1       3.862  26.843  54.496  1.00  0.00     0.169 HD
HETATM   16  O   UNL     1       6.590  28.428  54.143  1.00  0.00    -0.272 OA
BRANCH  14  17
HETATM   17  C   UNL     1       5.544  25.664  54.246  1.00  0.00     0.034 A 
HETATM   18  C   UNL     1       5.781  24.987  53.048  1.00  0.00     0.030 A 
HETATM   19  C   UNL     1       6.641  23.882  53.011  1.00  0.00     0.009 A 
HETATM   20  C   UNL     1       7.277  23.432  54.173  1.00  0.00    -0.058 A 
HETATM   21  C   UNL     1       6.989  24.070  55.383  1.00  0.00     0.009 A 
HETATM   22  C   UNL     1       6.120  25.167  55.420  1.00  0.00     0.030 A 
BRANCH  20  23
HETATM   23  C   UNL     1       8.317  22.343  54.105  1.00  0.00     0.034 C 
HETATM   24  C   UNL     1       7.915  21.249  53.122  1.00  0.00     0.010 C 
ENDBRANCH  20  23
ENDBRANCH  14  17
ENDBRANCH  12  13
ENDBRANCH  11  12
ENDBRANCH   1  11
BRANCH   6  25
HETATM   25  C   UNL     1       7.692  31.180  60.077  1.00  0.00    -0.044 A 
HETATM   26  C   UNL     1       8.201  30.713  61.303  1.00  0.00     0.008 A 
HETATM   27  C   UNL     1       9.483  31.065  61.720  1.00  0.00     0.001 A 
HETATM   28  C   UNL     1      10.277  31.882  60.920  1.00  0.00     0.000 A 
HETATM   29  C   UNL     1       9.791  32.345  59.700  1.00  0.00     0.001 A 
HETATM   30  C   UNL     1       8.509  31.994  59.275  1.00  0.00     0.008 A 
ENDBRANCH   6  25
BRANCH   5  31
HETATM   31  C   UNL     1       5.475  32.820  61.155  1.00  0.00     0.255 C 
HETATM   32  N   UNL     1       5.309  32.355  62.433  1.00  0.00    -0.321 N 
HETATM   33  H   UNL     1       4.897  31.442  62.586  1.00  0.00     0.169 HD
HETATM   34  O   UNL     1       5.852  33.946  60.843  1.00  0.00    -0.268 OA
BRANCH  32  35
HETATM   35  C   UNL     1       5.736  33.001  63.623  1.00  0.00     0.068 A 
HETATM   36  C   UNL     1       4.743  33.537  64.467  1.00  0.00     0.095 A 
HETATM   37  C   UNL     1       5.111  34.139  65.678  1.00  0.00     0.039 A 
HETATM   38  C   UNL     1       6.453  34.219  66.048  1.00  0.00     0.003 A 
HETATM   39  C   UNL     1       7.436  33.699  65.214  1.00  0.00     0.002 A 
HETATM   40  C   UNL     1       7.078  33.092  64.010  1.00  0.00     0.032 A 
BRANCH  36  41
HETATM   41  O   UNL     1       3.447  33.409  64.020  1.00  0.00    -0.354 OA
HETATM   42  C   UNL     1       2.851  34.584  63.480  1.00  0.00     0.210 C 
ENDBRANCH  36  41
ENDBRANCH  32  35
ENDBRANCH   5  31
TORSDOF 9
ENDMDL
MODEL 8
REMARK VINA RESULT:      -9.8      4.419      9.242
REMARK  9 active torsions:
REMARK  status: ('A' for Active; 'I' for Inactive)
REMARK    1  A    between atoms: C_2  and  C_3 
REMARK    2  A    between atoms: C_6  and  N_7 
REMARK       I    between atoms: N_7  and  C_8 
REMARK    3  A    between atoms: C_8  and  C_9 
REMARK    4  A    between atoms: C_9  and  S_10 
REMARK    5  A    between atoms: S_10  and  C_11 
REMARK    6  A    between atoms: C_15  and  C_16 
REMARK       I    between atoms: C_16  and  N_17 
REMARK    7  A    between atoms: N_17  and  C_18 
REMARK    8  A    between atoms: C_19  and  O_20 
REMARK    9  A    between atoms: C_27  and  C_28 
ROOT
HETATM    1  C   UNL     1       5.592  28.516  54.396  1.00  0.00     0.087 C 
HETATM    2  N   UNL     1       5.475  27.353  53.647  1.00  0.00    -0.353 N 
HETATM    3  C   UNL     1       4.793  27.264  52.442  1.00  0.00     0.019 C 
HETATM    4  C   UNL     1       5.023  25.999  51.647  1.00  0.00     0.069 C 
HETATM    5  C   UNL     1       4.013  28.291  52.035  1.00  0.00     0.046 C 
HETATM    6  C   UNL     1       3.717  29.448  52.987  1.00  0.00     0.104 C 
HETATM    7  C   UNL     1       4.693  29.512  54.175  1.00  0.00     0.055 C 
HETATM    8  C   UNL     1       4.522  30.667  55.147  1.00  0.00     0.019 C 
HETATM    9  N   UNL     1       4.379  31.626  55.954  1.00  0.00    -0.096 N 
HETATM   10  H   UNL     1       6.193  26.647  53.775  1.00  0.00     0.166 HD
ENDROOT
BRANCH   1  11
HETATM   11  S   UNL     1       6.905  28.820  55.530  1.00  0.00    -0.102 SA
BRANCH  11  12
HETATM   12  C   UNL     1       6.539  27.888  57.029  1.00  0.00     0.184 C 
BRANCH  12  13
HETATM   13  C   UNL     1       6.542  26.363  56.961  1.00  0.00     0.231 C 
HETATM   14  N   UNL     1       7.760  25.751  56.756  1.00  0.00    -0.327 N 
HETATM   15  H   UNL     1       8.583  26.332  56.880  1.00  0.00     0.169 HD
HETATM   16  O   UNL     1       5.459  25.778  57.005  1.00  0.00    -0.272 OA
BRANCH  14  17
HETATM   17  C   UNL     1       7.984  24.483  56.170  1.00  0.00     0.034 A 
HETATM   18  C   UNL     1       8.352  23.345  56.890  1.00  0.00     0.030 A 
HETATM   19  C   UNL     1       8.350  22.084  56.280  1.00  0.00     0.009 A 
HETATM   20  C   UNL     1       7.982  21.939  54.939  1.00  0.00    -0.058 A 
HETATM   21  C   UNL     1       7.676  23.087  54.201  1.00  0.00     0.009 A 
HETATM   22  C   UNL     1       7.690  24.347  54.809  1.00  0.00     0.030 A 
BRANCH  20  23
HETATM   23  C   UNL     1       7.832  20.569  54.328  1.00  0.00     0.034 C 
HETATM   24  C   UNL     1       8.264  20.560  52.866  1.00  0.00     0.010 C 
ENDBRANCH  20  23
ENDBRANCH  14  17
ENDBRANCH  12  13
ENDBRANCH  11  12
ENDBRANCH   1  11
BRANCH   6  25
HETATM   25  C   UNL     1       3.606  30.803  52.291  1.00  0.00    -0.044 A 
HETATM   26  C   UNL     1       2.339  31.383  52.091  1.00  0.00     0.008 A 
HETATM   27  C   UNL     1       2.213  32.606  51.435  1.00  0.00     0.001 A 
HETATM   28  C   UNL     1       3.346  33.269  50.973  1.00  0.00     0.000 A 
HETATM   29  C   UNL     1       4.607  32.713  51.170  1.00  0.00     0.001 A 
HETATM   30  C   UNL     1       4.740  31.490  51.829  1.00  0.00     0.008 A 
ENDBRANCH   6  25
BRANCH   5  31
HETATM   31  C   UNL     1       3.739  28.398  50.569  1.00  0.00     0.255 C 
HETATM   32  N   UNL     1       2.449  28.147  50.181  1.00  0.00    -0.321 N 
HETATM   33  H   UNL     1       1.787  27.774  50.851  1.00  0.00     0.169 HD
HETATM   34  O   UNL     1       4.658  28.740  49.829  1.00  0.00    -0.268 OA
BRANCH  32  35
HETATM   35  C   UNL     1       1.884  28.434  48.911  1.00  0.00     0.068 A 
HETATM   36  C   UNL     1       1.876  27.402  47.951  1.00  0.00     0.095 A 
HETATM   37  C   UNL     1       1.283  27.621  46.701  1.00  0.00     0.039 A 
HETATM   38  C   UNL     1       0.710  28.855  46.396  1.00  0.00     0.003 A 
HETATM   39  C   UNL     1       0.723  29.879  47.336  1.00  0.00     0.002 A 
HETATM   40  C   UNL     1       1.305  29.668  48.587  1.00  0.00     0.032 A 
BRANCH  36  41
HETATM   41  O   UNL     1       2.462  26.219  48.343  1.00  0.00    -0.354 OA
HETATM   42  C   UNL     1       3.700  25.897  47.718  1.00  0.00     0.210 C 
ENDBRANCH  36  41
ENDBRANCH  32  35
ENDBRANCH   5  31
TORSDOF 9
ENDMDL
MODEL 9
REMARK VINA RESULT:      -9.5      5.547     10.947
REMARK  9 active torsions:
REMARK  status: ('A' for Active; 'I' for Inactive)
REMARK    1  A    between atoms: C_2  and  C_3 
REMARK    2  A    between atoms: C_6  and  N_7 
REMARK       I    between atoms: N_7  and  C_8 
REMARK    3  A    between atoms: C_8  and  C_9 
REMARK    4  A    between atoms: C_9  and  S_10 
REMARK    5  A    between atoms: S_10  and  C_11 
REMARK    6  A    between atoms: C_15  and  C_16 
REMARK       I    between atoms: C_16  and  N_17 
REMARK    7  A    between atoms: N_17  and  C_18 
REMARK    8  A    between atoms: C_19  and  O_20 
REMARK    9  A    between atoms: C_27  and  C_28 
ROOT
HETATM    1  C   UNL     1       5.329  29.063  51.711  1.00  0.00     0.087 C 
HETATM    2  N   UNL     1       5.750  30.297  51.233  1.00  0.00    -0.353 N 
HETATM    3  C   UNL     1       5.585  30.726  49.923  1.00  0.00     0.019 C 
HETATM    4  C   UNL     1       5.844  32.194  49.673  1.00  0.00     0.069 C 
HETATM    5  C   UNL     1       5.180  29.849  48.976  1.00  0.00     0.046 C 
HETATM    6  C   UNL     1       5.107  28.358  49.298  1.00  0.00     0.104 C 
HETATM    7  C   UNL     1       5.108  28.070  50.810  1.00  0.00     0.055 C 
HETATM    8  C   UNL     1       4.975  26.618  51.236  1.00  0.00     0.019 C 
HETATM    9  N   UNL     1       4.864  25.411  51.588  1.00  0.00    -0.096 N 
HETATM   10  H   UNL     1       5.844  31.048  51.910  1.00  0.00     0.166 HD
ENDROOT
BRANCH   1  11
HETATM   11  S   UNL     1       4.955  28.748  53.403  1.00  0.00    -0.102 SA
BRANCH  11  12
HETATM   12  C   UNL     1       6.502  28.308  54.216  1.00  0.00     0.184 C 
BRANCH  12  13
HETATM   13  C   UNL     1       6.664  26.892  54.762  1.00  0.00     0.231 C 
HETATM   14  N   UNL     1       7.559  26.071  54.109  1.00  0.00    -0.327 N 
HETATM   15  H   UNL     1       8.194  26.523  53.460  1.00  0.00     0.169 HD
HETATM   16  O   UNL     1       5.933  26.539  55.688  1.00  0.00    -0.272 OA
BRANCH  14  17
HETATM   17  C   UNL     1       7.536  24.657  54.064  1.00  0.00     0.034 A 
HETATM   18  C   UNL     1       7.749  23.910  52.905  1.00  0.00     0.030 A 
HETATM   19  C   UNL     1       7.922  22.521  52.973  1.00  0.00     0.009 A 
HETATM   20  C   UNL     1       7.881  21.855  54.202  1.00  0.00    -0.058 A 
HETATM   21  C   UNL     1       7.602  22.595  55.355  1.00  0.00     0.009 A 
HETATM   22  C   UNL     1       7.418  23.981  55.284  1.00  0.00     0.030 A 
BRANCH  20  23
HETATM   23  C   UNL     1       8.219  20.389  54.292  1.00  0.00     0.034 C 
HETATM   24  C   UNL     1       8.411  19.949  55.739  1.00  0.00     0.010 C 
ENDBRANCH  20  23
ENDBRANCH  14  17
ENDBRANCH  12  13
ENDBRANCH  11  12
ENDBRANCH   1  11
BRANCH   6  25
HETATM   25  C   UNL     1       3.958  27.634  48.599  1.00  0.00    -0.044 A 
HETATM   26  C   UNL     1       2.629  27.945  48.939  1.00  0.00     0.008 A 
HETATM   27  C   UNL     1       1.565  27.279  48.332  1.00  0.00     0.001 A 
HETATM   28  C   UNL     1       1.811  26.298  47.376  1.00  0.00     0.000 A 
HETATM   29  C   UNL     1       3.121  25.985  47.022  1.00  0.00     0.001 A 
HETATM   30  C   UNL     1       4.190  26.650  47.624  1.00  0.00     0.008 A 
ENDBRANCH   6  25
BRANCH   5  31
HETATM   31  C   UNL     1       4.519  30.418  47.761  1.00  0.00     0.255 C 
HETATM   32  N   UNL     1       3.436  31.224  47.991  1.00  0.00    -0.321 N 
HETATM   33  H   UNL     1       3.048  31.290  48.924  1.00  0.00     0.169 HD
HETATM   34  O   UNL     1       5.007  30.166  46.662  1.00  0.00    -0.268 OA
BRANCH  32  35
HETATM   35  C   UNL     1       2.810  32.079  47.046  1.00  0.00     0.068 A 
HETATM   36  C   UNL     1       1.559  31.681  46.534  1.00  0.00     0.095 A 
HETATM   37  C   UNL     1       0.878  32.516  45.638  1.00  0.00     0.039 A 
HETATM   38  C   UNL     1       1.435  33.732  45.242  1.00  0.00     0.003 A 
HETATM   39  C   UNL     1       2.672  34.124  45.738  1.00  0.00     0.002 A 
HETATM   40  C   UNL     1       3.355  33.303  46.636  1.00  0.00     0.032 A 
BRANCH  36  41
HETATM   41  O   UNL     1       1.089  30.468  46.983  1.00  0.00    -0.354 OA
HETATM   42  C   UNL     1       0.187  29.786  46.118  1.00  0.00     0.210 C 
ENDBRANCH  36  41
ENDBRANCH  32  35
ENDBRANCH   5  31
TORSDOF 9
ENDMDL
MODEL 10
REMARK VINA RESULT:      -9.5      5.176     10.638
REMARK  9 active torsions:
REMARK  status: ('A' for Active; 'I' for Inactive)
REMARK    1  A    between atoms: C_2  and  C_3 
REMARK    2  A    between atoms: C_6  and  N_7 
REMARK       I    between atoms: N_7  and  C_8 
REMARK    3  A    between atoms: C_8  and  C_9 
REMARK    4  A    between atoms: C_9  and  S_10 
REMARK    5  A    between atoms: S_10  and  C_11 
REMARK    6  A    between atoms: C_15  and  C_16 
REMARK       I    between atoms: C_16  and  N_17 
REMARK    7  A    between atoms: N_17  and  C_18 
REMARK    8  A    between atoms: C_19  and  O_20 
REMARK    9  A    between atoms: C_27  and  C_28 
ROOT
HETATM    1  C   UNL     1       4.733  29.151  52.683  1.00  0.00     0.087 C 
HETATM    2  N   UNL     1       4.960  30.511  52.517  1.00  0.00    -0.353 N 
HETATM    3  C   UNL     1       4.896  31.171  51.298  1.00  0.00     0.019 C 
HETATM    4  C   UNL     1       4.889  32.681  51.368  1.00  0.00     0.069 C 
HETATM    5  C   UNL     1       4.811  30.458  50.152  1.00  0.00     0.046 C 
HETATM    6  C   UNL     1       4.995  28.942  50.181  1.00  0.00     0.104 C 
HETATM    7  C   UNL     1       4.843  28.347  51.592  1.00  0.00     0.055 C 
HETATM    8  C   UNL     1       4.946  26.836  51.718  1.00  0.00     0.019 C 
HETATM    9  N   UNL     1       5.031  25.582  51.821  1.00  0.00    -0.096 N 
HETATM   10  H   UNL     1       4.808  31.107  53.325  1.00  0.00     0.166 HD
ENDROOT
BRANCH   1  11
HETATM   11  S   UNL     1       4.199  28.428  54.197  1.00  0.00    -0.102 SA
BRANCH  11  12
HETATM   12  C   UNL     1       5.673  28.112  55.185  1.00  0.00     0.184 C 
BRANCH  12  13
HETATM   13  C   UNL     1       5.999  26.672  55.573  1.00  0.00     0.231 C 
HETATM   14  N   UNL     1       7.262  26.214  55.260  1.00  0.00    -0.327 N 
HETATM   15  H   UNL     1       7.944  26.918  54.996  1.00  0.00     0.169 HD
HETATM   16  O   UNL     1       5.101  25.984  56.058  1.00  0.00    -0.272 OA
BRANCH  14  17
HETATM   17  C   UNL     1       7.645  24.871  55.039  1.00  0.00     0.034 A 
HETATM   18  C   UNL     1       7.964  23.972  56.059  1.00  0.00     0.030 A 
HETATM   19  C   UNL     1       8.127  22.608  55.783  1.00  0.00     0.009 A 
HETATM   20  C   UNL     1       7.978  22.120  54.481  1.00  0.00    -0.058 A 
HETATM   21  C   UNL     1       7.723  23.029  53.450  1.00  0.00     0.009 A 
HETATM   22  C   UNL     1       7.572  24.393  53.726  1.00  0.00     0.030 A 
BRANCH  20  23
HETATM   23  C   UNL     1       8.002  20.637  54.212  1.00  0.00     0.034 C 
HETATM   24  C   UNL     1       8.354  20.341  52.758  1.00  0.00     0.010 C 
ENDBRANCH  20  23
ENDBRANCH  14  17
ENDBRANCH  12  13
ENDBRANCH  11  12
ENDBRANCH   1  11
BRANCH   6  25
HETATM   25  C   UNL     1       4.122  28.199  49.172  1.00  0.00    -0.044 A 
HETATM   26  C   UNL     1       2.723  28.200  49.324  1.00  0.00     0.008 A 
HETATM   27  C   UNL     1       1.909  27.507  48.430  1.00  0.00     0.001 A 
HETATM   28  C   UNL     1       2.478  26.807  47.369  1.00  0.00     0.000 A 
HETATM   29  C   UNL     1       3.860  26.804  47.199  1.00  0.00     0.001 A 
HETATM   30  C   UNL     1       4.680  27.498  48.090  1.00  0.00     0.008 A 
ENDBRANCH   6  25
BRANCH   5  31
HETATM   31  C   UNL     1       4.225  31.150  48.963  1.00  0.00     0.255 C 
HETATM   32  N   UNL     1       5.092  31.403  47.932  1.00  0.00    -0.321 N 
HETATM   33  H   UNL     1       6.085  31.251  48.061  1.00  0.00     0.169 HD
HETATM   34  O   UNL     1       3.023  31.401  48.969  1.00  0.00    -0.268 OA
BRANCH  32  35
HETATM   35  C   UNL     1       4.737  31.800  46.616  1.00  0.00     0.068 A 
HETATM   36  C   UNL     1       5.445  32.878  46.046  1.00  0.00     0.095 A 
HETATM   37  C   UNL     1       5.167  33.274  44.731  1.00  0.00     0.039 A 
HETATM   38  C   UNL     1       4.188  32.615  43.987  1.00  0.00     0.003 A 
HETATM   39  C   UNL     1       3.481  31.558  44.548  1.00  0.00     0.002 A 
HETATM   40  C   UNL     1       3.757  31.152  45.854  1.00  0.00     0.032 A 
BRANCH  36  41
HETATM   41  O   UNL     1       6.393  33.463  46.855  1.00  0.00    -0.354 OA
HETATM   42  C   UNL     1       6.478  34.883  46.793  1.00  0.00     0.210 C 
ENDBRANCH  36  41
ENDBRANCH  32  35
ENDBRANCH   5  31
TORSDOF 9
ENDMDL
