MODEL 1
REMARK VINA RESULT:      -8.5      0.000      0.000
REMARK  4 active torsions:
REMARK  status: ('A' for Active; 'I' for Inactive)
REMARK    1  A    between atoms: C_4  and  C_5 
REMARK    2  A    between atoms: C_7  and  C_8 
REMARK       I    between atoms: C_8  and  N_9 
REMARK    3  A    between atoms: N_9  and  C_10 
REMARK    4  A    between atoms: C_13  and  N_14 
ROOT
HETATM    1  C   UNL     1       8.442  29.456  58.156  1.00  0.00     0.252 C 
HETATM    2  N   UNL     1       8.004  30.003  59.344  1.00  0.00    -0.352 N 
HETATM    3  O   UNL     1       9.476  29.804  57.599  1.00  0.00    -0.268 OA
HETATM    4  H   UNL     1       7.227  29.541  59.803  1.00  0.00     0.163 HD
ENDROOT
BRANCH   1   5
HETATM    5  C   UNL     1       7.616  28.364  57.559  1.00  0.00     0.032 A 
HETATM    6  C   UNL     1       8.163  27.155  57.105  1.00  0.00     0.031 A 
HETATM    7  C   UNL     1       7.343  26.157  56.551  1.00  0.00    -0.001 A 
HETATM    8  C   UNL     1       5.961  26.382  56.479  1.00  0.00     0.014 A 
HETATM    9  C   UNL     1       5.406  27.575  56.941  1.00  0.00     0.002 A 
HETATM   10  C   UNL     1       6.231  28.562  57.480  1.00  0.00     0.017 A 
BRANCH   7  11
HETATM   11  C   UNL     1       7.911  24.907  56.057  1.00  0.00     0.086 A 
HETATM   12  O   UNL     1       7.653  24.601  54.749  1.00  0.00    -0.315 OA
HETATM   13  C   UNL     1       8.222  23.388  54.495  1.00  0.00     0.050 A 
HETATM   14  C   UNL     1       8.042  22.841  53.136  1.00  0.00     0.076 C 
HETATM   15  C   UNL     1       8.865  22.922  55.620  1.00  0.00     0.035 A 
HETATM   16  C   UNL     1       8.661  23.897  56.627  1.00  0.00     0.040 A 
ENDBRANCH   7  11
ENDBRANCH   1   5
BRANCH   2  17
HETATM   17  C   UNL     1       8.654  31.054  60.120  1.00  0.00     0.084 C 
HETATM   18  C   UNL     1       7.781  32.295  60.332  1.00  0.00     0.027 C 
HETATM   19  C   UNL     1       6.805  32.195  61.503  1.00  0.00     0.035 C 
HETATM   20  C   UNL     1       7.433  31.671  62.795  1.00  0.00     0.183 C 
HETATM   21  C   UNL     1       8.384  30.486  62.634  1.00  0.00     0.035 C 
HETATM   22  C   UNL     1       9.312  30.577  61.422  1.00  0.00     0.027 C 
BRANCH  20  23
HETATM   23  N   UNL     1       8.196  32.793  63.428  1.00  0.00    -0.075 N 
HETATM   24  H   UNL     1       8.314  33.598  62.800  1.00  0.00     0.274 HD
HETATM   25  H   UNL     1       7.723  33.125  64.279  1.00  0.00     0.274 HD
HETATM   26  H   UNL     1       9.134  32.481  63.715  1.00  0.00     0.274 HD
ENDBRANCH  20  23
ENDBRANCH   2  17
TORSDOF 4
ENDMDL
MODEL 2
REMARK VINA RESULT:      -8.5      6.631      9.713
REMARK  4 active torsions:
REMARK  status: ('A' for Active; 'I' for Inactive)
REMARK    1  A    between atoms: C_4  and  C_5 
REMARK    2  A    between atoms: C_7  and  C_8 
REMARK       I    between atoms: C_8  and  N_9 
REMARK    3  A    between atoms: N_9  and  C_10 
REMARK    4  A    between atoms: C_13  and  N_14 
ROOT
HETATM    1  C   UNL     1       5.336  27.319  51.250  1.00  0.00     0.252 C 
HETATM    2  N   UNL     1       4.698  26.680  50.209  1.00  0.00    -0.352 N 
HETATM    3  O   UNL     1       5.699  28.488  51.197  1.00  0.00    -0.268 OA
HETATM    4  H   UNL     1       4.299  25.769  50.405  1.00  0.00     0.163 HD
ENDROOT
BRANCH   1   5
HETATM    5  C   UNL     1       5.554  26.537  52.505  1.00  0.00     0.032 A 
HETATM    6  C   UNL     1       6.254  25.323  52.536  1.00  0.00     0.031 A 
HETATM    7  C   UNL     1       6.433  24.625  53.743  1.00  0.00    -0.001 A 
HETATM    8  C   UNL     1       5.916  25.177  54.923  1.00  0.00     0.014 A 
HETATM    9  C   UNL     1       5.231  26.392  54.905  1.00  0.00     0.002 A 
HETATM   10  C   UNL     1       5.051  27.070  53.699  1.00  0.00     0.017 A 
BRANCH   7  11
HETATM   11  C   UNL     1       7.141  23.351  53.775  1.00  0.00     0.086 A 
HETATM   12  O   UNL     1       7.132  22.684  54.970  1.00  0.00    -0.315 OA
HETATM   13  C   UNL     1       7.877  21.554  54.812  1.00  0.00     0.050 A 
HETATM   14  C   UNL     1       8.029  20.686  55.996  1.00  0.00     0.076 C 
HETATM   15  C   UNL     1       8.346  21.474  53.520  1.00  0.00     0.035 A 
HETATM   16  C   UNL     1       7.877  22.632  52.854  1.00  0.00     0.040 A 
ENDBRANCH   7  11
ENDBRANCH   1   5
BRANCH   2  17
HETATM   17  C   UNL     1       4.356  27.244  48.908  1.00  0.00     0.084 C 
HETATM   18  C   UNL     1       4.162  26.193  47.809  1.00  0.00     0.027 C 
HETATM   19  C   UNL     1       2.771  25.563  47.771  1.00  0.00     0.035 C 
HETATM   20  C   UNL     1       1.626  26.572  47.849  1.00  0.00     0.183 C 
HETATM   21  C   UNL     1       1.805  27.697  48.868  1.00  0.00     0.035 C 
HETATM   22  C   UNL     1       3.219  28.275  48.933  1.00  0.00     0.027 C 
BRANCH  20  23
HETATM   23  N   UNL     1       1.464  27.196  46.496  1.00  0.00    -0.075 N 
HETATM   24  H   UNL     1       1.892  26.637  45.748  1.00  0.00     0.274 HD
HETATM   25  H   UNL     1       0.469  27.320  46.266  1.00  0.00     0.274 HD
HETATM   26  H   UNL     1       1.892  28.131  46.472  1.00  0.00     0.274 HD
ENDBRANCH  20  23
ENDBRANCH   2  17
TORSDOF 4
ENDMDL
MODEL 3
REMARK VINA RESULT:      -8.3      2.860      8.547
REMARK  4 active torsions:
REMARK  status: ('A' for Active; 'I' for Inactive)
REMARK    1  A    between atoms: C_4  and  C_5 
REMARK    2  A    between atoms: C_7  and  C_8 
REMARK       I    between atoms: C_8  and  N_9 
REMARK    3  A    between atoms: N_9  and  C_10 
REMARK    4  A    between atoms: C_13  and  N_14 
ROOT
HETATM    1  C   UNL     1       7.143  27.503  56.830  1.00  0.00     0.252 C 
HETATM    2  N   UNL     1       7.672  26.363  56.263  1.00  0.00    -0.352 N 
HETATM    3  O   UNL     1       5.940  27.684  56.972  1.00  0.00    -0.268 OA
HETATM    4  H   UNL     1       8.675  26.239  56.334  1.00  0.00     0.163 HD
ENDROOT
BRANCH   1   5
HETATM    5  C   UNL     1       8.105  28.536  57.318  1.00  0.00     0.032 A 
HETATM    6  C   UNL     1       7.925  29.240  58.518  1.00  0.00     0.031 A 
HETATM    7  C   UNL     1       8.860  30.202  58.935  1.00  0.00    -0.001 A 
HETATM    8  C   UNL     1       9.991  30.433  58.140  1.00  0.00     0.014 A 
HETATM    9  C   UNL     1      10.186  29.728  56.952  1.00  0.00     0.002 A 
HETATM   10  C   UNL     1       9.246  28.783  56.543  1.00  0.00     0.017 A 
BRANCH   7  11
HETATM   11  C   UNL     1       8.665  30.952  60.171  1.00  0.00     0.086 A 
HETATM   12  O   UNL     1       7.515  31.688  60.257  1.00  0.00    -0.315 OA
HETATM   13  C   UNL     1       7.539  32.345  61.451  1.00  0.00     0.050 A 
HETATM   14  C   UNL     1       6.397  33.232  61.746  1.00  0.00     0.076 C 
HETATM   15  C   UNL     1       8.682  32.019  62.147  1.00  0.00     0.035 A 
HETATM   16  C   UNL     1       9.409  31.127  61.321  1.00  0.00     0.040 A 
ENDBRANCH   7  11
ENDBRANCH   1   5
BRANCH   2  17
HETATM   17  C   UNL     1       6.935  25.216  55.743  1.00  0.00     0.084 C 
HETATM   18  C   UNL     1       6.682  25.276  54.233  1.00  0.00     0.027 C 
HETATM   19  C   UNL     1       7.839  24.775  53.373  1.00  0.00     0.035 C 
HETATM   20  C   UNL     1       8.426  23.440  53.832  1.00  0.00     0.183 C 
HETATM   21  C   UNL     1       8.620  23.288  55.341  1.00  0.00     0.035 C 
HETATM   22  C   UNL     1       7.477  23.850  56.187  1.00  0.00     0.027 C 
BRANCH  20  23
HETATM   23  N   UNL     1       7.510  22.347  53.372  1.00  0.00    -0.075 N 
HETATM   24  H   UNL     1       7.756  21.989  52.442  1.00  0.00     0.274 HD
HETATM   25  H   UNL     1       7.525  21.555  54.029  1.00  0.00     0.274 HD
HETATM   26  H   UNL     1       6.537  22.680  53.332  1.00  0.00     0.274 HD
ENDBRANCH  20  23
ENDBRANCH   2  17
TORSDOF 4
ENDMDL
MODEL 4
REMARK VINA RESULT:      -8.0      5.938      8.871
REMARK  4 active torsions:
REMARK  status: ('A' for Active; 'I' for Inactive)
REMARK    1  A    between atoms: C_4  and  C_5 
REMARK    2  A    between atoms: C_7  and  C_8 
REMARK       I    between atoms: C_8  and  N_9 
REMARK    3  A    between atoms: N_9  and  C_10 
REMARK    4  A    between atoms: C_13  and  N_14 
ROOT
HETATM    1  C   UNL     1       4.707  26.962  52.763  1.00  0.00     0.252 C 
HETATM    2  N   UNL     1       4.868  26.836  51.400  1.00  0.00    -0.352 N 
HETATM    3  O   UNL     1       3.792  27.597  53.274  1.00  0.00    -0.268 OA
HETATM    4  H   UNL     1       5.556  26.164  51.080  1.00  0.00     0.163 HD
ENDROOT
BRANCH   1   5
HETATM    5  C   UNL     1       5.687  26.251  53.639  1.00  0.00     0.032 A 
HETATM    6  C   UNL     1       6.086  24.925  53.418  1.00  0.00     0.031 A 
HETATM    7  C   UNL     1       7.013  24.300  54.270  1.00  0.00    -0.001 A 
HETATM    8  C   UNL     1       7.550  25.035  55.336  1.00  0.00     0.014 A 
HETATM    9  C   UNL     1       7.170  26.359  55.556  1.00  0.00     0.002 A 
HETATM   10  C   UNL     1       6.242  26.965  54.709  1.00  0.00     0.017 A 
BRANCH   7  11
HETATM   11  C   UNL     1       7.413  22.914  54.057  1.00  0.00     0.086 A 
HETATM   12  O   UNL     1       7.576  22.152  55.181  1.00  0.00    -0.315 OA
HETATM   13  C   UNL     1       7.992  20.918  54.780  1.00  0.00     0.050 A 
HETATM   14  C   UNL     1       8.261  19.928  55.842  1.00  0.00     0.076 C 
HETATM   15  C   UNL     1       8.075  20.870  53.407  1.00  0.00     0.035 A 
HETATM   16  C   UNL     1       7.708  22.156  52.941  1.00  0.00     0.040 A 
ENDBRANCH   7  11
ENDBRANCH   1   5
BRANCH   2  17
HETATM   17  C   UNL     1       4.026  27.412  50.358  1.00  0.00     0.084 C 
HETATM   18  C   UNL     1       4.330  28.885  50.062  1.00  0.00     0.027 C 
HETATM   19  C   UNL     1       5.487  29.113  49.091  1.00  0.00     0.035 C 
HETATM   20  C   UNL     1       5.426  28.245  47.834  1.00  0.00     0.183 C 
HETATM   21  C   UNL     1       5.041  26.783  48.058  1.00  0.00     0.035 C 
HETATM   22  C   UNL     1       3.921  26.572  49.078  1.00  0.00     0.027 C 
BRANCH  20  23
HETATM   23  N   UNL     1       4.423  28.849  46.900  1.00  0.00    -0.075 N 
HETATM   24  H   UNL     1       3.700  28.181  46.607  1.00  0.00     0.274 HD
HETATM   25  H   UNL     1       3.951  29.651  47.338  1.00  0.00     0.274 HD
HETATM   26  H   UNL     1       4.883  29.205  46.051  1.00  0.00     0.274 HD
ENDBRANCH  20  23
ENDBRANCH   2  17
TORSDOF 4
ENDMDL
MODEL 5
REMARK VINA RESULT:      -7.9      3.030      8.508
REMARK  4 active torsions:
REMARK  status: ('A' for Active; 'I' for Inactive)
REMARK    1  A    between atoms: C_4  and  C_5 
REMARK    2  A    between atoms: C_7  and  C_8 
REMARK       I    between atoms: C_8  and  N_9 
REMARK    3  A    between atoms: N_9  and  C_10 
REMARK    4  A    between atoms: C_13  and  N_14 
ROOT
HETATM    1  C   UNL     1       7.949  27.531  57.166  1.00  0.00     0.252 C 
HETATM    2  N   UNL     1       7.324  27.540  55.937  1.00  0.00    -0.352 N 
HETATM    3  O   UNL     1       7.954  26.556  57.907  1.00  0.00    -0.268 OA
HETATM    4  H   UNL     1       7.510  28.333  55.334  1.00  0.00     0.163 HD
ENDROOT
BRANCH   1   5
HETATM    5  C   UNL     1       8.677  28.770  57.574  1.00  0.00     0.032 A 
HETATM    6  C   UNL     1       8.391  29.469  58.756  1.00  0.00     0.031 A 
HETATM    7  C   UNL     1       9.105  30.630  59.097  1.00  0.00    -0.001 A 
HETATM    8  C   UNL     1      10.128  31.067  58.243  1.00  0.00     0.014 A 
HETATM    9  C   UNL     1      10.430  30.370  57.073  1.00  0.00     0.002 A 
HETATM   10  C   UNL     1       9.707  29.225  56.741  1.00  0.00     0.017 A 
BRANCH   7  11
HETATM   11  C   UNL     1       8.795  31.372  60.313  1.00  0.00     0.086 A 
HETATM   12  O   UNL     1       7.590  32.018  60.337  1.00  0.00    -0.315 OA
HETATM   13  C   UNL     1       7.507  32.684  61.523  1.00  0.00     0.050 A 
HETATM   14  C   UNL     1       6.288  33.483  61.755  1.00  0.00     0.076 C 
HETATM   15  C   UNL     1       8.638  32.454  62.275  1.00  0.00     0.035 A 
HETATM   16  C   UNL     1       9.469  31.614  61.495  1.00  0.00     0.040 A 
ENDBRANCH   7  11
ENDBRANCH   1   5
BRANCH   2  17
HETATM   17  C   UNL     1       6.581  26.446  55.320  1.00  0.00     0.084 C 
HETATM   18  C   UNL     1       5.300  26.894  54.607  1.00  0.00     0.027 C 
HETATM   19  C   UNL     1       5.509  27.401  53.182  1.00  0.00     0.035 C 
HETATM   20  C   UNL     1       6.394  26.498  52.322  1.00  0.00     0.183 C 
HETATM   21  C   UNL     1       7.643  25.949  53.009  1.00  0.00     0.035 C 
HETATM   22  C   UNL     1       7.427  25.502  54.456  1.00  0.00     0.027 C 
BRANCH  20  23
HETATM   23  N   UNL     1       5.567  25.334  51.868  1.00  0.00    -0.075 N 
HETATM   24  H   UNL     1       5.190  25.460  50.922  1.00  0.00     0.274 HD
HETATM   25  H   UNL     1       6.120  24.466  51.874  1.00  0.00     0.274 HD
HETATM   26  H   UNL     1       4.772  25.181  52.504  1.00  0.00     0.274 HD
ENDBRANCH  20  23
ENDBRANCH   2  17
TORSDOF 4
ENDMDL
MODEL 6
REMARK VINA RESULT:      -7.8      6.364      8.275
REMARK  4 active torsions:
REMARK  status: ('A' for Active; 'I' for Inactive)
REMARK    1  A    between atoms: C_4  and  C_5 
REMARK    2  A    between atoms: C_7  and  C_8 
REMARK       I    between atoms: C_8  and  N_9 
REMARK    3  A    between atoms: N_9  and  C_10 
REMARK    4  A    between atoms: C_13  and  N_14 
ROOT
HETATM    1  C   UNL     1       5.437  26.504  51.213  1.00  0.00     0.252 C 
HETATM    2  N   UNL     1       5.490  27.867  51.013  1.00  0.00    -0.352 N 
HETATM    3  O   UNL     1       4.848  25.739  50.459  1.00  0.00    -0.268 OA
HETATM    4  H   UNL     1       6.130  28.391  51.599  1.00  0.00     0.163 HD
ENDROOT
BRANCH   1   5
HETATM    5  C   UNL     1       6.172  25.954  52.392  1.00  0.00     0.032 A 
HETATM    6  C   UNL     1       6.515  24.599  52.513  1.00  0.00     0.031 A 
HETATM    7  C   UNL     1       7.208  24.130  53.642  1.00  0.00    -0.001 A 
HETATM    8  C   UNL     1       7.570  25.047  54.640  1.00  0.00     0.014 A 
HETATM    9  C   UNL     1       7.245  26.398  54.521  1.00  0.00     0.002 A 
HETATM   10  C   UNL     1       6.549  26.850  53.401  1.00  0.00     0.017 A 
BRANCH   7  11
HETATM   11  C   UNL     1       7.547  22.719  53.782  1.00  0.00     0.086 A 
HETATM   12  O   UNL     1       7.568  22.226  55.058  1.00  0.00    -0.315 OA
HETATM   13  C   UNL     1       7.947  20.919  54.984  1.00  0.00     0.050 A 
HETATM   14  C   UNL     1       8.067  20.186  56.260  1.00  0.00     0.076 C 
HETATM   15  C   UNL     1       8.147  20.558  53.670  1.00  0.00     0.035 A 
HETATM   16  C   UNL     1       7.895  21.718  52.897  1.00  0.00     0.040 A 
ENDBRANCH   7  11
ENDBRANCH   1   5
BRANCH   2  17
HETATM   17  C   UNL     1       4.878  28.621  49.925  1.00  0.00     0.084 C 
HETATM   18  C   UNL     1       3.397  28.943  50.152  1.00  0.00     0.027 C 
HETATM   19  C   UNL     1       3.138  30.185  51.002  1.00  0.00     0.035 C 
HETATM   20  C   UNL     1       3.964  31.405  50.592  1.00  0.00     0.183 C 
HETATM   21  C   UNL     1       5.432  31.130  50.268  1.00  0.00     0.035 C 
HETATM   22  C   UNL     1       5.676  29.850  49.467  1.00  0.00     0.027 C 
BRANCH  20  23
HETATM   23  N   UNL     1       3.328  32.009  49.379  1.00  0.00    -0.075 N 
HETATM   24  H   UNL     1       3.821  32.847  49.048  1.00  0.00     0.274 HD
HETATM   25  H   UNL     1       3.301  31.334  48.603  1.00  0.00     0.274 HD
HETATM   26  H   UNL     1       2.354  32.276  49.573  1.00  0.00     0.274 HD
ENDBRANCH  20  23
ENDBRANCH   2  17
TORSDOF 4
ENDMDL
MODEL 7
REMARK VINA RESULT:      -7.8      3.881      5.258
REMARK  4 active torsions:
REMARK  status: ('A' for Active; 'I' for Inactive)
REMARK    1  A    between atoms: C_4  and  C_5 
REMARK    2  A    between atoms: C_7  and  C_8 
REMARK       I    between atoms: C_8  and  N_9 
REMARK    3  A    between atoms: N_9  and  C_10 
REMARK    4  A    between atoms: C_13  and  N_14 
ROOT
HETATM    1  C   UNL     1       5.432  26.629  55.541  1.00  0.00     0.252 C 
HETATM    2  N   UNL     1       5.081  27.934  55.268  1.00  0.00    -0.352 N 
HETATM    3  O   UNL     1       5.128  26.058  56.581  1.00  0.00    -0.268 OA
HETATM    4  H   UNL     1       5.240  28.264  54.322  1.00  0.00     0.163 HD
ENDROOT
BRANCH   1   5
HETATM    5  C   UNL     1       6.187  25.887  54.487  1.00  0.00     0.032 A 
HETATM    6  C   UNL     1       6.543  24.536  54.612  1.00  0.00     0.031 A 
HETATM    7  C   UNL     1       7.253  23.881  53.591  1.00  0.00    -0.001 A 
HETATM    8  C   UNL     1       7.583  24.598  52.432  1.00  0.00     0.014 A 
HETATM    9  C   UNL     1       7.221  25.938  52.293  1.00  0.00     0.002 A 
HETATM   10  C   UNL     1       6.525  26.579  53.317  1.00  0.00     0.017 A 
BRANCH   7  11
HETATM   11  C   UNL     1       7.644  22.482  53.727  1.00  0.00     0.086 A 
HETATM   12  O   UNL     1       7.774  22.013  55.005  1.00  0.00    -0.315 OA
HETATM   13  C   UNL     1       8.186  20.716  54.922  1.00  0.00     0.050 A 
HETATM   14  C   UNL     1       8.422  20.010  56.197  1.00  0.00     0.076 C 
HETATM   15  C   UNL     1       8.298  20.338  53.603  1.00  0.00     0.035 A 
HETATM   16  C   UNL     1       7.954  21.476  52.833  1.00  0.00     0.040 A 
ENDBRANCH   7  11
ENDBRANCH   1   5
BRANCH   2  17
HETATM   17  C   UNL     1       4.326  28.840  56.127  1.00  0.00     0.084 C 
HETATM   18  C   UNL     1       5.113  29.335  57.346  1.00  0.00     0.027 C 
HETATM   19  C   UNL     1       6.019  30.534  57.075  1.00  0.00     0.035 C 
HETATM   20  C   UNL     1       5.344  31.662  56.294  1.00  0.00     0.183 C 
HETATM   21  C   UNL     1       4.474  31.223  55.117  1.00  0.00     0.035 C 
HETATM   22  C   UNL     1       3.618  29.984  55.388  1.00  0.00     0.027 C 
BRANCH  20  23
HETATM   23  N   UNL     1       4.480  32.433  57.244  1.00  0.00    -0.075 N 
HETATM   24  H   UNL     1       3.484  32.200  57.154  1.00  0.00     0.274 HD
HETATM   25  H   UNL     1       4.758  32.255  58.219  1.00  0.00     0.274 HD
HETATM   26  H   UNL     1       4.580  33.445  57.089  1.00  0.00     0.274 HD
ENDBRANCH  20  23
ENDBRANCH   2  17
TORSDOF 4
ENDMDL
MODEL 8
REMARK VINA RESULT:      -7.8      3.374      9.515
REMARK  4 active torsions:
REMARK  status: ('A' for Active; 'I' for Inactive)
REMARK    1  A    between atoms: C_4  and  C_5 
REMARK    2  A    between atoms: C_7  and  C_8 
REMARK       I    between atoms: C_8  and  N_9 
REMARK    3  A    between atoms: N_9  and  C_10 
REMARK    4  A    between atoms: C_13  and  N_14 
ROOT
HETATM    1  C   UNL     1       6.947  31.764  59.255  1.00  0.00     0.252 C 
HETATM    2  N   UNL     1       7.346  30.536  58.773  1.00  0.00    -0.352 N 
HETATM    3  O   UNL     1       6.426  32.622  58.553  1.00  0.00    -0.268 OA
HETATM    4  H   UNL     1       7.618  29.841  59.459  1.00  0.00     0.163 HD
ENDROOT
BRANCH   1   5
HETATM    5  C   UNL     1       7.137  32.024  60.714  1.00  0.00     0.032 A 
HETATM    6  C   UNL     1       6.139  32.583  61.526  1.00  0.00     0.031 A 
HETATM    7  C   UNL     1       6.367  32.807  62.895  1.00  0.00    -0.001 A 
HETATM    8  C   UNL     1       7.604  32.440  63.442  1.00  0.00     0.014 A 
HETATM    9  C   UNL     1       8.597  31.869  62.645  1.00  0.00     0.002 A 
HETATM   10  C   UNL     1       8.363  31.662  61.286  1.00  0.00     0.017 A 
BRANCH   7  11
HETATM   11  C   UNL     1       5.340  33.409  63.738  1.00  0.00     0.086 A 
HETATM   12  O   UNL     1       5.595  33.426  65.082  1.00  0.00    -0.315 OA
HETATM   13  C   UNL     1       4.510  33.979  65.695  1.00  0.00     0.050 A 
HETATM   14  C   UNL     1       4.554  34.074  67.167  1.00  0.00     0.076 C 
HETATM   15  C   UNL     1       3.569  34.340  64.757  1.00  0.00     0.035 A 
HETATM   16  C   UNL     1       4.100  33.969  63.498  1.00  0.00     0.040 A 
ENDBRANCH   7  11
ENDBRANCH   1   5
BRANCH   2  17
HETATM   17  C   UNL     1       7.236  30.052  57.401  1.00  0.00     0.084 C 
HETATM   18  C   UNL     1       8.329  29.051  57.010  1.00  0.00     0.027 C 
HETATM   19  C   UNL     1       8.045  27.607  57.418  1.00  0.00     0.035 C 
HETATM   20  C   UNL     1       6.636  27.126  57.074  1.00  0.00     0.183 C 
HETATM   21  C   UNL     1       5.510  28.119  57.362  1.00  0.00     0.035 C 
HETATM   22  C   UNL     1       5.835  29.569  57.001  1.00  0.00     0.027 C 
BRANCH  20  23
HETATM   23  N   UNL     1       6.601  26.800  55.612  1.00  0.00    -0.075 N 
HETATM   24  H   UNL     1       7.156  27.453  55.046  1.00  0.00     0.274 HD
HETATM   25  H   UNL     1       6.959  25.851  55.440  1.00  0.00     0.274 HD
HETATM   26  H   UNL     1       5.636  26.820  55.257  1.00  0.00     0.274 HD
ENDBRANCH  20  23
ENDBRANCH   2  17
TORSDOF 4
ENDMDL
MODEL 9
REMARK VINA RESULT:      -7.6      3.052      4.534
REMARK  4 active torsions:
REMARK  status: ('A' for Active; 'I' for Inactive)
REMARK    1  A    between atoms: C_4  and  C_5 
REMARK    2  A    between atoms: C_7  and  C_8 
REMARK       I    between atoms: C_8  and  N_9 
REMARK    3  A    between atoms: N_9  and  C_10 
REMARK    4  A    between atoms: C_13  and  N_14 
ROOT
HETATM    1  C   UNL     1       6.747  27.822  53.655  1.00  0.00     0.252 C 
HETATM    2  N   UNL     1       7.236  28.058  54.922  1.00  0.00    -0.352 N 
HETATM    3  O   UNL     1       6.633  28.699  52.807  1.00  0.00    -0.268 OA
HETATM    4  H   UNL     1       7.440  27.246  55.493  1.00  0.00     0.163 HD
ENDROOT
BRANCH   1   5
HETATM    5  C   UNL     1       6.379  26.415  53.312  1.00  0.00     0.032 A 
HETATM    6  C   UNL     1       7.110  25.305  53.761  1.00  0.00     0.031 A 
HETATM    7  C   UNL     1       6.723  24.000  53.411  1.00  0.00    -0.001 A 
HETATM    8  C   UNL     1       5.577  23.825  52.622  1.00  0.00     0.014 A 
HETATM    9  C   UNL     1       4.837  24.922  52.183  1.00  0.00     0.002 A 
HETATM   10  C   UNL     1       5.237  26.213  52.528  1.00  0.00     0.017 A 
BRANCH   7  11
HETATM   11  C   UNL     1       7.492  22.844  53.857  1.00  0.00     0.086 A 
HETATM   12  O   UNL     1       7.455  22.574  55.198  1.00  0.00    -0.315 OA
HETATM   13  C   UNL     1       8.264  21.500  55.420  1.00  0.00     0.050 A 
HETATM   14  C   UNL     1       8.400  21.046  56.818  1.00  0.00     0.076 C 
HETATM   15  C   UNL     1       8.802  21.059  54.231  1.00  0.00     0.035 A 
HETATM   16  C   UNL     1       8.309  21.927  53.226  1.00  0.00     0.040 A 
ENDBRANCH   7  11
ENDBRANCH   1   5
BRANCH   2  17
HETATM   17  C   UNL     1       7.680  29.335  55.470  1.00  0.00     0.084 C 
HETATM   18  C   UNL     1       6.665  29.990  56.414  1.00  0.00     0.027 C 
HETATM   19  C   UNL     1       6.719  29.486  57.854  1.00  0.00     0.035 C 
HETATM   20  C   UNL     1       8.130  29.418  58.439  1.00  0.00     0.183 C 
HETATM   21  C   UNL     1       9.204  28.853  57.510  1.00  0.00     0.035 C 
HETATM   22  C   UNL     1       9.097  29.323  56.058  1.00  0.00     0.027 C 
BRANCH  20  23
HETATM   23  N   UNL     1       8.538  30.806  58.828  1.00  0.00    -0.075 N 
HETATM   24  H   UNL     1       9.062  30.832  59.712  1.00  0.00     0.274 HD
HETATM   25  H   UNL     1       9.127  31.233  58.101  1.00  0.00     0.274 HD
HETATM   26  H   UNL     1       7.714  31.412  58.935  1.00  0.00     0.274 HD
ENDBRANCH  20  23
ENDBRANCH   2  17
TORSDOF 4
ENDMDL
MODEL 10
REMARK VINA RESULT:      -7.4      3.130      4.659
REMARK  4 active torsions:
REMARK  status: ('A' for Active; 'I' for Inactive)
REMARK    1  A    between atoms: C_4  and  C_5 
REMARK    2  A    between atoms: C_7  and  C_8 
REMARK       I    between atoms: C_8  and  N_9 
REMARK    3  A    between atoms: N_9  and  C_10 
REMARK    4  A    between atoms: C_13  and  N_14 
ROOT
HETATM    1  C   UNL     1       6.051  26.314  55.871  1.00  0.00     0.252 C 
HETATM    2  N   UNL     1       6.770  27.355  56.418  1.00  0.00    -0.352 N 
HETATM    3  O   UNL     1       4.958  25.960  56.296  1.00  0.00    -0.268 OA
HETATM    4  H   UNL     1       7.582  27.672  55.902  1.00  0.00     0.163 HD
ENDROOT
BRANCH   1   5
HETATM    5  C   UNL     1       6.637  25.625  54.682  1.00  0.00     0.032 A 
HETATM    6  C   UNL     1       7.002  24.270  54.689  1.00  0.00     0.031 A 
HETATM    7  C   UNL     1       7.549  23.667  53.544  1.00  0.00    -0.001 A 
HETATM    8  C   UNL     1       7.704  24.439  52.384  1.00  0.00     0.014 A 
HETATM    9  C   UNL     1       7.330  25.782  52.363  1.00  0.00     0.002 A 
HETATM   10  C   UNL     1       6.798  26.373  53.509  1.00  0.00     0.017 A 
BRANCH   7  11
HETATM   11  C   UNL     1       7.951  22.265  53.553  1.00  0.00     0.086 A 
HETATM   12  O   UNL     1       8.226  21.723  54.779  1.00  0.00    -0.315 OA
HETATM   13  C   UNL     1       8.623  20.436  54.576  1.00  0.00     0.050 A 
HETATM   14  C   UNL     1       9.002  19.659  55.772  1.00  0.00     0.076 C 
HETATM   15  C   UNL     1       8.584  20.135  53.232  1.00  0.00     0.035 A 
HETATM   16  C   UNL     1       8.156  21.313  52.574  1.00  0.00     0.040 A 
ENDBRANCH   7  11
ENDBRANCH   1   5
BRANCH   2  17
HETATM   17  C   UNL     1       6.389  28.186  57.556  1.00  0.00     0.084 C 
HETATM   18  C   UNL     1       7.567  28.917  58.209  1.00  0.00     0.027 C 
HETATM   19  C   UNL     1       7.957  30.228  57.531  1.00  0.00     0.035 C 
HETATM   20  C   UNL     1       6.775  31.146  57.221  1.00  0.00     0.183 C 
HETATM   21  C   UNL     1       5.537  30.458  56.647  1.00  0.00     0.035 C 
HETATM   22  C   UNL     1       5.197  29.117  57.299  1.00  0.00     0.027 C 
BRANCH  20  23
HETATM   23  N   UNL     1       6.375  31.833  58.490  1.00  0.00    -0.075 N 
HETATM   24  H   UNL     1       5.644  31.326  59.003  1.00  0.00     0.274 HD
HETATM   25  H   UNL     1       7.182  31.942  59.119  1.00  0.00     0.274 HD
HETATM   26  H   UNL     1       6.022  32.780  58.297  1.00  0.00     0.274 HD
ENDBRANCH  20  23
ENDBRANCH   2  17
TORSDOF 4
ENDMDL
