MODEL 1
REMARK VINA RESULT:      -9.7      0.000      0.000
REMARK  8 active torsions:
REMARK  status: ('A' for Active; 'I' for Inactive)
REMARK    1  A    between atoms: C_2  and  C_3 
REMARK    2  A    between atoms: C_3  and  C_4 
REMARK    3  A    between atoms: C_4  and  N_5 
REMARK       I    between atoms: N_5  and  C_6 
REMARK    4  A    between atoms: C_6  and  C_7 
REMARK    5  A    between atoms: C_14  and  S_15 
REMARK    6  A    between atoms: S_15  and  N_16 
REMARK    7  A    between atoms: N_16  and  C_17 
REMARK    8  A    between atoms: C_19  and  O_20 
ROOT
HETATM    1  C   UNL     1       6.845  25.824  56.085  1.00  0.00     0.098 A 
HETATM    2  C   UNL     1       7.517  26.865  56.915  1.00  0.00     0.201 A 
HETATM    3  O   UNL     1       8.644  26.701  57.374  1.00  0.00    -0.286 OA
HETATM    4  C   UNL     1       6.776  28.125  57.194  1.00  0.00     0.043 A 
HETATM    5  C   UNL     1       5.478  28.282  56.677  1.00  0.00     0.046 A 
HETATM    6  N   UNL     1       4.903  27.249  55.929  1.00  0.00    -0.364 N 
HETATM    7  C   UNL     1       7.368  29.128  57.969  1.00  0.00     0.043 A 
HETATM    8  C   UNL     1       6.639  30.287  58.248  1.00  0.00     0.081 A 
HETATM    9  C   UNL     1       5.347  30.460  57.742  1.00  0.00     0.027 A 
HETATM   10  C   UNL     1       4.768  29.452  56.963  1.00  0.00     0.032 A 
HETATM   11  C   UNL     1       5.602  26.101  55.655  1.00  0.00     0.109 A 
HETATM   12  H   UNL     1       4.008  27.394  55.476  1.00  0.00     0.165 HD
ENDROOT
BRANCH   8  13
HETATM   13  S   UNL     1       7.401  31.565  59.226  1.00  0.00     0.263 S 
HETATM   14  O   UNL     1       8.749  31.730  58.728  1.00  0.00    -0.200 OA
HETATM   15  O   UNL     1       6.484  32.681  59.299  1.00  0.00    -0.200 OA
BRANCH  13  16
HETATM   16  N   UNL     1       7.535  30.838  60.745  1.00  0.00    -0.281 N 
HETATM   17  H   UNL     1       7.211  29.873  60.743  1.00  0.00     0.179 HD
BRANCH  16  18
HETATM   18  C   UNL     1       7.274  31.620  61.905  1.00  0.00     0.045 A 
HETATM   19  C   UNL     1       5.958  31.775  62.350  1.00  0.00     0.066 A 
HETATM   20  C   UNL     1       5.694  32.529  63.493  1.00  0.00     0.070 A 
HETATM   21  C   UNL     1       6.758  33.091  64.203  1.00  0.00     0.037 A 
HETATM   22  C   UNL     1       8.072  32.924  63.765  1.00  0.00     0.005 A 
HETATM   23  C   UNL     1       8.333  32.190  62.610  1.00  0.00     0.030 A 
BRANCH  20  24
HETATM   24  O   UNL     1       4.456  32.781  64.018  1.00  0.00    -0.356 OA
HETATM   25  C   UNL     1       4.071  34.149  64.118  1.00  0.00     0.210 C 
ENDBRANCH  20  24
ENDBRANCH  16  18
ENDBRANCH  13  16
ENDBRANCH   8  13
BRANCH   1  26
HETATM   26  C   UNL     1       7.447  24.507  55.726  1.00  0.00     0.257 C 
HETATM   27  N   UNL     1       7.909  24.404  54.439  1.00  0.00    -0.357 N 
HETATM   28  H   UNL     1       7.785  25.201  53.813  1.00  0.00     0.162 HD
HETATM   29  O   UNL     1       7.529  23.594  56.543  1.00  0.00    -0.267 OA
BRANCH  27  30
HETATM   30  C   UNL     1       8.570  23.222  53.932  1.00  0.00     0.123 C 
BRANCH  30  31
HETATM   31  C   UNL     1       7.596  22.271  53.241  1.00  0.00     0.019 C 
BRANCH  31  32
HETATM   32  C   UNL     1       8.162  20.853  53.182  1.00  0.00    -0.003 C 
HETATM   33  C   UNL     1       8.296  20.244  54.568  1.00  0.00     0.005 C 
ENDBRANCH  31  32
ENDBRANCH  30  31
ENDBRANCH  27  30
ENDBRANCH   1  26
TORSDOF 8
ENDMDL
MODEL 2
REMARK VINA RESULT:      -9.6      2.512      9.946
REMARK  8 active torsions:
REMARK  status: ('A' for Active; 'I' for Inactive)
REMARK    1  A    between atoms: C_2  and  C_3 
REMARK    2  A    between atoms: C_3  and  C_4 
REMARK    3  A    between atoms: C_4  and  N_5 
REMARK       I    between atoms: N_5  and  C_6 
REMARK    4  A    between atoms: C_6  and  C_7 
REMARK    5  A    between atoms: C_14  and  S_15 
REMARK    6  A    between atoms: S_15  and  N_16 
REMARK    7  A    between atoms: N_16  and  C_17 
REMARK    8  A    between atoms: C_19  and  O_20 
ROOT
HETATM    1  C   UNL     1       7.191  30.748  58.200  1.00  0.00     0.098 A 
HETATM    2  C   UNL     1       7.488  29.551  57.362  1.00  0.00     0.201 A 
HETATM    3  O   UNL     1       8.518  28.897  57.505  1.00  0.00    -0.286 OA
HETATM    4  C   UNL     1       6.500  29.163  56.318  1.00  0.00     0.043 A 
HETATM    5  C   UNL     1       5.339  29.939  56.157  1.00  0.00     0.046 A 
HETATM    6  N   UNL     1       5.143  31.065  56.963  1.00  0.00    -0.364 N 
HETATM    7  C   UNL     1       6.738  28.047  55.509  1.00  0.00     0.043 A 
HETATM    8  C   UNL     1       5.814  27.724  54.512  1.00  0.00     0.081 A 
HETATM    9  C   UNL     1       4.653  28.484  54.338  1.00  0.00     0.027 A 
HETATM   10  C   UNL     1       4.424  29.595  55.158  1.00  0.00     0.032 A 
HETATM   11  C   UNL     1       6.046  31.401  57.940  1.00  0.00     0.109 A 
HETATM   12  H   UNL     1       4.265  31.572  56.916  1.00  0.00     0.165 HD
ENDROOT
BRANCH   8  13
HETATM   13  S   UNL     1       6.117  26.297  53.492  1.00  0.00     0.263 S 
HETATM   14  O   UNL     1       5.016  25.383  53.707  1.00  0.00    -0.200 OA
HETATM   15  O   UNL     1       6.464  26.758  52.166  1.00  0.00    -0.200 OA
BRANCH  13  16
HETATM   16  N   UNL     1       7.470  25.599  54.224  1.00  0.00    -0.281 N 
HETATM   17  H   UNL     1       8.296  26.190  54.154  1.00  0.00     0.179 HD
BRANCH  16  18
HETATM   18  C   UNL     1       7.655  24.191  54.124  1.00  0.00     0.045 A 
HETATM   19  C   UNL     1       7.574  23.401  55.273  1.00  0.00     0.066 A 
HETATM   20  C   UNL     1       7.741  22.019  55.182  1.00  0.00     0.070 A 
HETATM   21  C   UNL     1       7.952  21.437  53.930  1.00  0.00     0.037 A 
HETATM   22  C   UNL     1       8.020  22.226  52.781  1.00  0.00     0.005 A 
HETATM   23  C   UNL     1       7.876  23.608  52.876  1.00  0.00     0.030 A 
BRANCH  20  24
HETATM   24  O   UNL     1       7.713  21.138  56.228  1.00  0.00    -0.356 OA
HETATM   25  C   UNL     1       8.930  20.463  56.527  1.00  0.00     0.210 C 
ENDBRANCH  20  24
ENDBRANCH  16  18
ENDBRANCH  13  16
ENDBRANCH   8  13
BRANCH   1  26
HETATM   26  C   UNL     1       8.082  31.272  59.276  1.00  0.00     0.257 C 
HETATM   27  N   UNL     1       8.228  30.453  60.366  1.00  0.00    -0.357 N 
HETATM   28  H   UNL     1       7.706  29.575  60.389  1.00  0.00     0.162 HD
HETATM   29  O   UNL     1       8.648  32.356  59.171  1.00  0.00    -0.267 OA
BRANCH  27  30
HETATM   30  C   UNL     1       9.093  30.772  61.480  1.00  0.00     0.123 C 
BRANCH  30  31
HETATM   31  C   UNL     1       8.306  31.044  62.760  1.00  0.00     0.019 C 
BRANCH  31  32
HETATM   32  C   UNL     1       7.761  32.472  62.776  1.00  0.00    -0.003 C 
HETATM   33  C   UNL     1       7.809  33.075  64.170  1.00  0.00     0.005 C 
ENDBRANCH  31  32
ENDBRANCH  30  31
ENDBRANCH  27  30
ENDBRANCH   1  26
TORSDOF 8
ENDMDL
MODEL 3
REMARK VINA RESULT:      -9.5      1.429      1.643
REMARK  8 active torsions:
REMARK  status: ('A' for Active; 'I' for Inactive)
REMARK    1  A    between atoms: C_2  and  C_3 
REMARK    2  A    between atoms: C_3  and  C_4 
REMARK    3  A    between atoms: C_4  and  N_5 
REMARK       I    between atoms: N_5  and  C_6 
REMARK    4  A    between atoms: C_6  and  C_7 
REMARK    5  A    between atoms: C_14  and  S_15 
REMARK    6  A    between atoms: S_15  and  N_16 
REMARK    7  A    between atoms: N_16  and  C_17 
REMARK    8  A    between atoms: C_19  and  O_20 
ROOT
HETATM    1  C   UNL     1       7.020  27.122  55.598  1.00  0.00     0.098 A 
HETATM    2  C   UNL     1       7.692  27.592  56.844  1.00  0.00     0.201 A 
HETATM    3  O   UNL     1       8.527  26.907  57.429  1.00  0.00    -0.286 OA
HETATM    4  C   UNL     1       7.315  28.926  57.384  1.00  0.00     0.043 A 
HETATM    5  C   UNL     1       6.341  29.684  56.710  1.00  0.00     0.046 A 
HETATM    6  N   UNL     1       5.734  29.164  55.562  1.00  0.00    -0.364 N 
HETATM    7  C   UNL     1       7.919  29.406  58.550  1.00  0.00     0.043 A 
HETATM    8  C   UNL     1       7.523  30.645  59.059  1.00  0.00     0.081 A 
HETATM    9  C   UNL     1       6.556  31.413  58.401  1.00  0.00     0.027 A 
HETATM   10  C   UNL     1       5.962  30.924  57.232  1.00  0.00     0.032 A 
HETATM   11  C   UNL     1       6.106  27.945  55.056  1.00  0.00     0.109 A 
HETATM   12  H   UNL     1       5.102  29.744  55.020  1.00  0.00     0.165 HD
ENDROOT
BRANCH   8  13
HETATM   13  S   UNL     1       8.303  31.256  60.538  1.00  0.00     0.263 S 
HETATM   14  O   UNL     1       9.452  30.414  60.787  1.00  0.00    -0.200 OA
HETATM   15  O   UNL     1       8.434  32.692  60.417  1.00  0.00    -0.200 OA
BRANCH  13  16
HETATM   16  N   UNL     1       7.168  30.887  61.734  1.00  0.00    -0.281 N 
HETATM   17  H   UNL     1       6.376  30.362  61.368  1.00  0.00     0.179 HD
BRANCH  16  18
HETATM   18  C   UNL     1       6.909  31.846  62.753  1.00  0.00     0.045 A 
HETATM   19  C   UNL     1       5.590  32.137  63.108  1.00  0.00     0.066 A 
HETATM   20  C   UNL     1       5.327  33.066  64.115  1.00  0.00     0.070 A 
HETATM   21  C   UNL     1       6.395  33.669  64.784  1.00  0.00     0.037 A 
HETATM   22  C   UNL     1       7.713  33.368  64.438  1.00  0.00     0.005 A 
HETATM   23  C   UNL     1       7.973  32.457  63.416  1.00  0.00     0.030 A 
BRANCH  20  24
HETATM   24  O   UNL     1       4.088  33.459  64.539  1.00  0.00    -0.356 OA
HETATM   25  C   UNL     1       4.044  34.321  65.672  1.00  0.00     0.210 C 
ENDBRANCH  20  24
ENDBRANCH  16  18
ENDBRANCH  13  16
ENDBRANCH   8  13
BRANCH   1  26
HETATM   26  C   UNL     1       7.279  25.809  54.939  1.00  0.00     0.257 C 
HETATM   27  N   UNL     1       7.166  24.712  55.753  1.00  0.00    -0.357 N 
HETATM   28  H   UNL     1       6.953  24.859  56.741  1.00  0.00     0.162 HD
HETATM   29  O   UNL     1       7.558  25.733  53.746  1.00  0.00    -0.267 OA
BRANCH  27  30
HETATM   30  C   UNL     1       7.330  23.357  55.275  1.00  0.00     0.123 C 
BRANCH  30  31
HETATM   31  C   UNL     1       8.798  22.946  55.200  1.00  0.00     0.019 C 
BRANCH  31  32
HETATM   32  C   UNL     1       9.008  21.844  54.162  1.00  0.00    -0.003 C 
HETATM   33  C   UNL     1       7.951  21.892  53.071  1.00  0.00     0.005 C 
ENDBRANCH  31  32
ENDBRANCH  30  31
ENDBRANCH  27  30
ENDBRANCH   1  26
TORSDOF 8
ENDMDL
MODEL 4
REMARK VINA RESULT:      -9.5      2.885      9.729
REMARK  8 active torsions:
REMARK  status: ('A' for Active; 'I' for Inactive)
REMARK    1  A    between atoms: C_2  and  C_3 
REMARK    2  A    between atoms: C_3  and  C_4 
REMARK    3  A    between atoms: C_4  and  N_5 
REMARK       I    between atoms: N_5  and  C_6 
REMARK    4  A    between atoms: C_6  and  C_7 
REMARK    5  A    between atoms: C_14  and  S_15 
REMARK    6  A    between atoms: S_15  and  N_16 
REMARK    7  A    between atoms: N_16  and  C_17 
REMARK    8  A    between atoms: C_19  and  O_20 
ROOT
HETATM    1  C   UNL     1       9.171  30.512  58.293  1.00  0.00     0.098 A 
HETATM    2  C   UNL     1       7.879  29.961  57.794  1.00  0.00     0.201 A 
HETATM    3  O   UNL     1       6.846  30.028  58.456  1.00  0.00    -0.286 OA
HETATM    4  C   UNL     1       7.865  29.302  56.459  1.00  0.00     0.043 A 
HETATM    5  C   UNL     1       9.064  29.218  55.730  1.00  0.00     0.046 A 
HETATM    6  N   UNL     1      10.244  29.733  56.276  1.00  0.00    -0.364 N 
HETATM    7  C   UNL     1       6.675  28.771  55.953  1.00  0.00     0.043 A 
HETATM    8  C   UNL     1       6.694  28.126  54.714  1.00  0.00     0.081 A 
HETATM    9  C   UNL     1       7.877  28.032  53.974  1.00  0.00     0.027 A 
HETATM   10  C   UNL     1       9.061  28.573  54.489  1.00  0.00     0.032 A 
HETATM   11  C   UNL     1      10.243  30.361  57.496  1.00  0.00     0.109 A 
HETATM   12  H   UNL     1      11.089  29.759  55.716  1.00  0.00     0.165 HD
ENDROOT
BRANCH   8  13
HETATM   13  S   UNL     1       5.175  27.461  54.069  1.00  0.00     0.263 S 
HETATM   14  O   UNL     1       4.113  28.349  54.489  1.00  0.00    -0.200 OA
HETATM   15  O   UNL     1       5.381  27.141  52.673  1.00  0.00    -0.200 OA
BRANCH  13  16
HETATM   16  N   UNL     1       4.988  26.036  54.957  1.00  0.00    -0.281 N 
HETATM   17  H   UNL     1       4.450  26.179  55.810  1.00  0.00     0.179 HD
BRANCH  16  18
HETATM   18  C   UNL     1       6.068  25.110  55.004  1.00  0.00     0.045 A 
HETATM   19  C   UNL     1       6.357  24.329  53.882  1.00  0.00     0.066 A 
HETATM   20  C   UNL     1       7.421  23.428  53.915  1.00  0.00     0.070 A 
HETATM   21  C   UNL     1       8.211  23.346  55.065  1.00  0.00     0.037 A 
HETATM   22  C   UNL     1       7.930  24.136  56.180  1.00  0.00     0.005 A 
HETATM   23  C   UNL     1       6.852  25.018  56.153  1.00  0.00     0.030 A 
BRANCH  20  24
HETATM   24  O   UNL     1       7.793  22.589  52.902  1.00  0.00    -0.356 OA
HETATM   25  C   UNL     1       8.406  21.361  53.281  1.00  0.00     0.210 C 
ENDBRANCH  20  24
ENDBRANCH  16  18
ENDBRANCH  13  16
ENDBRANCH   8  13
BRANCH   1  26
HETATM   26  C   UNL     1       9.352  31.189  59.611  1.00  0.00     0.257 C 
HETATM   27  N   UNL     1       9.035  30.430  60.708  1.00  0.00    -0.357 N 
HETATM   28  H   UNL     1       8.671  29.488  60.560  1.00  0.00     0.162 HD
HETATM   29  O   UNL     1       9.772  32.340  59.689  1.00  0.00    -0.267 OA
BRANCH  27  30
HETATM   30  C   UNL     1       9.198  30.903  62.065  1.00  0.00     0.123 C 
BRANCH  30  31
HETATM   31  C   UNL     1       7.865  31.279  62.708  1.00  0.00     0.019 C 
BRANCH  31  32
HETATM   32  C   UNL     1       7.755  32.791  62.898  1.00  0.00    -0.003 C 
HETATM   33  C   UNL     1       7.606  33.163  64.364  1.00  0.00     0.005 C 
ENDBRANCH  31  32
ENDBRANCH  30  31
ENDBRANCH  27  30
ENDBRANCH   1  26
TORSDOF 8
ENDMDL
MODEL 5
REMARK VINA RESULT:      -9.2      2.769      9.539
REMARK  8 active torsions:
REMARK  status: ('A' for Active; 'I' for Inactive)
REMARK    1  A    between atoms: C_2  and  C_3 
REMARK    2  A    between atoms: C_3  and  C_4 
REMARK    3  A    between atoms: C_4  and  N_5 
REMARK       I    between atoms: N_5  and  C_6 
REMARK    4  A    between atoms: C_6  and  C_7 
REMARK    5  A    between atoms: C_14  and  S_15 
REMARK    6  A    between atoms: S_15  and  N_16 
REMARK    7  A    between atoms: N_16  and  C_17 
REMARK    8  A    between atoms: C_19  and  O_20 
ROOT
HETATM    1  C   UNL     1       6.510  30.158  57.241  1.00  0.00     0.098 A 
HETATM    2  C   UNL     1       7.132  29.179  56.304  1.00  0.00     0.201 A 
HETATM    3  O   UNL     1       8.333  28.921  56.337  1.00  0.00    -0.286 OA
HETATM    4  C   UNL     1       6.257  28.518  55.297  1.00  0.00     0.043 A 
HETATM    5  C   UNL     1       4.891  28.846  55.263  1.00  0.00     0.046 A 
HETATM    6  N   UNL     1       4.385  29.795  56.157  1.00  0.00    -0.364 N 
HETATM    7  C   UNL     1       6.799  27.595  54.398  1.00  0.00     0.043 A 
HETATM    8  C   UNL     1       5.965  27.014  53.438  1.00  0.00     0.081 A 
HETATM    9  C   UNL     1       4.603  27.328  53.389  1.00  0.00     0.027 A 
HETATM   10  C   UNL     1       4.072  28.250  54.299  1.00  0.00     0.032 A 
HETATM   11  C   UNL     1       5.193  30.381  57.098  1.00  0.00     0.109 A 
HETATM   12  H   UNL     1       3.386  29.965  56.199  1.00  0.00     0.165 HD
ENDROOT
BRANCH   8  13
HETATM   13  S   UNL     1       6.657  25.831  52.303  1.00  0.00     0.263 S 
HETATM   14  O   UNL     1       5.941  25.976  51.054  1.00  0.00    -0.200 OA
HETATM   15  O   UNL     1       8.099  25.941  52.361  1.00  0.00    -0.200 OA
BRANCH  13  16
HETATM   16  N   UNL     1       6.173  24.355  52.966  1.00  0.00    -0.281 N 
HETATM   17  H   UNL     1       5.228  24.391  53.343  1.00  0.00     0.179 HD
BRANCH  16  18
HETATM   18  C   UNL     1       7.132  23.567  53.663  1.00  0.00     0.045 A 
HETATM   19  C   UNL     1       7.356  23.798  55.023  1.00  0.00     0.066 A 
HETATM   20  C   UNL     1       8.285  23.023  55.717  1.00  0.00     0.070 A 
HETATM   21  C   UNL     1       8.956  21.996  55.048  1.00  0.00     0.037 A 
HETATM   22  C   UNL     1       8.721  21.758  53.693  1.00  0.00     0.005 A 
HETATM   23  C   UNL     1       7.810  22.548  52.995  1.00  0.00     0.030 A 
BRANCH  20  24
HETATM   24  O   UNL     1       8.618  23.161  57.036  1.00  0.00    -0.356 OA
HETATM   25  C   UNL     1       8.867  24.486  57.497  1.00  0.00     0.210 C 
ENDBRANCH  20  24
ENDBRANCH  16  18
ENDBRANCH  13  16
ENDBRANCH   8  13
BRANCH   1  26
HETATM   26  C   UNL     1       7.251  30.910  58.296  1.00  0.00     0.257 C 
HETATM   27  N   UNL     1       8.178  30.181  58.995  1.00  0.00    -0.357 N 
HETATM   28  H   UNL     1       8.277  29.187  58.780  1.00  0.00     0.162 HD
HETATM   29  O   UNL     1       7.042  32.103  58.501  1.00  0.00    -0.267 OA
BRANCH  27  30
HETATM   30  C   UNL     1       9.024  30.756  60.016  1.00  0.00     0.123 C 
BRANCH  30  31
HETATM   31  C   UNL     1       8.335  30.801  61.377  1.00  0.00     0.019 C 
BRANCH  31  32
HETATM   32  C   UNL     1       8.948  31.880  62.268  1.00  0.00    -0.003 C 
HETATM   33  C   UNL     1       7.908  32.514  63.178  1.00  0.00     0.005 C 
ENDBRANCH  31  32
ENDBRANCH  30  31
ENDBRANCH  27  30
ENDBRANCH   1  26
TORSDOF 8
ENDMDL
MODEL 6
REMARK VINA RESULT:      -8.9      2.443      3.107
REMARK  8 active torsions:
REMARK  status: ('A' for Active; 'I' for Inactive)
REMARK    1  A    between atoms: C_2  and  C_3 
REMARK    2  A    between atoms: C_3  and  C_4 
REMARK    3  A    between atoms: C_4  and  N_5 
REMARK       I    between atoms: N_5  and  C_6 
REMARK    4  A    between atoms: C_6  and  C_7 
REMARK    5  A    between atoms: C_14  and  S_15 
REMARK    6  A    between atoms: S_15  and  N_16 
REMARK    7  A    between atoms: N_16  and  C_17 
REMARK    8  A    between atoms: C_19  and  O_20 
ROOT
HETATM    1  C   UNL     1       7.274  28.146  55.361  1.00  0.00     0.098 A 
HETATM    2  C   UNL     1       7.177  28.494  56.807  1.00  0.00     0.201 A 
HETATM    3  O   UNL     1       6.224  28.141  57.498  1.00  0.00    -0.286 OA
HETATM    4  C   UNL     1       8.270  29.305  57.409  1.00  0.00     0.043 A 
HETATM    5  C   UNL     1       9.340  29.717  56.595  1.00  0.00     0.046 A 
HETATM    6  N   UNL     1       9.348  29.375  55.239  1.00  0.00    -0.364 N 
HETATM    7  C   UNL     1       8.219  29.655  58.762  1.00  0.00     0.043 A 
HETATM    8  C   UNL     1       9.238  30.448  59.295  1.00  0.00     0.081 A 
HETATM    9  C   UNL     1      10.310  30.867  58.501  1.00  0.00     0.027 A 
HETATM   10  C   UNL     1      10.353  30.505  57.149  1.00  0.00     0.032 A 
HETATM   11  C   UNL     1       8.349  28.605  54.698  1.00  0.00     0.109 A 
HETATM   12  H   UNL     1      10.160  29.588  54.670  1.00  0.00     0.165 HD
ENDROOT
BRANCH   8  13
HETATM   13  S   UNL     1       9.175  30.882  61.020  1.00  0.00     0.263 S 
HETATM   14  O   UNL     1       9.455  29.677  61.770  1.00  0.00    -0.200 OA
HETATM   15  O   UNL     1       9.955  32.085  61.211  1.00  0.00    -0.200 OA
BRANCH  13  16
HETATM   16  N   UNL     1       7.537  31.224  61.256  1.00  0.00    -0.281 N 
HETATM   17  H   UNL     1       6.997  31.142  60.397  1.00  0.00     0.179 HD
BRANCH  16  18
HETATM   18  C   UNL     1       7.175  32.256  62.167  1.00  0.00     0.045 A 
HETATM   19  C   UNL     1       6.210  33.196  61.797  1.00  0.00     0.066 A 
HETATM   20  C   UNL     1       5.841  34.203  62.688  1.00  0.00     0.070 A 
HETATM   21  C   UNL     1       6.417  34.236  63.961  1.00  0.00     0.037 A 
HETATM   22  C   UNL     1       7.371  33.288  64.334  1.00  0.00     0.005 A 
HETATM   23  C   UNL     1       7.756  32.296  63.434  1.00  0.00     0.030 A 
BRANCH  20  24
HETATM   24  O   UNL     1       4.934  35.197  62.443  1.00  0.00    -0.356 OA
HETATM   25  C   UNL     1       3.852  35.315  63.361  1.00  0.00     0.210 C 
ENDBRANCH  20  24
ENDBRANCH  16  18
ENDBRANCH  13  16
ENDBRANCH   8  13
BRANCH   1  26
HETATM   26  C   UNL     1       6.259  27.351  54.610  1.00  0.00     0.257 C 
HETATM   27  N   UNL     1       6.325  25.994  54.792  1.00  0.00    -0.357 N 
HETATM   28  H   UNL     1       7.065  25.618  55.386  1.00  0.00     0.162 HD
HETATM   29  O   UNL     1       5.421  27.892  53.894  1.00  0.00    -0.267 OA
BRANCH  27  30
HETATM   30  C   UNL     1       5.389  25.072  54.186  1.00  0.00     0.123 C 
BRANCH  30  31
HETATM   31  C   UNL     1       5.962  24.410  52.936  1.00  0.00     0.019 C 
BRANCH  31  32
HETATM   32  C   UNL     1       7.476  24.239  53.049  1.00  0.00    -0.003 C 
HETATM   33  C   UNL     1       7.884  22.777  52.970  1.00  0.00     0.005 C 
ENDBRANCH  31  32
ENDBRANCH  30  31
ENDBRANCH  27  30
ENDBRANCH   1  26
TORSDOF 8
ENDMDL
MODEL 7
REMARK VINA RESULT:      -8.5      7.424     11.109
REMARK  8 active torsions:
REMARK  status: ('A' for Active; 'I' for Inactive)
REMARK    1  A    between atoms: C_2  and  C_3 
REMARK    2  A    between atoms: C_3  and  C_4 
REMARK    3  A    between atoms: C_4  and  N_5 
REMARK       I    between atoms: N_5  and  C_6 
REMARK    4  A    between atoms: C_6  and  C_7 
REMARK    5  A    between atoms: C_14  and  S_15 
REMARK    6  A    between atoms: S_15  and  N_16 
REMARK    7  A    between atoms: N_16  and  C_17 
REMARK    8  A    between atoms: C_19  and  O_20 
ROOT
HETATM    1  C   UNL     1       6.927  26.222  53.804  1.00  0.00     0.098 A 
HETATM    2  C   UNL     1       6.135  25.681  52.663  1.00  0.00     0.201 A 
HETATM    3  O   UNL     1       5.957  24.475  52.510  1.00  0.00    -0.286 OA
HETATM    4  C   UNL     1       5.562  26.646  51.685  1.00  0.00     0.043 A 
HETATM    5  C   UNL     1       5.797  28.020  51.868  1.00  0.00     0.046 A 
HETATM    6  N   UNL     1       6.574  28.451  52.948  1.00  0.00    -0.364 N 
HETATM    7  C   UNL     1       4.813  26.182  50.600  1.00  0.00     0.043 A 
HETATM    8  C   UNL     1       4.317  27.104  49.675  1.00  0.00     0.081 A 
HETATM    9  C   UNL     1       4.540  28.475  49.841  1.00  0.00     0.027 A 
HETATM   10  C   UNL     1       5.286  28.928  50.935  1.00  0.00     0.032 A 
HETATM   11  C   UNL     1       7.076  27.557  53.859  1.00  0.00     0.109 A 
HETATM   12  H   UNL     1       6.667  29.443  53.138  1.00  0.00     0.165 HD
ENDROOT
BRANCH   8  13
HETATM   13  S   UNL     1       3.355  26.509  48.301  1.00  0.00     0.263 S 
HETATM   14  O   UNL     1       3.791  27.242  47.132  1.00  0.00    -0.200 OA
HETATM   15  O   UNL     1       3.372  25.063  48.333  1.00  0.00    -0.200 OA
BRANCH  13  16
HETATM   16  N   UNL     1       1.803  27.068  48.666  1.00  0.00    -0.281 N 
HETATM   17  H   UNL     1       1.252  26.377  49.174  1.00  0.00     0.179 HD
BRANCH  16  18
HETATM   18  C   UNL     1       1.126  27.884  47.717  1.00  0.00     0.045 A 
HETATM   19  C   UNL     1       1.205  29.275  47.823  1.00  0.00     0.066 A 
HETATM   20  C   UNL     1       0.555  30.083  46.890  1.00  0.00     0.070 A 
HETATM   21  C   UNL     1      -0.139  29.486  45.834  1.00  0.00     0.037 A 
HETATM   22  C   UNL     1      -0.206  28.096  45.722  1.00  0.00     0.005 A 
HETATM   23  C   UNL     1       0.425  27.291  46.668  1.00  0.00     0.030 A 
BRANCH  20  24
HETATM   24  O   UNL     1       0.529  31.450  46.893  1.00  0.00    -0.356 OA
HETATM   25  C   UNL     1      -0.453  32.068  47.719  1.00  0.00     0.210 C 
ENDBRANCH  20  24
ENDBRANCH  16  18
ENDBRANCH  13  16
ENDBRANCH   8  13
BRANCH   1  26
HETATM   26  C   UNL     1       7.573  25.388  54.859  1.00  0.00     0.257 C 
HETATM   27  N   UNL     1       8.101  24.199  54.426  1.00  0.00    -0.357 N 
HETATM   28  H   UNL     1       7.992  23.949  53.442  1.00  0.00     0.162 HD
HETATM   29  O   UNL     1       7.633  25.762  56.027  1.00  0.00    -0.267 OA
BRANCH  27  30
HETATM   30  C   UNL     1       8.810  23.289  55.297  1.00  0.00     0.123 C 
BRANCH  30  31
HETATM   31  C   UNL     1       8.485  21.829  54.991  1.00  0.00     0.019 C 
BRANCH  31  32
HETATM   32  C   UNL     1       7.867  21.684  53.601  1.00  0.00    -0.003 C 
HETATM   33  C   UNL     1       8.351  20.424  52.901  1.00  0.00     0.005 C 
ENDBRANCH  31  32
ENDBRANCH  30  31
ENDBRANCH  27  30
ENDBRANCH   1  26
TORSDOF 8
ENDMDL
MODEL 8
REMARK VINA RESULT:      -8.4      3.162      9.540
REMARK  8 active torsions:
REMARK  status: ('A' for Active; 'I' for Inactive)
REMARK    1  A    between atoms: C_2  and  C_3 
REMARK    2  A    between atoms: C_3  and  C_4 
REMARK    3  A    between atoms: C_4  and  N_5 
REMARK       I    between atoms: N_5  and  C_6 
REMARK    4  A    between atoms: C_6  and  C_7 
REMARK    5  A    between atoms: C_14  and  S_15 
REMARK    6  A    between atoms: S_15  and  N_16 
REMARK    7  A    between atoms: N_16  and  C_17 
REMARK    8  A    between atoms: C_19  and  O_20 
ROOT
HETATM    1  C   UNL     1       7.648  30.333  58.251  1.00  0.00     0.098 A 
HETATM    2  C   UNL     1       6.519  29.809  57.431  1.00  0.00     0.201 A 
HETATM    3  O   UNL     1       5.352  29.887  57.808  1.00  0.00    -0.286 OA
HETATM    4  C   UNL     1       6.837  29.162  56.129  1.00  0.00     0.043 A 
HETATM    5  C   UNL     1       8.181  29.063  55.728  1.00  0.00     0.046 A 
HETATM    6  N   UNL     1       9.189  29.554  56.564  1.00  0.00    -0.364 N 
HETATM    7  C   UNL     1       5.807  28.656  55.329  1.00  0.00     0.043 A 
HETATM    8  C   UNL     1       6.133  28.021  54.128  1.00  0.00     0.081 A 
HETATM    9  C   UNL     1       7.464  27.914  53.712  1.00  0.00     0.027 A 
HETATM   10  C   UNL     1       8.485  28.430  54.520  1.00  0.00     0.032 A 
HETATM   11  C   UNL     1       8.886  30.171  57.751  1.00  0.00     0.109 A 
HETATM   12  H   UNL     1      10.149  29.570  56.238  1.00  0.00     0.165 HD
ENDROOT
BRANCH   8  13
HETATM   13  S   UNL     1       4.819  27.388  53.107  1.00  0.00     0.263 S 
HETATM   14  O   UNL     1       3.642  28.178  53.397  1.00  0.00    -0.200 OA
HETATM   15  O   UNL     1       5.322  27.255  51.757  1.00  0.00    -0.200 OA
BRANCH  13  16
HETATM   16  N   UNL     1       4.545  25.857  53.766  1.00  0.00    -0.281 N 
HETATM   17  H   UNL     1       3.811  25.865  54.472  1.00  0.00     0.179 HD
BRANCH  16  18
HETATM   18  C   UNL     1       5.655  24.991  53.976  1.00  0.00     0.045 A 
HETATM   19  C   UNL     1       6.105  24.752  55.277  1.00  0.00     0.066 A 
HETATM   20  C   UNL     1       7.184  23.895  55.494  1.00  0.00     0.070 A 
HETATM   21  C   UNL     1       7.779  23.255  54.403  1.00  0.00     0.037 A 
HETATM   22  C   UNL     1       7.320  23.485  53.106  1.00  0.00     0.005 A 
HETATM   23  C   UNL     1       6.256  24.359  52.889  1.00  0.00     0.030 A 
BRANCH  20  24
HETATM   24  O   UNL     1       7.740  23.597  56.707  1.00  0.00    -0.356 OA
HETATM   25  C   UNL     1       8.800  24.439  57.149  1.00  0.00     0.210 C 
ENDBRANCH  20  24
ENDBRANCH  16  18
ENDBRANCH  13  16
ENDBRANCH   8  13
BRANCH   1  26
HETATM   26  C   UNL     1       7.497  30.995  59.579  1.00  0.00     0.257 C 
HETATM   27  N   UNL     1       6.321  31.674  59.765  1.00  0.00    -0.357 N 
HETATM   28  H   UNL     1       5.654  31.713  58.993  1.00  0.00     0.162 HD
HETATM   29  O   UNL     1       8.369  30.915  60.440  1.00  0.00    -0.267 OA
BRANCH  27  30
HETATM   30  C   UNL     1       5.979  32.331  61.008  1.00  0.00     0.123 C 
BRANCH  30  31
HETATM   31  C   UNL     1       5.078  33.543  60.788  1.00  0.00     0.019 C 
BRANCH  31  32
HETATM   32  C   UNL     1       4.516  33.560  59.368  1.00  0.00    -0.003 C 
HETATM   33  C   UNL     1       4.008  34.939  58.981  1.00  0.00     0.005 C 
ENDBRANCH  31  32
ENDBRANCH  30  31
ENDBRANCH  27  30
ENDBRANCH   1  26
TORSDOF 8
ENDMDL
MODEL 9
REMARK VINA RESULT:      -8.4      2.385     10.306
REMARK  8 active torsions:
REMARK  status: ('A' for Active; 'I' for Inactive)
REMARK    1  A    between atoms: C_2  and  C_3 
REMARK    2  A    between atoms: C_3  and  C_4 
REMARK    3  A    between atoms: C_4  and  N_5 
REMARK       I    between atoms: N_5  and  C_6 
REMARK    4  A    between atoms: C_6  and  C_7 
REMARK    5  A    between atoms: C_14  and  S_15 
REMARK    6  A    between atoms: S_15  and  N_16 
REMARK    7  A    between atoms: N_16  and  C_17 
REMARK    8  A    between atoms: C_19  and  O_20 
ROOT
HETATM    1  C   UNL     1       6.310  31.591  59.151  1.00  0.00     0.098 A 
HETATM    2  C   UNL     1       5.728  30.763  58.057  1.00  0.00     0.201 A 
HETATM    3  O   UNL     1       4.586  30.944  57.642  1.00  0.00    -0.286 OA
HETATM    4  C   UNL     1       6.567  29.681  57.473  1.00  0.00     0.043 A 
HETATM    5  C   UNL     1       7.864  29.477  57.977  1.00  0.00     0.046 A 
HETATM    6  N   UNL     1       8.331  30.277  59.025  1.00  0.00    -0.364 N 
HETATM    7  C   UNL     1       6.061  28.879  56.445  1.00  0.00     0.043 A 
HETATM    8  C   UNL     1       6.854  27.847  55.938  1.00  0.00     0.081 A 
HETATM    9  C   UNL     1       8.146  27.630  56.427  1.00  0.00     0.027 A 
HETATM   10  C   UNL     1       8.643  28.443  57.452  1.00  0.00     0.032 A 
HETATM   11  C   UNL     1       7.561  31.289  59.540  1.00  0.00     0.109 A 
HETATM   12  H   UNL     1       9.296  30.198  59.328  1.00  0.00     0.165 HD
ENDROOT
BRANCH   8  13
HETATM   13  S   UNL     1       6.208  26.836  54.622  1.00  0.00     0.263 S 
HETATM   14  O   UNL     1       5.466  25.761  55.242  1.00  0.00    -0.200 OA
HETATM   15  O   UNL     1       5.595  27.709  53.644  1.00  0.00    -0.200 OA
BRANCH  13  16
HETATM   16  N   UNL     1       7.604  26.143  53.970  1.00  0.00    -0.281 N 
HETATM   17  H   UNL     1       7.914  26.619  53.124  1.00  0.00     0.179 HD
BRANCH  16  18
HETATM   18  C   UNL     1       7.759  24.729  54.026  1.00  0.00     0.045 A 
HETATM   19  C   UNL     1       8.076  24.118  55.242  1.00  0.00     0.066 A 
HETATM   20  C   UNL     1       8.218  22.732  55.309  1.00  0.00     0.070 A 
HETATM   21  C   UNL     1       8.001  21.966  54.160  1.00  0.00     0.037 A 
HETATM   22  C   UNL     1       7.671  22.576  52.950  1.00  0.00     0.005 A 
HETATM   23  C   UNL     1       7.553  23.963  52.879  1.00  0.00     0.030 A 
BRANCH  20  24
HETATM   24  O   UNL     1       8.551  22.014  56.424  1.00  0.00    -0.356 OA
HETATM   25  C   UNL     1       8.231  20.626  56.409  1.00  0.00     0.210 C 
ENDBRANCH  20  24
ENDBRANCH  16  18
ENDBRANCH  13  16
ENDBRANCH   8  13
BRANCH   1  26
HETATM   26  C   UNL     1       5.596  32.702  59.845  1.00  0.00     0.257 C 
HETATM   27  N   UNL     1       5.490  32.571  61.206  1.00  0.00    -0.357 N 
HETATM   28  H   UNL     1       5.865  31.728  61.644  1.00  0.00     0.162 HD
HETATM   29  O   UNL     1       5.153  33.666  59.228  1.00  0.00    -0.267 OA
BRANCH  27  30
HETATM   30  C   UNL     1       4.878  33.574  62.048  1.00  0.00     0.123 C 
BRANCH  30  31
HETATM   31  C   UNL     1       5.884  34.222  62.996  1.00  0.00     0.019 C 
BRANCH  31  32
HETATM   32  C   UNL     1       6.398  33.214  64.023  1.00  0.00    -0.003 C 
HETATM   33  C   UNL     1       7.871  32.902  63.815  1.00  0.00     0.005 C 
ENDBRANCH  31  32
ENDBRANCH  30  31
ENDBRANCH  27  30
ENDBRANCH   1  26
TORSDOF 8
ENDMDL
MODEL 10
REMARK VINA RESULT:      -8.4      5.195      9.088
REMARK  8 active torsions:
REMARK  status: ('A' for Active; 'I' for Inactive)
REMARK    1  A    between atoms: C_2  and  C_3 
REMARK    2  A    between atoms: C_3  and  C_4 
REMARK    3  A    between atoms: C_4  and  N_5 
REMARK       I    between atoms: N_5  and  C_6 
REMARK    4  A    between atoms: C_6  and  C_7 
REMARK    5  A    between atoms: C_14  and  S_15 
REMARK    6  A    between atoms: S_15  and  N_16 
REMARK    7  A    between atoms: N_16  and  C_17 
REMARK    8  A    between atoms: C_19  and  O_20 
ROOT
HETATM    1  C   UNL     1       3.974  28.277  51.159  1.00  0.00     0.098 A 
HETATM    2  C   UNL     1       4.805  27.428  52.060  1.00  0.00     0.201 A 
HETATM    3  O   UNL     1       5.477  26.492  51.633  1.00  0.00    -0.286 OA
HETATM    4  C   UNL     1       4.793  27.730  53.517  1.00  0.00     0.043 A 
HETATM    5  C   UNL     1       3.999  28.791  53.986  1.00  0.00     0.046 A 
HETATM    6  N   UNL     1       3.225  29.527  53.083  1.00  0.00    -0.364 N 
HETATM    7  C   UNL     1       5.556  26.958  54.399  1.00  0.00     0.043 A 
HETATM    8  C   UNL     1       5.501  27.238  55.766  1.00  0.00     0.081 A 
HETATM    9  C   UNL     1       4.717  28.290  56.251  1.00  0.00     0.027 A 
HETATM   10  C   UNL     1       3.962  29.059  55.358  1.00  0.00     0.032 A 
HETATM   11  C   UNL     1       3.261  29.258  51.738  1.00  0.00     0.109 A 
HETATM   12  H   UNL     1       2.725  30.350  53.402  1.00  0.00     0.165 HD
ENDROOT
BRANCH   8  13
HETATM   13  S   UNL     1       6.483  26.259  56.883  1.00  0.00     0.263 S 
HETATM   14  O   UNL     1       7.043  27.168  57.859  1.00  0.00    -0.200 OA
HETATM   15  O   UNL     1       5.697  25.113  57.286  1.00  0.00    -0.200 OA
BRANCH  13  16
HETATM   16  N   UNL     1       7.764  25.755  55.905  1.00  0.00    -0.281 N 
HETATM   17  H   UNL     1       7.929  26.389  55.125  1.00  0.00     0.179 HD
BRANCH  16  18
HETATM   18  C   UNL     1       7.943  24.362  55.672  1.00  0.00     0.045 A 
HETATM   19  C   UNL     1       7.727  23.843  54.393  1.00  0.00     0.066 A 
HETATM   20  C   UNL     1       7.912  22.482  54.153  1.00  0.00     0.070 A 
HETATM   21  C   UNL     1       8.350  21.657  55.193  1.00  0.00     0.037 A 
HETATM   22  C   UNL     1       8.579  22.179  56.467  1.00  0.00     0.005 A 
HETATM   23  C   UNL     1       8.371  23.535  56.710  1.00  0.00     0.030 A 
BRANCH  20  24
HETATM   24  O   UNL     1       7.710  21.843  52.960  1.00  0.00    -0.356 OA
HETATM   25  C   UNL     1       8.039  20.458  52.914  1.00  0.00     0.210 C 
ENDBRANCH  20  24
ENDBRANCH  16  18
ENDBRANCH  13  16
ENDBRANCH   8  13
BRANCH   1  26
HETATM   26  C   UNL     1       3.870  28.097  49.681  1.00  0.00     0.257 C 
HETATM   27  N   UNL     1       2.593  28.072  49.182  1.00  0.00    -0.357 N 
HETATM   28  H   UNL     1       1.813  28.143  49.838  1.00  0.00     0.162 HD
HETATM   29  O   UNL     1       4.869  27.993  48.975  1.00  0.00    -0.267 OA
BRANCH  27  30
HETATM   30  C   UNL     1       2.302  27.959  47.770  1.00  0.00     0.123 C 
BRANCH  30  31
HETATM   31  C   UNL     1       1.661  26.619  47.421  1.00  0.00     0.019 C 
BRANCH  31  32
HETATM   32  C   UNL     1       2.712  25.613  46.952  1.00  0.00    -0.003 C 
HETATM   33  C   UNL     1       3.035  24.594  48.032  1.00  0.00     0.005 C 
ENDBRANCH  31  32
ENDBRANCH  30  31
ENDBRANCH  27  30
ENDBRANCH   1  26
TORSDOF 8
ENDMDL
