MODEL 1
REMARK VINA RESULT:      -8.9      0.000      0.000
REMARK  6 active torsions:
REMARK  status: ('A' for Active; 'I' for Inactive)
REMARK    1  A    between atoms: N_2  and  C_4 
REMARK    2  A    between atoms: C_4  and  C_5 
REMARK    3  A    between atoms: C_5  and  N_6 
REMARK    4  A    between atoms: C_5  and  C_21 
REMARK       I    between atoms: N_6  and  C_7 
REMARK       I    between atoms: C_7  and  N_8 
REMARK    5  A    between atoms: N_8  and  C_9 
REMARK    6  A    between atoms: C_12  and  C_13 
ROOT
HETATM    1  N   UNL     1       6.249  28.104  56.305  1.00  0.00    -0.333 N 
HETATM    2  C   UNL     1       4.997  27.912  55.809  1.00  0.00     0.322 C 
HETATM    3  N   UNL     1       4.826  26.941  54.878  1.00  0.00    -0.287 N 
HETATM    4  O   UNL     1       4.022  28.519  56.247  1.00  0.00    -0.247 OA
HETATM    5  H   UNL     1       6.991  27.707  55.729  1.00  0.00     0.165 HD
HETATM    6  H   UNL     1       3.884  26.798  54.539  1.00  0.00     0.172 HD
ENDROOT
BRANCH   1   7
HETATM    7  C   UNL     1       6.631  29.166  57.225  1.00  0.00     0.145 C 
BRANCH   7   8
HETATM    8  C   UNL     1       5.785  30.477  57.170  1.00  0.00     0.263 C 
BRANCH   8   9
HETATM    9  N   UNL     1       5.111  30.889  58.482  1.00  0.00    -0.076 N 
HETATM   10  C   UNL     1       3.638  31.141  58.370  1.00  0.00     0.269 C 
HETATM   11  H   UNL     1       5.210  30.060  59.081  1.00  0.00     0.279 HD
HETATM   12  C   UNL     1       5.818  31.983  59.227  1.00  0.00     0.269 C 
ENDBRANCH   8   9
ENDBRANCH   7   8
BRANCH   7  13
HETATM   13  C   UNL     1       8.121  29.469  57.157  1.00  0.00    -0.034 A 
HETATM   14  C   UNL     1       8.776  30.004  58.281  1.00  0.00     0.009 A 
HETATM   15  C   UNL     1      10.131  30.336  58.227  1.00  0.00     0.001 A 
HETATM   16  C   UNL     1      10.855  30.129  57.056  1.00  0.00     0.000 A 
HETATM   17  C   UNL     1      10.227  29.584  55.940  1.00  0.00     0.001 A 
HETATM   18  C   UNL     1       8.869  29.256  55.989  1.00  0.00     0.009 A 
ENDBRANCH   7  13
ENDBRANCH   1   7
BRANCH   3  19
HETATM   19  C   UNL     1       5.791  26.090  54.422  1.00  0.00     0.175 A 
HETATM   20  S   UNL     1       6.836  26.755  53.255  1.00  0.00    -0.061 SA
HETATM   21  C   UNL     1       7.608  25.227  53.113  1.00  0.00     0.086 A 
HETATM   22  C   UNL     1       7.022  24.330  53.988  1.00  0.00     0.078 A 
HETATM   23  N   UNL     1       5.977  24.834  54.748  1.00  0.00    -0.223 NA
BRANCH  22  24
HETATM   24  C   UNL     1       7.465  22.960  54.130  1.00  0.00     0.011 A 
HETATM   25  C   UNL     1       7.515  22.333  55.370  1.00  0.00     0.130 A 
HETATM   26  N   UNL     1       7.919  21.055  55.558  1.00  0.00    -0.272 NA
HETATM   27  C   UNL     1       8.276  20.362  54.454  1.00  0.00     0.116 A 
HETATM   28  C   UNL     1       8.264  20.896  53.176  1.00  0.00     0.020 A 
HETATM   29  C   UNL     1       7.860  22.220  53.014  1.00  0.00     0.017 A 
ENDBRANCH  22  24
ENDBRANCH   3  19
TORSDOF 6
ENDMDL
MODEL 2
REMARK VINA RESULT:      -8.6      2.654      7.445
REMARK  6 active torsions:
REMARK  status: ('A' for Active; 'I' for Inactive)
REMARK    1  A    between atoms: N_2  and  C_4 
REMARK    2  A    between atoms: C_4  and  C_5 
REMARK    3  A    between atoms: C_5  and  N_6 
REMARK    4  A    between atoms: C_5  and  C_21 
REMARK       I    between atoms: N_6  and  C_7 
REMARK       I    between atoms: C_7  and  N_8 
REMARK    5  A    between atoms: N_8  and  C_9 
REMARK    6  A    between atoms: C_12  and  C_13 
ROOT
HETATM    1  N   UNL     1       7.365  27.536  55.864  1.00  0.00    -0.333 N 
HETATM    2  C   UNL     1       7.970  28.158  54.818  1.00  0.00     0.322 C 
HETATM    3  N   UNL     1       8.776  29.216  55.088  1.00  0.00    -0.287 N 
HETATM    4  O   UNL     1       7.885  27.734  53.667  1.00  0.00    -0.247 OA
HETATM    5  H   UNL     1       7.335  28.091  56.719  1.00  0.00     0.165 HD
HETATM    6  H   UNL     1       9.235  29.649  54.299  1.00  0.00     0.172 HD
ENDROOT
BRANCH   1   7
HETATM    7  C   UNL     1       6.390  26.460  55.748  1.00  0.00     0.145 C 
BRANCH   7   8
HETATM    8  C   UNL     1       5.092  26.597  56.603  1.00  0.00     0.263 C 
BRANCH   8   9
HETATM    9  N   UNL     1       4.267  27.865  56.365  1.00  0.00    -0.076 N 
HETATM   10  C   UNL     1       4.142  28.262  54.925  1.00  0.00     0.269 C 
HETATM   11  H   UNL     1       3.321  27.605  56.669  1.00  0.00     0.279 HD
HETATM   12  C   UNL     1       4.642  29.024  57.242  1.00  0.00     0.269 C 
ENDBRANCH   8   9
ENDBRANCH   7   8
BRANCH   7  13
HETATM   13  C   UNL     1       7.029  25.092  55.931  1.00  0.00    -0.034 A 
HETATM   14  C   UNL     1       7.903  24.869  57.010  1.00  0.00     0.009 A 
HETATM   15  C   UNL     1       8.539  23.636  57.172  1.00  0.00     0.001 A 
HETATM   16  C   UNL     1       8.305  22.605  56.265  1.00  0.00     0.000 A 
HETATM   17  C   UNL     1       7.430  22.803  55.201  1.00  0.00     0.001 A 
HETATM   18  C   UNL     1       6.795  24.037  55.035  1.00  0.00     0.009 A 
ENDBRANCH   7  13
ENDBRANCH   1   7
BRANCH   3  19
HETATM   19  C   UNL     1       9.083  29.690  56.331  1.00  0.00     0.175 A 
HETATM   20  S   UNL     1      10.746  29.719  56.693  1.00  0.00    -0.061 SA
HETATM   21  C   UNL     1      10.364  30.270  58.275  1.00  0.00     0.086 A 
HETATM   22  C   UNL     1       8.994  30.414  58.397  1.00  0.00     0.078 A 
HETATM   23  N   UNL     1       8.257  30.085  57.269  1.00  0.00    -0.223 NA
BRANCH  22  24
HETATM   24  C   UNL     1       8.353  30.890  59.604  1.00  0.00     0.011 A 
HETATM   25  C   UNL     1       8.860  30.595  60.865  1.00  0.00     0.130 A 
HETATM   26  N   UNL     1       8.301  31.016  62.024  1.00  0.00    -0.272 NA
HETATM   27  C   UNL     1       7.192  31.780  61.921  1.00  0.00     0.116 A 
HETATM   28  C   UNL     1       6.607  32.126  60.713  1.00  0.00     0.020 A 
HETATM   29  C   UNL     1       7.194  31.665  59.536  1.00  0.00     0.017 A 
ENDBRANCH  22  24
ENDBRANCH   3  19
TORSDOF 6
ENDMDL
MODEL 3
REMARK VINA RESULT:      -8.5      2.158      7.397
REMARK  6 active torsions:
REMARK  status: ('A' for Active; 'I' for Inactive)
REMARK    1  A    between atoms: N_2  and  C_4 
REMARK    2  A    between atoms: C_4  and  C_5 
REMARK    3  A    between atoms: C_5  and  N_6 
REMARK    4  A    between atoms: C_5  and  C_21 
REMARK       I    between atoms: N_6  and  C_7 
REMARK       I    between atoms: C_7  and  N_8 
REMARK    5  A    between atoms: N_8  and  C_9 
REMARK    6  A    between atoms: C_12  and  C_13 
ROOT
HETATM    1  N   UNL     1       6.867  26.161  54.194  1.00  0.00    -0.333 N 
HETATM    2  C   UNL     1       5.667  25.812  54.730  1.00  0.00     0.322 C 
HETATM    3  N   UNL     1       5.185  26.562  55.752  1.00  0.00    -0.287 N 
HETATM    4  O   UNL     1       4.978  24.910  54.256  1.00  0.00    -0.247 OA
HETATM    5  H   UNL     1       7.429  26.768  54.790  1.00  0.00     0.165 HD
HETATM    6  H   UNL     1       4.281  26.300  56.120  1.00  0.00     0.172 HD
ENDROOT
BRANCH   1   7
HETATM    7  C   UNL     1       7.579  25.408  53.171  1.00  0.00     0.145 C 
BRANCH   7   8
HETATM    8  C   UNL     1       6.975  25.441  51.732  1.00  0.00     0.263 C 
BRANCH   8   9
HETATM    9  N   UNL     1       5.701  26.273  51.562  1.00  0.00    -0.076 N 
HETATM   10  C   UNL     1       4.760  25.760  50.515  1.00  0.00     0.269 C 
HETATM   11  H   UNL     1       5.213  26.162  52.460  1.00  0.00     0.279 HD
HETATM   12  C   UNL     1       5.936  27.750  51.440  1.00  0.00     0.269 C 
ENDBRANCH   8   9
ENDBRANCH   7   8
BRANCH   7  13
HETATM   13  C   UNL     1       7.870  23.982  53.614  1.00  0.00    -0.034 A 
HETATM   14  C   UNL     1       8.427  23.746  54.884  1.00  0.00     0.009 A 
HETATM   15  C   UNL     1       8.748  22.450  55.293  1.00  0.00     0.001 A 
HETATM   16  C   UNL     1       8.510  21.370  54.446  1.00  0.00     0.000 A 
HETATM   17  C   UNL     1       7.945  21.585  53.193  1.00  0.00     0.001 A 
HETATM   18  C   UNL     1       7.626  22.881  52.779  1.00  0.00     0.009 A 
ENDBRANCH   7  13
ENDBRANCH   1   7
BRANCH   3  19
HETATM   19  C   UNL     1       5.771  27.682  56.268  1.00  0.00     0.175 A 
HETATM   20  S   UNL     1       4.689  28.931  56.676  1.00  0.00    -0.061 SA
HETATM   21  C   UNL     1       6.030  29.917  57.102  1.00  0.00     0.086 A 
HETATM   22  C   UNL     1       7.203  29.206  56.923  1.00  0.00     0.078 A 
HETATM   23  N   UNL     1       7.049  27.913  56.447  1.00  0.00    -0.223 NA
BRANCH  22  24
HETATM   24  C   UNL     1       8.511  29.750  57.220  1.00  0.00     0.011 A 
HETATM   25  C   UNL     1       9.620  29.454  56.435  1.00  0.00     0.130 A 
HETATM   26  N   UNL     1      10.864  29.937  56.668  1.00  0.00    -0.272 NA
HETATM   27  C   UNL     1      11.006  30.765  57.725  1.00  0.00     0.116 A 
HETATM   28  C   UNL     1       9.965  31.118  58.569  1.00  0.00     0.020 A 
HETATM   29  C   UNL     1       8.699  30.593  58.316  1.00  0.00     0.017 A 
ENDBRANCH  22  24
ENDBRANCH   3  19
TORSDOF 6
ENDMDL
MODEL 4
REMARK VINA RESULT:      -8.5      4.643      6.759
REMARK  6 active torsions:
REMARK  status: ('A' for Active; 'I' for Inactive)
REMARK    1  A    between atoms: N_2  and  C_4 
REMARK    2  A    between atoms: C_4  and  C_5 
REMARK    3  A    between atoms: C_5  and  N_6 
REMARK    4  A    between atoms: C_5  and  C_21 
REMARK       I    between atoms: N_6  and  C_7 
REMARK       I    between atoms: C_7  and  N_8 
REMARK    5  A    between atoms: N_8  and  C_9 
REMARK    6  A    between atoms: C_12  and  C_13 
ROOT
HETATM    1  N   UNL     1       4.342  27.632  51.471  1.00  0.00    -0.333 N 
HETATM    2  C   UNL     1       3.698  27.987  52.615  1.00  0.00     0.322 C 
HETATM    3  N   UNL     1       4.194  27.528  53.791  1.00  0.00    -0.287 N 
HETATM    4  O   UNL     1       2.756  28.776  52.616  1.00  0.00    -0.247 OA
HETATM    5  H   UNL     1       4.957  26.825  51.572  1.00  0.00     0.165 HD
HETATM    6  H   UNL     1       3.715  27.822  54.631  1.00  0.00     0.172 HD
ENDROOT
BRANCH   1   7
HETATM    7  C   UNL     1       3.888  27.945  50.124  1.00  0.00     0.145 C 
BRANCH   7   8
HETATM    8  C   UNL     1       4.080  26.833  49.045  1.00  0.00     0.263 C 
BRANCH   8   9
HETATM    9  N   UNL     1       2.803  26.125  48.583  1.00  0.00    -0.076 N 
HETATM   10  C   UNL     1       3.029  24.777  47.968  1.00  0.00     0.269 C 
HETATM   11  H   UNL     1       2.286  25.955  49.454  1.00  0.00     0.279 HD
HETATM   12  C   UNL     1       1.884  26.978  47.758  1.00  0.00     0.269 C 
ENDBRANCH   8   9
ENDBRANCH   7   8
BRANCH   7  13
HETATM   13  C   UNL     1       4.425  29.282  49.638  1.00  0.00    -0.034 A 
HETATM   14  C   UNL     1       3.727  29.997  48.648  1.00  0.00     0.009 A 
HETATM   15  C   UNL     1       4.226  31.203  48.151  1.00  0.00     0.001 A 
HETATM   16  C   UNL     1       5.423  31.719  48.641  1.00  0.00     0.000 A 
HETATM   17  C   UNL     1       6.118  31.033  49.633  1.00  0.00     0.001 A 
HETATM   18  C   UNL     1       5.623  29.824  50.129  1.00  0.00     0.009 A 
ENDBRANCH   7  13
ENDBRANCH   1   7
BRANCH   3  19
HETATM   19  C   UNL     1       5.324  26.776  53.944  1.00  0.00     0.175 A 
HETATM   20  S   UNL     1       6.767  27.671  54.055  1.00  0.00    -0.061 SA
HETATM   21  C   UNL     1       7.645  26.196  54.115  1.00  0.00     0.086 A 
HETATM   22  C   UNL     1       6.765  25.131  54.071  1.00  0.00     0.078 A 
HETATM   23  N   UNL     1       5.423  25.470  53.979  1.00  0.00    -0.223 NA
BRANCH  22  24
HETATM   24  C   UNL     1       7.190  23.749  54.132  1.00  0.00     0.011 A 
HETATM   25  C   UNL     1       7.258  23.058  55.337  1.00  0.00     0.130 A 
HETATM   26  N   UNL     1       7.648  21.766  55.449  1.00  0.00    -0.272 NA
HETATM   27  C   UNL     1       7.971  21.127  54.304  1.00  0.00     0.116 A 
HETATM   28  C   UNL     1       7.940  21.728  53.055  1.00  0.00     0.020 A 
HETATM   29  C   UNL     1       7.551  23.063  52.971  1.00  0.00     0.017 A 
ENDBRANCH  22  24
ENDBRANCH   3  19
TORSDOF 6
ENDMDL
MODEL 5
REMARK VINA RESULT:      -8.4      4.286      6.692
REMARK  6 active torsions:
REMARK  status: ('A' for Active; 'I' for Inactive)
REMARK    1  A    between atoms: N_2  and  C_4 
REMARK    2  A    between atoms: C_4  and  C_5 
REMARK    3  A    between atoms: C_5  and  N_6 
REMARK    4  A    between atoms: C_5  and  C_21 
REMARK       I    between atoms: N_6  and  C_7 
REMARK       I    between atoms: C_7  and  N_8 
REMARK    5  A    between atoms: N_8  and  C_9 
REMARK    6  A    between atoms: C_12  and  C_13 
ROOT
HETATM    1  N   UNL     1       5.466  27.913  53.941  1.00  0.00    -0.333 N 
HETATM    2  C   UNL     1       4.478  28.667  54.492  1.00  0.00     0.322 C 
HETATM    3  N   UNL     1       3.667  29.360  53.654  1.00  0.00    -0.287 N 
HETATM    4  O   UNL     1       4.247  28.661  55.699  1.00  0.00    -0.247 OA
HETATM    5  H   UNL     1       5.693  28.160  52.978  1.00  0.00     0.165 HD
HETATM    6  H   UNL     1       2.924  29.896  54.081  1.00  0.00     0.172 HD
ENDROOT
BRANCH   1   7
HETATM    7  C   UNL     1       6.488  27.196  54.691  1.00  0.00     0.145 C 
BRANCH   7   8
HETATM    8  C   UNL     1       7.741  28.018  55.127  1.00  0.00     0.263 C 
BRANCH   8   9
HETATM    9  N   UNL     1       7.799  28.410  56.606  1.00  0.00    -0.076 N 
HETATM   10  C   UNL     1       9.166  28.777  57.098  1.00  0.00     0.269 C 
HETATM   11  H   UNL     1       7.241  29.272  56.654  1.00  0.00     0.279 HD
HETATM   12  C   UNL     1       7.101  27.455  57.530  1.00  0.00     0.269 C 
ENDBRANCH   8   9
ENDBRANCH   7   8
BRANCH   7  13
HETATM   13  C   UNL     1       6.891  25.898  54.006  1.00  0.00    -0.034 A 
HETATM   14  C   UNL     1       6.750  24.676  54.689  1.00  0.00     0.009 A 
HETATM   15  C   UNL     1       7.158  23.478  54.100  1.00  0.00     0.001 A 
HETATM   16  C   UNL     1       7.704  23.479  52.818  1.00  0.00     0.000 A 
HETATM   17  C   UNL     1       7.835  24.677  52.123  1.00  0.00     0.001 A 
HETATM   18  C   UNL     1       7.431  25.879  52.711  1.00  0.00     0.009 A 
ENDBRANCH   7  13
ENDBRANCH   1   7
BRANCH   3  19
HETATM   19  C   UNL     1       3.713  29.330  52.289  1.00  0.00     0.175 A 
HETATM   20  S   UNL     1       4.311  30.749  51.564  1.00  0.00    -0.061 SA
HETATM   21  C   UNL     1       3.995  30.062  50.022  1.00  0.00     0.086 A 
HETATM   22  C   UNL     1       3.478  28.789  50.179  1.00  0.00     0.078 A 
HETATM   23  N   UNL     1       3.323  28.367  51.491  1.00  0.00    -0.223 NA
BRANCH  22  24
HETATM   24  C   UNL     1       3.132  27.932  49.065  1.00  0.00     0.011 A 
HETATM   25  C   UNL     1       4.101  27.231  48.355  1.00  0.00     0.130 A 
HETATM   26  N   UNL     1       3.831  26.416  47.308  1.00  0.00    -0.272 NA
HETATM   27  C   UNL     1       2.532  26.282  46.961  1.00  0.00     0.116 A 
HETATM   28  C   UNL     1       1.495  26.940  47.603  1.00  0.00     0.020 A 
HETATM   29  C   UNL     1       1.803  27.786  48.666  1.00  0.00     0.017 A 
ENDBRANCH  22  24
ENDBRANCH   3  19
TORSDOF 6
ENDMDL
MODEL 6
REMARK VINA RESULT:      -8.3      4.432      6.904
REMARK  6 active torsions:
REMARK  status: ('A' for Active; 'I' for Inactive)
REMARK    1  A    between atoms: N_2  and  C_4 
REMARK    2  A    between atoms: C_4  and  C_5 
REMARK    3  A    between atoms: C_5  and  N_6 
REMARK    4  A    between atoms: C_5  and  C_21 
REMARK       I    between atoms: N_6  and  C_7 
REMARK       I    between atoms: C_7  and  N_8 
REMARK    5  A    between atoms: N_8  and  C_9 
REMARK    6  A    between atoms: C_12  and  C_13 
ROOT
HETATM    1  N   UNL     1       5.502  26.893  53.602  1.00  0.00    -0.333 N 
HETATM    2  C   UNL     1       6.514  27.765  53.348  1.00  0.00     0.322 C 
HETATM    3  N   UNL     1       6.371  28.617  52.302  1.00  0.00    -0.287 N 
HETATM    4  O   UNL     1       7.491  27.863  54.087  1.00  0.00    -0.247 OA
HETATM    5  H   UNL     1       4.862  26.757  52.819  1.00  0.00     0.165 HD
HETATM    6  H   UNL     1       7.124  29.273  52.145  1.00  0.00     0.172 HD
ENDROOT
BRANCH   1   7
HETATM    7  C   UNL     1       5.534  25.844  54.611  1.00  0.00     0.145 C 
BRANCH   7   8
HETATM    8  C   UNL     1       5.591  26.307  56.100  1.00  0.00     0.263 C 
BRANCH   8   9
HETATM    9  N   UNL     1       5.627  27.821  56.326  1.00  0.00    -0.076 N 
HETATM   10  C   UNL     1       6.515  28.260  57.451  1.00  0.00     0.269 C 
HETATM   11  H   UNL     1       6.056  28.188  55.468  1.00  0.00     0.279 HD
HETATM   12  C   UNL     1       4.276  28.473  56.383  1.00  0.00     0.269 C 
ENDBRANCH   8   9
ENDBRANCH   7   8
BRANCH   7  13
HETATM   13  C   UNL     1       6.605  24.804  54.316  1.00  0.00    -0.034 A 
HETATM   14  C   UNL     1       6.637  24.172  53.059  1.00  0.00     0.009 A 
HETATM   15  C   UNL     1       7.580  23.180  52.782  1.00  0.00     0.001 A 
HETATM   16  C   UNL     1       8.509  22.809  53.751  1.00  0.00     0.000 A 
HETATM   17  C   UNL     1       8.501  23.435  54.994  1.00  0.00     0.001 A 
HETATM   18  C   UNL     1       7.557  24.426  55.275  1.00  0.00     0.009 A 
ENDBRANCH   7  13
ENDBRANCH   1   7
BRANCH   3  19
HETATM   19  C   UNL     1       5.271  28.721  51.500  1.00  0.00     0.175 A 
HETATM   20  S   UNL     1       4.219  30.000  51.892  1.00  0.00    -0.061 SA
HETATM   21  C   UNL     1       3.154  29.469  50.654  1.00  0.00     0.086 A 
HETATM   22  C   UNL     1       3.696  28.367  50.018  1.00  0.00     0.078 A 
HETATM   23  N   UNL     1       4.923  27.942  50.505  1.00  0.00    -0.223 NA
BRANCH  22  24
HETATM   24  C   UNL     1       3.053  27.698  48.908  1.00  0.00     0.011 A 
HETATM   25  C   UNL     1       3.774  26.925  48.004  1.00  0.00     0.130 A 
HETATM   26  N   UNL     1       3.222  26.278  46.951  1.00  0.00    -0.272 NA
HETATM   27  C   UNL     1       1.884  26.394  46.799  1.00  0.00     0.116 A 
HETATM   28  C   UNL     1       1.079  27.143  47.642  1.00  0.00     0.020 A 
HETATM   29  C   UNL     1       1.676  27.813  48.708  1.00  0.00     0.017 A 
ENDBRANCH  22  24
ENDBRANCH   3  19
TORSDOF 6
ENDMDL
MODEL 7
REMARK VINA RESULT:      -8.2      4.954      7.215
REMARK  6 active torsions:
REMARK  status: ('A' for Active; 'I' for Inactive)
REMARK    1  A    between atoms: N_2  and  C_4 
REMARK    2  A    between atoms: C_4  and  C_5 
REMARK    3  A    between atoms: C_5  and  N_6 
REMARK    4  A    between atoms: C_5  and  C_21 
REMARK       I    between atoms: N_6  and  C_7 
REMARK       I    between atoms: C_7  and  N_8 
REMARK    5  A    between atoms: N_8  and  C_9 
REMARK    6  A    between atoms: C_12  and  C_13 
ROOT
HETATM    1  N   UNL     1       4.174  28.541  51.086  1.00  0.00    -0.333 N 
HETATM    2  C   UNL     1       5.227  29.370  51.317  1.00  0.00     0.322 C 
HETATM    3  N   UNL     1       6.086  29.042  52.314  1.00  0.00    -0.287 N 
HETATM    4  O   UNL     1       5.468  30.336  50.596  1.00  0.00    -0.247 OA
HETATM    5  H   UNL     1       3.960  27.913  51.860  1.00  0.00     0.165 HD
HETATM    6  H   UNL     1       6.875  29.657  52.455  1.00  0.00     0.172 HD
ENDROOT
BRANCH   1   7
HETATM    7  C   UNL     1       3.103  28.795  50.133  1.00  0.00     0.145 C 
BRANCH   7   8
HETATM    8  C   UNL     1       1.701  29.133  50.731  1.00  0.00     0.263 C 
BRANCH   8   9
HETATM    9  N   UNL     1       1.241  30.585  50.570  1.00  0.00    -0.076 N 
HETATM   10  C   UNL     1       0.750  30.932  49.197  1.00  0.00     0.269 C 
HETATM   11  H   UNL     1       0.422  30.654  51.188  1.00  0.00     0.279 HD
HETATM   12  C   UNL     1       2.204  31.605  51.103  1.00  0.00     0.269 C 
ENDBRANCH   8   9
ENDBRANCH   7   8
BRANCH   7  13
HETATM   13  C   UNL     1       3.004  27.700  49.082  1.00  0.00    -0.034 A 
HETATM   14  C   UNL     1       4.114  26.873  48.830  1.00  0.00     0.009 A 
HETATM   15  C   UNL     1       4.063  25.893  47.836  1.00  0.00     0.001 A 
HETATM   16  C   UNL     1       2.903  25.717  47.087  1.00  0.00     0.000 A 
HETATM   17  C   UNL     1       1.790  26.515  47.335  1.00  0.00     0.001 A 
HETATM   18  C   UNL     1       1.839  27.499  48.326  1.00  0.00     0.009 A 
ENDBRANCH   7  13
ENDBRANCH   1   7
BRANCH   3  19
HETATM   19  C   UNL     1       6.025  27.916  53.085  1.00  0.00     0.175 A 
HETATM   20  S   UNL     1       5.089  28.069  54.499  1.00  0.00    -0.061 SA
HETATM   21  C   UNL     1       5.535  26.469  54.935  1.00  0.00     0.086 A 
HETATM   22  C   UNL     1       6.346  25.930  53.953  1.00  0.00     0.078 A 
HETATM   23  N   UNL     1       6.622  26.768  52.882  1.00  0.00    -0.223 NA
BRANCH  22  24
HETATM   24  C   UNL     1       6.870  24.582  54.010  1.00  0.00     0.011 A 
HETATM   25  C   UNL     1       6.937  23.875  55.206  1.00  0.00     0.130 A 
HETATM   26  N   UNL     1       7.415  22.613  55.314  1.00  0.00    -0.272 NA
HETATM   27  C   UNL     1       7.833  22.022  54.174  1.00  0.00     0.116 A 
HETATM   28  C   UNL     1       7.811  22.642  52.935  1.00  0.00     0.020 A 
HETATM   29  C   UNL     1       7.329  23.947  52.855  1.00  0.00     0.017 A 
ENDBRANCH  22  24
ENDBRANCH   3  19
TORSDOF 6
ENDMDL
MODEL 8
REMARK VINA RESULT:      -8.1      4.643      6.869
REMARK  6 active torsions:
REMARK  status: ('A' for Active; 'I' for Inactive)
REMARK    1  A    between atoms: N_2  and  C_4 
REMARK    2  A    between atoms: C_4  and  C_5 
REMARK    3  A    between atoms: C_5  and  N_6 
REMARK    4  A    between atoms: C_5  and  C_21 
REMARK       I    between atoms: N_6  and  C_7 
REMARK       I    between atoms: C_7  and  N_8 
REMARK    5  A    between atoms: N_8  and  C_9 
REMARK    6  A    between atoms: C_12  and  C_13 
ROOT
HETATM    1  N   UNL     1       4.743  28.127  51.275  1.00  0.00    -0.333 N 
HETATM    2  C   UNL     1       3.669  28.156  52.107  1.00  0.00     0.322 C 
HETATM    3  N   UNL     1       3.790  27.561  53.321  1.00  0.00    -0.287 N 
HETATM    4  O   UNL     1       2.645  28.777  51.831  1.00  0.00    -0.247 OA
HETATM    5  H   UNL     1       5.438  27.419  51.514  1.00  0.00     0.165 HD
HETATM    6  H   UNL     1       2.988  27.614  53.934  1.00  0.00     0.172 HD
ENDROOT
BRANCH   1   7
HETATM    7  C   UNL     1       4.753  28.618  49.904  1.00  0.00     0.145 C 
BRANCH   7   8
HETATM    8  C   UNL     1       4.389  30.121  49.696  1.00  0.00     0.263 C 
BRANCH   8   9
HETATM    9  N   UNL     1       5.196  31.123  50.526  1.00  0.00    -0.076 N 
HETATM   10  C   UNL     1       4.394  31.871  51.548  1.00  0.00     0.269 C 
HETATM   11  H   UNL     1       5.850  30.534  51.057  1.00  0.00     0.279 HD
HETATM   12  C   UNL     1       6.076  32.032  49.719  1.00  0.00     0.269 C 
ENDBRANCH   8   9
ENDBRANCH   7   8
BRANCH   7  13
HETATM   13  C   UNL     1       3.950  27.722  48.973  1.00  0.00    -0.034 A 
HETATM   14  C   UNL     1       2.965  28.285  48.141  1.00  0.00     0.009 A 
HETATM   15  C   UNL     1       2.182  27.477  47.314  1.00  0.00     0.001 A 
HETATM   16  C   UNL     1       2.375  26.098  47.298  1.00  0.00     0.000 A 
HETATM   17  C   UNL     1       3.355  25.526  48.103  1.00  0.00     0.001 A 
HETATM   18  C   UNL     1       4.138  26.332  48.935  1.00  0.00     0.009 A 
ENDBRANCH   7  13
ENDBRANCH   1   7
BRANCH   3  19
HETATM   19  C   UNL     1       4.920  26.975  53.816  1.00  0.00     0.175 A 
HETATM   20  S   UNL     1       5.848  27.967  54.842  1.00  0.00    -0.061 SA
HETATM   21  C   UNL     1       7.015  26.712  54.954  1.00  0.00     0.086 A 
HETATM   22  C   UNL     1       6.594  25.620  54.218  1.00  0.00     0.078 A 
HETATM   23  N   UNL     1       5.379  25.774  53.567  1.00  0.00    -0.223 NA
BRANCH  22  24
HETATM   24  C   UNL     1       7.345  24.386  54.132  1.00  0.00     0.011 A 
HETATM   25  C   UNL     1       8.220  23.992  55.138  1.00  0.00     0.130 A 
HETATM   26  N   UNL     1       8.944  22.848  55.108  1.00  0.00    -0.272 NA
HETATM   27  C   UNL     1       8.777  22.052  54.030  1.00  0.00     0.116 A 
HETATM   28  C   UNL     1       7.933  22.357  52.974  1.00  0.00     0.020 A 
HETATM   29  C   UNL     1       7.213  23.548  53.023  1.00  0.00     0.017 A 
ENDBRANCH  22  24
ENDBRANCH   3  19
TORSDOF 6
ENDMDL
MODEL 9
REMARK VINA RESULT:      -8.0      4.365      8.972
REMARK  6 active torsions:
REMARK  status: ('A' for Active; 'I' for Inactive)
REMARK    1  A    between atoms: N_2  and  C_4 
REMARK    2  A    between atoms: C_4  and  C_5 
REMARK    3  A    between atoms: C_5  and  N_6 
REMARK    4  A    between atoms: C_5  and  C_21 
REMARK       I    between atoms: N_6  and  C_7 
REMARK       I    between atoms: C_7  and  N_8 
REMARK    5  A    between atoms: N_8  and  C_9 
REMARK    6  A    between atoms: C_12  and  C_13 
ROOT
HETATM    1  N   UNL     1       7.671  30.042  58.030  1.00  0.00    -0.333 N 
HETATM    2  C   UNL     1       9.002  30.315  58.096  1.00  0.00     0.322 C 
HETATM    3  N   UNL     1       9.472  30.912  59.219  1.00  0.00    -0.287 N 
HETATM    4  O   UNL     1       9.786  29.954  57.221  1.00  0.00    -0.247 OA
HETATM    5  H   UNL     1       7.104  30.566  58.696  1.00  0.00     0.165 HD
HETATM    6  H   UNL     1      10.467  31.085  59.259  1.00  0.00     0.172 HD
ENDROOT
BRANCH   1   7
HETATM    7  C   UNL     1       6.983  29.506  56.864  1.00  0.00     0.145 C 
BRANCH   7   8
HETATM    8  C   UNL     1       5.744  30.306  56.353  1.00  0.00     0.263 C 
BRANCH   8   9
HETATM    9  N   UNL     1       5.159  31.325  57.335  1.00  0.00    -0.076 N 
HETATM   10  C   UNL     1       3.935  30.855  58.061  1.00  0.00     0.269 C 
HETATM   11  H   UNL     1       5.890  31.426  58.050  1.00  0.00     0.279 HD
HETATM   12  C   UNL     1       4.988  32.705  56.771  1.00  0.00     0.269 C 
ENDBRANCH   8   9
ENDBRANCH   7   8
BRANCH   7  13
HETATM   13  C   UNL     1       6.657  28.029  57.025  1.00  0.00    -0.034 A 
HETATM   14  C   UNL     1       7.669  27.127  57.399  1.00  0.00     0.009 A 
HETATM   15  C   UNL     1       7.405  25.760  57.505  1.00  0.00     0.001 A 
HETATM   16  C   UNL     1       6.126  25.274  57.249  1.00  0.00     0.000 A 
HETATM   17  C   UNL     1       5.108  26.154  56.894  1.00  0.00     0.001 A 
HETATM   18  C   UNL     1       5.371  27.522  56.783  1.00  0.00     0.009 A 
ENDBRANCH   7  13
ENDBRANCH   1   7
BRANCH   3  19
HETATM   19  C   UNL     1       8.738  31.222  60.328  1.00  0.00     0.175 A 
HETATM   20  S   UNL     1       9.271  30.483  61.766  1.00  0.00    -0.061 SA
HETATM   21  C   UNL     1       7.939  31.189  62.591  1.00  0.00     0.086 A 
HETATM   22  C   UNL     1       7.203  31.958  61.708  1.00  0.00     0.078 A 
HETATM   23  N   UNL     1       7.672  31.979  60.402  1.00  0.00    -0.223 NA
BRANCH  22  24
HETATM   24  C   UNL     1       6.030  32.709  62.100  1.00  0.00     0.011 A 
HETATM   25  C   UNL     1       4.832  32.078  62.420  1.00  0.00     0.130 A 
HETATM   26  N   UNL     1       3.707  32.732  62.795  1.00  0.00    -0.272 NA
HETATM   27  C   UNL     1       3.784  34.079  62.868  1.00  0.00     0.116 A 
HETATM   28  C   UNL     1       4.928  34.800  62.566  1.00  0.00     0.020 A 
HETATM   29  C   UNL     1       6.066  34.102  62.167  1.00  0.00     0.017 A 
ENDBRANCH  22  24
ENDBRANCH   3  19
TORSDOF 6
ENDMDL
MODEL 10
REMARK VINA RESULT:      -8.0      1.580      2.078
REMARK  6 active torsions:
REMARK  status: ('A' for Active; 'I' for Inactive)
REMARK    1  A    between atoms: N_2  and  C_4 
REMARK    2  A    between atoms: C_4  and  C_5 
REMARK    3  A    between atoms: C_5  and  N_6 
REMARK    4  A    between atoms: C_5  and  C_21 
REMARK       I    between atoms: N_6  and  C_7 
REMARK       I    between atoms: C_7  and  N_8 
REMARK    5  A    between atoms: N_8  and  C_9 
REMARK    6  A    between atoms: C_12  and  C_13 
ROOT
HETATM    1  N   UNL     1       5.646  27.609  54.818  1.00  0.00    -0.333 N 
HETATM    2  C   UNL     1       4.709  27.315  53.877  1.00  0.00     0.322 C 
HETATM    3  N   UNL     1       4.908  26.217  53.106  1.00  0.00    -0.287 N 
HETATM    4  O   UNL     1       3.663  27.951  53.776  1.00  0.00    -0.247 OA
HETATM    5  H   UNL     1       6.546  27.154  54.668  1.00  0.00     0.165 HD
HETATM    6  H   UNL     1       4.189  26.002  52.428  1.00  0.00     0.172 HD
ENDROOT
BRANCH   1   7
HETATM    7  C   UNL     1       5.647  28.801  55.654  1.00  0.00     0.145 C 
BRANCH   7   8
HETATM    8  C   UNL     1       5.122  30.116  54.997  1.00  0.00     0.263 C 
BRANCH   8   9
HETATM    9  N   UNL     1       4.180  30.962  55.860  1.00  0.00    -0.076 N 
HETATM   10  C   UNL     1       3.323  30.171  56.801  1.00  0.00     0.269 C 
HETATM   11  H   UNL     1       4.815  31.512  56.452  1.00  0.00     0.279 HD
HETATM   12  C   UNL     1       3.391  31.986  55.098  1.00  0.00     0.269 C 
ENDBRANCH   8   9
ENDBRANCH   7   8
BRANCH   7  13
HETATM   13  C   UNL     1       6.992  29.022  56.329  1.00  0.00    -0.034 A 
HETATM   14  C   UNL     1       7.048  29.248  57.716  1.00  0.00     0.009 A 
HETATM   15  C   UNL     1       8.266  29.501  58.350  1.00  0.00     0.001 A 
HETATM   16  C   UNL     1       9.447  29.523  57.612  1.00  0.00     0.000 A 
HETATM   17  C   UNL     1       9.412  29.284  56.242  1.00  0.00     0.001 A 
HETATM   18  C   UNL     1       8.194  29.035  55.604  1.00  0.00     0.009 A 
ENDBRANCH   7  13
ENDBRANCH   1   7
BRANCH   3  19
HETATM   19  C   UNL     1       5.944  25.335  53.220  1.00  0.00     0.175 A 
HETATM   20  S   UNL     1       7.150  25.493  52.028  1.00  0.00    -0.061 SA
HETATM   21  C   UNL     1       7.955  24.133  52.702  1.00  0.00     0.086 A 
HETATM   22  C   UNL     1       7.253  23.677  53.802  1.00  0.00     0.078 A 
HETATM   23  N   UNL     1       6.095  24.379  54.103  1.00  0.00    -0.223 NA
BRANCH  22  24
HETATM   24  C   UNL     1       7.687  22.557  54.610  1.00  0.00     0.011 A 
HETATM   25  C   UNL     1       7.876  21.293  54.063  1.00  0.00     0.130 A 
HETATM   26  N   UNL     1       8.282  20.213  54.772  1.00  0.00    -0.272 NA
HETATM   27  C   UNL     1       8.525  20.406  56.087  1.00  0.00     0.116 A 
HETATM   28  C   UNL     1       8.363  21.625  56.726  1.00  0.00     0.020 A 
HETATM   29  C   UNL     1       7.928  22.716  55.976  1.00  0.00     0.017 A 
ENDBRANCH  22  24
ENDBRANCH   3  19
TORSDOF 6
ENDMDL
