MODEL 1
REMARK VINA RESULT:     -10.5      0.000      0.000
REMARK  7 active torsions:
REMARK  status: ('A' for Active; 'I' for Inactive)
REMARK    1  A    between atoms: C_3  and  C_4 
REMARK       I    between atoms: C_4  and  N_5 
REMARK    2  A    between atoms: N_5  and  C_6 
REMARK    3  A    between atoms: C_6  and  C_7 
REMARK    4  A    between atoms: C_7  and  O_8 
REMARK    5  A    between atoms: C_7  and  C_9 
REMARK    6  A    between atoms: C_18  and  N_19 
REMARK       I    between atoms: N_19  and  C_20 
REMARK    7  A    between atoms: C_20  and  C_21 
ROOT
HETATM    1  C   UNL     1      10.932  29.335  56.657  1.00  0.00     0.050 C 
HETATM    2  C   UNL     1       9.622  29.570  57.338  1.00  0.00    -0.037 A 
HETATM    3  C   UNL     1       8.380  29.165  56.857  1.00  0.00     0.080 A 
HETATM    4  S   UNL     1       7.120  29.636  57.920  1.00  0.00    -0.066 SA
HETATM    5  C   UNL     1       8.191  30.313  59.038  1.00  0.00     0.078 A 
HETATM    6  C   UNL     1       9.495  30.229  58.607  1.00  0.00     0.045 A 
ENDROOT
BRANCH   3   7
HETATM    7  C   UNL     1       8.098  28.411  55.638  1.00  0.00     0.259 C 
HETATM    8  N   UNL     1       7.348  27.261  55.784  1.00  0.00    -0.354 N 
HETATM    9  H   UNL     1       7.107  26.999  56.734  1.00  0.00     0.162 HD
HETATM   10  O   UNL     1       8.508  28.742  54.527  1.00  0.00    -0.267 OA
BRANCH   8  11
HETATM   11  C   UNL     1       7.258  26.241  54.745  1.00  0.00     0.159 C 
BRANCH  11  12
HETATM   12  C   UNL     1       6.343  25.040  55.087  1.00  0.00     0.169 C 
BRANCH  12  13
HETATM   13  O   UNL     1       5.070  25.130  54.446  1.00  0.00    -0.389 OA
HETATM   14  H   UNL     1       5.199  25.631  53.613  1.00  0.00     0.210 HD
ENDBRANCH  12  13
BRANCH  12  15
HETATM   15  C   UNL     1       6.991  23.745  54.629  1.00  0.00    -0.028 A 
HETATM   16  C   UNL     1       7.359  22.765  55.565  1.00  0.00     0.013 A 
HETATM   17  C   UNL     1       7.985  21.589  55.146  1.00  0.00     0.043 A 
HETATM   18  C   UNL     1       8.246  21.390  53.795  1.00  0.00     0.116 A 
HETATM   19  F   UNL     1       8.850  20.262  53.397  1.00  0.00    -0.206 F 
HETATM   20  C   UNL     1       7.893  22.346  52.851  1.00  0.00     0.043 A 
HETATM   21  C   UNL     1       7.268  23.522  53.267  1.00  0.00     0.013 A 
ENDBRANCH  12  15
ENDBRANCH  11  12
ENDBRANCH   8  11
ENDBRANCH   3   7
BRANCH   5  22
HETATM   22  N   UNL     1       7.781  30.840  60.248  1.00  0.00    -0.317 N 
HETATM   23  C   UNL     1       7.976  32.128  60.707  1.00  0.00     0.258 C 
HETATM   24  O   UNL     1       8.631  33.004  60.150  1.00  0.00    -0.267 OA
HETATM   25  H   UNL     1       7.299  30.191  60.858  1.00  0.00     0.169 HD
BRANCH  23  26
HETATM   26  C   UNL     1       7.279  32.492  61.986  1.00  0.00     0.054 A 
HETATM   27  C   UNL     1       5.901  32.704  62.146  1.00  0.00     0.049 A 
HETATM   28 CL   UNL     1       4.736  32.499  60.882  1.00  0.00    -0.083 Cl
HETATM   29  C   UNL     1       5.385  33.083  63.395  1.00  0.00     0.025 A 
HETATM   30  C   UNL     1       6.228  33.239  64.495  1.00  0.00     0.002 A 
HETATM   31  C   UNL     1       7.592  33.013  64.355  1.00  0.00     0.001 A 
HETATM   32  C   UNL     1       8.111  32.642  63.113  1.00  0.00     0.019 A 
ENDBRANCH  23  26
ENDBRANCH   5  22
TORSDOF 7
ENDMDL
MODEL 2
REMARK VINA RESULT:     -10.0      4.519     11.067
REMARK  7 active torsions:
REMARK  status: ('A' for Active; 'I' for Inactive)
REMARK    1  A    between atoms: C_3  and  C_4 
REMARK       I    between atoms: C_4  and  N_5 
REMARK    2  A    between atoms: N_5  and  C_6 
REMARK    3  A    between atoms: C_6  and  C_7 
REMARK    4  A    between atoms: C_7  and  O_8 
REMARK    5  A    between atoms: C_7  and  C_9 
REMARK    6  A    between atoms: C_18  and  N_19 
REMARK       I    between atoms: N_19  and  C_20 
REMARK    7  A    between atoms: C_20  and  C_21 
ROOT
HETATM    1  C   UNL     1       5.157  30.794  57.709  1.00  0.00     0.050 C 
HETATM    2  C   UNL     1       6.315  29.877  57.476  1.00  0.00    -0.037 A 
HETATM    3  C   UNL     1       7.561  29.983  58.087  1.00  0.00     0.080 A 
HETATM    4  S   UNL     1       8.624  28.751  57.546  1.00  0.00    -0.066 SA
HETATM    5  C   UNL     1       7.447  28.041  56.563  1.00  0.00     0.078 A 
HETATM    6  C   UNL     1       6.263  28.741  56.600  1.00  0.00     0.045 A 
ENDROOT
BRANCH   3   7
HETATM    7  C   UNL     1       7.985  30.960  59.087  1.00  0.00     0.259 C 
HETATM    8  N   UNL     1       7.665  30.678  60.399  1.00  0.00    -0.354 N 
HETATM    9  H   UNL     1       7.107  29.846  60.557  1.00  0.00     0.162 HD
HETATM   10  O   UNL     1       8.577  32.001  58.807  1.00  0.00    -0.267 OA
BRANCH   8  11
HETATM   11  C   UNL     1       7.720  31.681  61.458  1.00  0.00     0.159 C 
BRANCH  11  12
HETATM   12  C   UNL     1       6.422  32.503  61.646  1.00  0.00     0.169 C 
BRANCH  12  13
HETATM   13  O   UNL     1       5.250  31.733  61.375  1.00  0.00    -0.389 OA
HETATM   14  H   UNL     1       5.266  31.505  60.421  1.00  0.00     0.210 HD
ENDBRANCH  12  13
BRANCH  12  15
HETATM   15  C   UNL     1       6.320  32.995  63.080  1.00  0.00    -0.028 A 
HETATM   16  C   UNL     1       7.479  33.210  63.842  1.00  0.00     0.013 A 
HETATM   17  C   UNL     1       7.383  33.630  65.170  1.00  0.00     0.043 A 
HETATM   18  C   UNL     1       6.131  33.834  65.740  1.00  0.00     0.116 A 
HETATM   19  F   UNL     1       6.043  34.235  67.016  1.00  0.00    -0.206 F 
HETATM   20  C   UNL     1       4.970  33.626  65.006  1.00  0.00     0.043 A 
HETATM   21  C   UNL     1       5.064  33.206  63.679  1.00  0.00     0.013 A 
ENDBRANCH  12  15
ENDBRANCH  11  12
ENDBRANCH   8  11
ENDBRANCH   3   7
BRANCH   5  22
HETATM   22  N   UNL     1       7.664  26.874  55.855  1.00  0.00    -0.317 N 
HETATM   23  C   UNL     1       7.140  25.624  56.124  1.00  0.00     0.258 C 
HETATM   24  O   UNL     1       6.460  25.319  57.099  1.00  0.00    -0.267 OA
HETATM   25  H   UNL     1       8.290  26.961  55.063  1.00  0.00     0.169 HD
BRANCH  23  26
HETATM   26  C   UNL     1       7.396  24.559  55.097  1.00  0.00     0.054 A 
HETATM   27  C   UNL     1       7.969  23.300  55.335  1.00  0.00     0.049 A 
HETATM   28 CL   UNL     1       8.416  22.720  56.903  1.00  0.00    -0.083 Cl
HETATM   29  C   UNL     1       8.190  22.413  54.270  1.00  0.00     0.025 A 
HETATM   30  C   UNL     1       7.832  22.761  52.968  1.00  0.00     0.002 A 
HETATM   31  C   UNL     1       7.244  23.996  52.722  1.00  0.00     0.001 A 
HETATM   32  C   UNL     1       7.027  24.885  53.776  1.00  0.00     0.019 A 
ENDBRANCH  23  26
ENDBRANCH   5  22
TORSDOF 7
ENDMDL
MODEL 3
REMARK VINA RESULT:     -10.0      7.623     10.463
REMARK  7 active torsions:
REMARK  status: ('A' for Active; 'I' for Inactive)
REMARK    1  A    between atoms: C_3  and  C_4 
REMARK       I    between atoms: C_4  and  N_5 
REMARK    2  A    between atoms: N_5  and  C_6 
REMARK    3  A    between atoms: C_6  and  C_7 
REMARK    4  A    between atoms: C_7  and  O_8 
REMARK    5  A    between atoms: C_7  and  C_9 
REMARK    6  A    between atoms: C_18  and  N_19 
REMARK       I    between atoms: N_19  and  C_20 
REMARK    7  A    between atoms: C_20  and  C_21 
ROOT
HETATM    1  C   UNL     1       4.775  28.833  53.824  1.00  0.00     0.050 C 
HETATM    2  C   UNL     1       5.107  27.457  53.342  1.00  0.00    -0.037 A 
HETATM    3  C   UNL     1       5.037  27.029  52.019  1.00  0.00     0.080 A 
HETATM    4  S   UNL     1       5.483  25.380  51.877  1.00  0.00    -0.066 SA
HETATM    5  C   UNL     1       5.827  25.236  53.525  1.00  0.00     0.078 A 
HETATM    6  C   UNL     1       5.573  26.407  54.201  1.00  0.00     0.045 A 
ENDROOT
BRANCH   3   7
HETATM    7  C   UNL     1       4.672  27.817  50.844  1.00  0.00     0.259 C 
HETATM    8  N   UNL     1       5.593  27.854  49.817  1.00  0.00    -0.354 N 
HETATM    9  H   UNL     1       6.475  27.383  49.986  1.00  0.00     0.162 HD
HETATM   10  O   UNL     1       3.619  28.444  50.750  1.00  0.00    -0.267 OA
BRANCH   8  11
HETATM   11  C   UNL     1       5.534  28.836  48.739  1.00  0.00     0.159 C 
BRANCH  11  12
HETATM   12  C   UNL     1       5.179  28.257  47.348  1.00  0.00     0.169 C 
BRANCH  12  13
HETATM   13  O   UNL     1       5.812  27.000  47.107  1.00  0.00    -0.389 OA
HETATM   14  H   UNL     1       5.102  26.343  46.944  1.00  0.00     0.210 HD
ENDBRANCH  12  13
BRANCH  12  15
HETATM   15  C   UNL     1       3.680  28.037  47.242  1.00  0.00    -0.028 A 
HETATM   16  C   UNL     1       3.145  26.740  47.312  1.00  0.00     0.013 A 
HETATM   17  C   UNL     1       1.769  26.536  47.180  1.00  0.00     0.043 A 
HETATM   18  C   UNL     1       0.927  27.623  46.977  1.00  0.00     0.116 A 
HETATM   19  F   UNL     1      -0.392  27.423  46.849  1.00  0.00    -0.206 F 
HETATM   20  C   UNL     1       1.433  28.915  46.904  1.00  0.00     0.043 A 
HETATM   21  C   UNL     1       2.807  29.121  47.034  1.00  0.00     0.013 A 
ENDBRANCH  12  15
ENDBRANCH  11  12
ENDBRANCH   8  11
ENDBRANCH   3   7
BRANCH   5  22
HETATM   22  N   UNL     1       6.341  24.083  54.087  1.00  0.00    -0.317 N 
HETATM   23  C   UNL     1       7.541  23.469  53.784  1.00  0.00     0.258 C 
HETATM   24  O   UNL     1       8.317  23.798  52.891  1.00  0.00    -0.267 OA
HETATM   25  H   UNL     1       5.753  23.646  54.787  1.00  0.00     0.169 HD
BRANCH  23  26
HETATM   26  C   UNL     1       7.944  22.322  54.664  1.00  0.00     0.054 A 
HETATM   27  C   UNL     1       8.196  21.006  54.246  1.00  0.00     0.049 A 
HETATM   28 CL   UNL     1       8.159  20.491  52.594  1.00  0.00    -0.083 Cl
HETATM   29  C   UNL     1       8.525  20.018  55.186  1.00  0.00     0.025 A 
HETATM   30  C   UNL     1       8.622  20.330  56.542  1.00  0.00     0.002 A 
HETATM   31  C   UNL     1       8.396  21.633  56.967  1.00  0.00     0.001 A 
HETATM   32  C   UNL     1       8.062  22.619  56.037  1.00  0.00     0.019 A 
ENDBRANCH  23  26
ENDBRANCH   5  22
TORSDOF 7
ENDMDL
MODEL 4
REMARK VINA RESULT:      -9.8      4.335     11.004
REMARK  7 active torsions:
REMARK  status: ('A' for Active; 'I' for Inactive)
REMARK    1  A    between atoms: C_3  and  C_4 
REMARK       I    between atoms: C_4  and  N_5 
REMARK    2  A    between atoms: N_5  and  C_6 
REMARK    3  A    between atoms: C_6  and  C_7 
REMARK    4  A    between atoms: C_7  and  O_8 
REMARK    5  A    between atoms: C_7  and  C_9 
REMARK    6  A    between atoms: C_18  and  N_19 
REMARK       I    between atoms: N_19  and  C_20 
REMARK    7  A    between atoms: C_20  and  C_21 
ROOT
HETATM    1  C   UNL     1       4.660  29.357  56.529  1.00  0.00     0.050 C 
HETATM    2  C   UNL     1       5.796  28.385  56.534  1.00  0.00    -0.037 A 
HETATM    3  C   UNL     1       7.057  28.623  57.074  1.00  0.00     0.080 A 
HETATM    4  S   UNL     1       8.086  27.266  56.868  1.00  0.00    -0.066 SA
HETATM    5  C   UNL     1       6.876  26.345  56.131  1.00  0.00     0.078 A 
HETATM    6  C   UNL     1       5.706  27.057  55.997  1.00  0.00     0.045 A 
ENDROOT
BRANCH   3   7
HETATM    7  C   UNL     1       7.519  29.823  57.767  1.00  0.00     0.259 C 
HETATM    8  N   UNL     1       6.698  30.315  58.762  1.00  0.00    -0.354 N 
HETATM    9  H   UNL     1       5.811  29.840  58.889  1.00  0.00     0.162 HD
HETATM   10  O   UNL     1       8.567  30.403  57.490  1.00  0.00    -0.267 OA
BRANCH   8  11
HETATM   11  C   UNL     1       6.845  31.658  59.313  1.00  0.00     0.159 C 
BRANCH  11  12
HETATM   12  C   UNL     1       8.051  31.845  60.265  1.00  0.00     0.169 C 
BRANCH  12  13
HETATM   13  O   UNL     1       9.084  32.638  59.680  1.00  0.00    -0.389 OA
HETATM   14  H   UNL     1       9.786  32.745  60.357  1.00  0.00     0.210 HD
ENDBRANCH  12  13
BRANCH  12  15
HETATM   15  C   UNL     1       7.607  32.544  61.538  1.00  0.00    -0.028 A 
HETATM   16  C   UNL     1       8.266  32.296  62.752  1.00  0.00     0.013 A 
HETATM   17  C   UNL     1       7.836  32.914  63.929  1.00  0.00     0.043 A 
HETATM   18  C   UNL     1       6.747  33.778  63.895  1.00  0.00     0.116 A 
HETATM   19  F   UNL     1       6.336  34.367  65.026  1.00  0.00    -0.206 F 
HETATM   20  C   UNL     1       6.078  34.038  62.706  1.00  0.00     0.043 A 
HETATM   21  C   UNL     1       6.506  33.421  61.530  1.00  0.00     0.013 A 
ENDBRANCH  12  15
ENDBRANCH  11  12
ENDBRANCH   8  11
ENDBRANCH   3   7
BRANCH   5  22
HETATM   22  N   UNL     1       7.057  25.026  55.761  1.00  0.00    -0.317 N 
HETATM   23  C   UNL     1       7.643  24.557  54.601  1.00  0.00     0.258 C 
HETATM   24  O   UNL     1       8.025  25.240  53.655  1.00  0.00    -0.267 OA
HETATM   25  H   UNL     1       6.700  24.343  56.418  1.00  0.00     0.169 HD
BRANCH  23  26
HETATM   26  C   UNL     1       7.871  23.075  54.522  1.00  0.00     0.054 A 
HETATM   27  C   UNL     1       8.240  22.237  55.585  1.00  0.00     0.049 A 
HETATM   28 CL   UNL     1       8.419  22.770  57.222  1.00  0.00    -0.083 Cl
HETATM   29  C   UNL     1       8.462  20.869  55.361  1.00  0.00     0.025 A 
HETATM   30  C   UNL     1       8.307  20.323  54.087  1.00  0.00     0.002 A 
HETATM   31  C   UNL     1       7.923  21.139  53.030  1.00  0.00     0.001 A 
HETATM   32  C   UNL     1       7.706  22.500  53.246  1.00  0.00     0.019 A 
ENDBRANCH  23  26
ENDBRANCH   5  22
TORSDOF 7
ENDMDL
MODEL 5
REMARK VINA RESULT:      -9.5      6.262      9.776
REMARK  7 active torsions:
REMARK  status: ('A' for Active; 'I' for Inactive)
REMARK    1  A    between atoms: C_3  and  C_4 
REMARK       I    between atoms: C_4  and  N_5 
REMARK    2  A    between atoms: N_5  and  C_6 
REMARK    3  A    between atoms: C_6  and  C_7 
REMARK    4  A    between atoms: C_7  and  O_8 
REMARK    5  A    between atoms: C_7  and  C_9 
REMARK    6  A    between atoms: C_18  and  N_19 
REMARK       I    between atoms: N_19  and  C_20 
REMARK    7  A    between atoms: C_20  and  C_21 
ROOT
HETATM    1  C   UNL     1       4.313  29.019  55.793  1.00  0.00     0.050 C 
HETATM    2  C   UNL     1       4.605  27.941  54.799  1.00  0.00    -0.037 A 
HETATM    3  C   UNL     1       4.310  27.997  53.440  1.00  0.00     0.080 A 
HETATM    4  S   UNL     1       4.788  26.557  52.642  1.00  0.00    -0.066 SA
HETATM    5  C   UNL     1       5.435  25.883  54.050  1.00  0.00     0.078 A 
HETATM    6  C   UNL     1       5.263  26.710  55.135  1.00  0.00     0.045 A 
ENDROOT
BRANCH   3   7
HETATM    7  C   UNL     1       3.705  29.104  52.704  1.00  0.00     0.259 C 
HETATM    8  N   UNL     1       2.635  28.790  51.889  1.00  0.00    -0.354 N 
HETATM    9  H   UNL     1       2.396  27.807  51.820  1.00  0.00     0.162 HD
HETATM   10  O   UNL     1       4.114  30.262  52.765  1.00  0.00    -0.267 OA
BRANCH   8  11
HETATM   11  C   UNL     1       2.138  29.694  50.857  1.00  0.00     0.159 C 
BRANCH  11  12
HETATM   12  C   UNL     1       2.967  29.711  49.550  1.00  0.00     0.169 C 
BRANCH  12  13
HETATM   13  O   UNL     1       4.314  30.130  49.769  1.00  0.00    -0.389 OA
HETATM   14  H   UNL     1       4.285  31.076  50.029  1.00  0.00     0.210 HD
ENDBRANCH  12  13
BRANCH  12  15
HETATM   15  C   UNL     1       3.018  28.318  48.947  1.00  0.00    -0.028 A 
HETATM   16  C   UNL     1       1.863  27.738  48.398  1.00  0.00     0.013 A 
HETATM   17  C   UNL     1       1.903  26.444  47.874  1.00  0.00     0.043 A 
HETATM   18  C   UNL     1       3.094  25.727  47.900  1.00  0.00     0.116 A 
HETATM   19  F   UNL     1       3.129  24.484  47.399  1.00  0.00    -0.206 F 
HETATM   20  C   UNL     1       4.249  26.279  48.439  1.00  0.00     0.043 A 
HETATM   21  C   UNL     1       4.211  27.571  48.963  1.00  0.00     0.013 A 
ENDBRANCH  12  15
ENDBRANCH  11  12
ENDBRANCH   8  11
ENDBRANCH   3   7
BRANCH   5  22
HETATM   22  N   UNL     1       6.090  24.665  54.068  1.00  0.00    -0.317 N 
HETATM   23  C   UNL     1       7.372  24.401  53.626  1.00  0.00     0.258 C 
HETATM   24  O   UNL     1       8.119  25.190  53.056  1.00  0.00    -0.267 OA
HETATM   25  H   UNL     1       5.549  23.892  54.435  1.00  0.00     0.169 HD
BRANCH  23  26
HETATM   26  C   UNL     1       7.907  23.028  53.919  1.00  0.00     0.054 A 
HETATM   27  C   UNL     1       8.567  22.630  55.091  1.00  0.00     0.049 A 
HETATM   28 CL   UNL     1       8.812  23.658  56.462  1.00  0.00    -0.083 Cl
HETATM   29  C   UNL     1       9.055  21.320  55.215  1.00  0.00     0.025 A 
HETATM   30  C   UNL     1       8.879  20.394  54.187  1.00  0.00     0.002 A 
HETATM   31  C   UNL     1       8.209  20.770  53.029  1.00  0.00     0.001 A 
HETATM   32  C   UNL     1       7.726  22.073  52.898  1.00  0.00     0.019 A 
ENDBRANCH  23  26
ENDBRANCH   5  22
TORSDOF 7
ENDMDL
MODEL 6
REMARK VINA RESULT:      -9.5      4.525     10.912
REMARK  7 active torsions:
REMARK  status: ('A' for Active; 'I' for Inactive)
REMARK    1  A    between atoms: C_3  and  C_4 
REMARK       I    between atoms: C_4  and  N_5 
REMARK    2  A    between atoms: N_5  and  C_6 
REMARK    3  A    between atoms: C_6  and  C_7 
REMARK    4  A    between atoms: C_7  and  O_8 
REMARK    5  A    between atoms: C_7  and  C_9 
REMARK    6  A    between atoms: C_18  and  N_19 
REMARK       I    between atoms: N_19  and  C_20 
REMARK    7  A    between atoms: C_20  and  C_21 
ROOT
HETATM    1  C   UNL     1       4.361  30.583  54.759  1.00  0.00     0.050 C 
HETATM    2  C   UNL     1       5.262  29.566  55.384  1.00  0.00    -0.037 A 
HETATM    3  C   UNL     1       5.749  29.616  56.687  1.00  0.00     0.080 A 
HETATM    4  S   UNL     1       6.763  28.273  57.021  1.00  0.00    -0.066 SA
HETATM    5  C   UNL     1       6.521  27.594  55.493  1.00  0.00     0.078 A 
HETATM    6  C   UNL     1       5.714  28.384  54.707  1.00  0.00     0.045 A 
ENDROOT
BRANCH   3   7
HETATM    7  C   UNL     1       5.463  30.619  57.709  1.00  0.00     0.259 C 
HETATM    8  N   UNL     1       6.523  31.406  58.114  1.00  0.00    -0.354 N 
HETATM    9  H   UNL     1       7.428  31.182  57.714  1.00  0.00     0.162 HD
HETATM   10  O   UNL     1       4.355  30.768  58.221  1.00  0.00    -0.267 OA
BRANCH   8  11
HETATM   11  C   UNL     1       6.488  32.211  59.330  1.00  0.00     0.159 C 
BRANCH  11  12
HETATM   12  C   UNL     1       7.709  32.034  60.265  1.00  0.00     0.169 C 
BRANCH  12  13
HETATM   13  O   UNL     1       8.876  32.684  59.761  1.00  0.00    -0.389 OA
HETATM   14  H   UNL     1       9.613  32.475  60.374  1.00  0.00     0.210 HD
ENDBRANCH  12  13
BRANCH  12  15
HETATM   15  C   UNL     1       7.411  32.631  61.630  1.00  0.00    -0.028 A 
HETATM   16  C   UNL     1       6.378  33.568  61.786  1.00  0.00     0.013 A 
HETATM   17  C   UNL     1       6.127  34.141  63.035  1.00  0.00     0.043 A 
HETATM   18  C   UNL     1       6.908  33.782  64.127  1.00  0.00     0.116 A 
HETATM   19  F   UNL     1       6.666  34.336  65.323  1.00  0.00    -0.206 F 
HETATM   20  C   UNL     1       7.936  32.858  63.997  1.00  0.00     0.043 A 
HETATM   21  C   UNL     1       8.189  32.284  62.751  1.00  0.00     0.013 A 
ENDBRANCH  12  15
ENDBRANCH  11  12
ENDBRANCH   8  11
ENDBRANCH   3   7
BRANCH   5  22
HETATM   22  N   UNL     1       7.048  26.371  55.123  1.00  0.00    -0.317 N 
HETATM   23  C   UNL     1       6.505  25.123  55.357  1.00  0.00     0.258 C 
HETATM   24  O   UNL     1       5.498  24.883  56.018  1.00  0.00    -0.267 OA
HETATM   25  H   UNL     1       7.937  26.415  54.640  1.00  0.00     0.169 HD
BRANCH  23  26
HETATM   26  C   UNL     1       7.192  23.963  54.697  1.00  0.00     0.054 A 
HETATM   27  C   UNL     1       7.435  23.816  53.322  1.00  0.00     0.049 A 
HETATM   28 CL   UNL     1       7.042  25.015  52.137  1.00  0.00    -0.083 Cl
HETATM   29  C   UNL     1       8.053  22.655  52.834  1.00  0.00     0.025 A 
HETATM   30  C   UNL     1       8.448  21.640  53.705  1.00  0.00     0.002 A 
HETATM   31  C   UNL     1       8.233  21.781  55.070  1.00  0.00     0.001 A 
HETATM   32  C   UNL     1       7.613  22.931  55.561  1.00  0.00     0.019 A 
ENDBRANCH  23  26
ENDBRANCH   5  22
TORSDOF 7
ENDMDL
MODEL 7
REMARK VINA RESULT:      -9.4      4.694     10.888
REMARK  7 active torsions:
REMARK  status: ('A' for Active; 'I' for Inactive)
REMARK    1  A    between atoms: C_3  and  C_4 
REMARK       I    between atoms: C_4  and  N_5 
REMARK    2  A    between atoms: N_5  and  C_6 
REMARK    3  A    between atoms: C_6  and  C_7 
REMARK    4  A    between atoms: C_7  and  O_8 
REMARK    5  A    between atoms: C_7  and  C_9 
REMARK    6  A    between atoms: C_18  and  N_19 
REMARK       I    between atoms: N_19  and  C_20 
REMARK    7  A    between atoms: C_20  and  C_21 
ROOT
HETATM    1  C   UNL     1       3.236  30.876  56.907  1.00  0.00     0.050 C 
HETATM    2  C   UNL     1       4.561  30.199  57.060  1.00  0.00    -0.037 A 
HETATM    3  C   UNL     1       5.626  30.676  57.818  1.00  0.00     0.080 A 
HETATM    4  S   UNL     1       6.974  29.620  57.727  1.00  0.00    -0.066 SA
HETATM    5  C   UNL     1       6.155  28.510  56.751  1.00  0.00     0.078 A 
HETATM    6  C   UNL     1       4.882  28.938  56.453  1.00  0.00     0.045 A 
ENDROOT
BRANCH   3   7
HETATM    7  C   UNL     1       5.668  31.886  58.636  1.00  0.00     0.259 C 
HETATM    8  N   UNL     1       5.479  31.719  59.993  1.00  0.00    -0.354 N 
HETATM    9  H   UNL     1       5.264  30.779  60.305  1.00  0.00     0.162 HD
HETATM   10  O   UNL     1       5.839  33.011  58.170  1.00  0.00    -0.267 OA
BRANCH   8  11
HETATM   11  C   UNL     1       5.169  32.829  60.888  1.00  0.00     0.159 C 
BRANCH  11  12
HETATM   12  C   UNL     1       4.450  32.429  62.199  1.00  0.00     0.169 C 
BRANCH  12  13
HETATM   13  O   UNL     1       4.267  31.017  62.306  1.00  0.00    -0.389 OA
HETATM   14  H   UNL     1       5.139  30.628  62.530  1.00  0.00     0.210 HD
ENDBRANCH  12  13
BRANCH  12  15
HETATM   15  C   UNL     1       5.268  32.873  63.399  1.00  0.00    -0.028 A 
HETATM   16  C   UNL     1       4.637  33.435  64.520  1.00  0.00     0.013 A 
HETATM   17  C   UNL     1       5.394  33.874  65.610  1.00  0.00     0.043 A 
HETATM   18  C   UNL     1       6.779  33.754  65.580  1.00  0.00     0.116 A 
HETATM   19  F   UNL     1       7.501  34.179  66.626  1.00  0.00    -0.206 F 
HETATM   20  C   UNL     1       7.425  33.204  64.481  1.00  0.00     0.043 A 
HETATM   21  C   UNL     1       6.671  32.765  63.392  1.00  0.00     0.013 A 
ENDBRANCH  12  15
ENDBRANCH  11  12
ENDBRANCH   8  11
ENDBRANCH   3   7
BRANCH   5  22
HETATM   22  N   UNL     1       6.707  27.307  56.355  1.00  0.00    -0.317 N 
HETATM   23  C   UNL     1       6.173  26.045  56.528  1.00  0.00     0.258 C 
HETATM   24  O   UNL     1       5.150  25.771  57.149  1.00  0.00    -0.267 OA
HETATM   25  H   UNL     1       7.611  27.377  55.902  1.00  0.00     0.169 HD
BRANCH  23  26
HETATM   26  C   UNL     1       6.895  24.917  55.849  1.00  0.00     0.054 A 
HETATM   27  C   UNL     1       6.579  24.366  54.598  1.00  0.00     0.049 A 
HETATM   28 CL   UNL     1       5.324  24.962  53.566  1.00  0.00    -0.083 Cl
HETATM   29  C   UNL     1       7.315  23.281  54.099  1.00  0.00     0.025 A 
HETATM   30  C   UNL     1       8.375  22.744  54.829  1.00  0.00     0.002 A 
HETATM   31  C   UNL     1       8.711  23.293  56.061  1.00  0.00     0.001 A 
HETATM   32  C   UNL     1       7.979  24.369  56.564  1.00  0.00     0.019 A 
ENDBRANCH  23  26
ENDBRANCH   5  22
TORSDOF 7
ENDMDL
MODEL 8
REMARK VINA RESULT:      -9.3      5.795      9.542
REMARK  7 active torsions:
REMARK  status: ('A' for Active; 'I' for Inactive)
REMARK    1  A    between atoms: C_3  and  C_4 
REMARK       I    between atoms: C_4  and  N_5 
REMARK    2  A    between atoms: N_5  and  C_6 
REMARK    3  A    between atoms: C_6  and  C_7 
REMARK    4  A    between atoms: C_7  and  O_8 
REMARK    5  A    between atoms: C_7  and  C_9 
REMARK    6  A    between atoms: C_18  and  N_19 
REMARK       I    between atoms: N_19  and  C_20 
REMARK    7  A    between atoms: C_20  and  C_21 
ROOT
HETATM    1  C   UNL     1       4.861  29.563  55.888  1.00  0.00     0.050 C 
HETATM    2  C   UNL     1       4.735  28.715  54.663  1.00  0.00    -0.037 A 
HETATM    3  C   UNL     1       5.346  27.480  54.472  1.00  0.00     0.080 A 
HETATM    4  S   UNL     1       4.968  26.832  52.930  1.00  0.00    -0.066 SA
HETATM    5  C   UNL     1       3.960  28.128  52.532  1.00  0.00     0.078 A 
HETATM    6  C   UNL     1       3.929  29.074  53.530  1.00  0.00     0.045 A 
ENDROOT
BRANCH   3   7
HETATM    7  C   UNL     1       6.187  26.745  55.414  1.00  0.00     0.259 C 
HETATM    8  N   UNL     1       5.916  25.399  55.562  1.00  0.00    -0.354 N 
HETATM    9  H   UNL     1       5.116  25.043  55.052  1.00  0.00     0.162 HD
HETATM   10  O   UNL     1       7.082  27.270  56.074  1.00  0.00    -0.267 OA
BRANCH   8  11
HETATM   11  C   UNL     1       6.430  24.610  56.677  1.00  0.00     0.159 C 
BRANCH  11  12
HETATM   12  C   UNL     1       7.872  24.079  56.491  1.00  0.00     0.169 C 
BRANCH  12  13
HETATM   13  O   UNL     1       8.373  23.449  57.670  1.00  0.00    -0.389 OA
HETATM   14  H   UNL     1       8.367  24.122  58.384  1.00  0.00     0.210 HD
ENDBRANCH  12  13
BRANCH  12  15
HETATM   15  C   UNL     1       7.908  23.047  55.376  1.00  0.00    -0.028 A 
HETATM   16  C   UNL     1       7.851  21.677  55.674  1.00  0.00     0.013 A 
HETATM   17  C   UNL     1       7.918  20.728  54.651  1.00  0.00     0.043 A 
HETATM   18  C   UNL     1       8.044  21.146  53.331  1.00  0.00     0.116 A 
HETATM   19  F   UNL     1       8.111  20.234  52.352  1.00  0.00    -0.206 F 
HETATM   20  C   UNL     1       8.104  22.497  53.012  1.00  0.00     0.043 A 
HETATM   21  C   UNL     1       8.037  23.446  54.032  1.00  0.00     0.013 A 
ENDBRANCH  12  15
ENDBRANCH  11  12
ENDBRANCH   8  11
ENDBRANCH   3   7
BRANCH   5  22
HETATM   22  N   UNL     1       3.233  28.181  51.357  1.00  0.00    -0.317 N 
HETATM   23  C   UNL     1       3.729  28.180  50.068  1.00  0.00     0.258 C 
HETATM   24  O   UNL     1       4.913  28.221  49.747  1.00  0.00    -0.267 OA
HETATM   25  H   UNL     1       2.229  28.243  51.476  1.00  0.00     0.169 HD
BRANCH  23  26
HETATM   26  C   UNL     1       2.716  28.070  48.965  1.00  0.00     0.054 A 
HETATM   27  C   UNL     1       2.484  26.941  48.163  1.00  0.00     0.049 A 
HETATM   28 CL   UNL     1       3.293  25.425  48.368  1.00  0.00    -0.083 Cl
HETATM   29  C   UNL     1       1.530  26.990  47.135  1.00  0.00     0.025 A 
HETATM   30  C   UNL     1       0.791  28.150  46.905  1.00  0.00     0.002 A 
HETATM   31  C   UNL     1       0.996  29.267  47.705  1.00  0.00     0.001 A 
HETATM   32  C   UNL     1       1.947  29.227  48.725  1.00  0.00     0.019 A 
ENDBRANCH  23  26
ENDBRANCH   5  22
TORSDOF 7
ENDMDL
MODEL 9
REMARK VINA RESULT:      -9.3      4.385     10.520
REMARK  7 active torsions:
REMARK  status: ('A' for Active; 'I' for Inactive)
REMARK    1  A    between atoms: C_3  and  C_4 
REMARK       I    between atoms: C_4  and  N_5 
REMARK    2  A    between atoms: N_5  and  C_6 
REMARK    3  A    between atoms: C_6  and  C_7 
REMARK    4  A    between atoms: C_7  and  O_8 
REMARK    5  A    between atoms: C_7  and  C_9 
REMARK    6  A    between atoms: C_18  and  N_19 
REMARK       I    between atoms: N_19  and  C_20 
REMARK    7  A    between atoms: C_20  and  C_21 
ROOT
HETATM    1  C   UNL     1       8.957  31.103  59.168  1.00  0.00     0.050 C 
HETATM    2  C   UNL     1       8.072  30.243  58.324  1.00  0.00    -0.037 A 
HETATM    3  C   UNL     1       6.734  30.499  58.038  1.00  0.00     0.080 A 
HETATM    4  S   UNL     1       6.064  29.269  57.049  1.00  0.00    -0.066 SA
HETATM    5  C   UNL     1       7.528  28.432  56.941  1.00  0.00     0.078 A 
HETATM    6  C   UNL     1       8.519  29.043  57.674  1.00  0.00     0.045 A 
ENDROOT
BRANCH   3   7
HETATM    7  C   UNL     1       5.938  31.650  58.456  1.00  0.00     0.259 C 
HETATM    8  N   UNL     1       5.259  31.529  59.651  1.00  0.00    -0.354 N 
HETATM    9  H   UNL     1       5.317  30.628  60.113  1.00  0.00     0.162 HD
HETATM   10  O   UNL     1       5.837  32.680  57.791  1.00  0.00    -0.267 OA
BRANCH   8  11
HETATM   11  C   UNL     1       4.182  32.433  60.042  1.00  0.00     0.159 C 
BRANCH  11  12
HETATM   12  C   UNL     1       3.774  32.356  61.533  1.00  0.00     0.169 C 
BRANCH  12  13
HETATM   13  O   UNL     1       3.471  31.022  61.942  1.00  0.00    -0.389 OA
HETATM   14  H   UNL     1       3.502  31.005  62.923  1.00  0.00     0.210 HD
ENDBRANCH  12  13
BRANCH  12  15
HETATM   15  C   UNL     1       4.909  32.852  62.411  1.00  0.00    -0.028 A 
HETATM   16  C   UNL     1       5.856  31.953  62.925  1.00  0.00     0.013 A 
HETATM   17  C   UNL     1       6.881  32.406  63.760  1.00  0.00     0.043 A 
HETATM   18  C   UNL     1       6.960  33.756  64.083  1.00  0.00     0.116 A 
HETATM   19  F   UNL     1       7.942  34.187  64.886  1.00  0.00    -0.206 F 
HETATM   20  C   UNL     1       6.034  34.665  63.587  1.00  0.00     0.043 A 
HETATM   21  C   UNL     1       5.010  34.214  62.754  1.00  0.00     0.013 A 
ENDBRANCH  12  15
ENDBRANCH  11  12
ENDBRANCH   8  11
ENDBRANCH   3   7
BRANCH   5  22
HETATM   22  N   UNL     1       7.690  27.299  56.165  1.00  0.00    -0.317 N 
HETATM   23  C   UNL     1       7.148  26.049  56.390  1.00  0.00     0.258 C 
HETATM   24  O   UNL     1       6.497  25.707  57.373  1.00  0.00    -0.267 OA
HETATM   25  H   UNL     1       8.288  27.415  55.356  1.00  0.00     0.169 HD
BRANCH  23  26
HETATM   26  C   UNL     1       7.339  25.034  55.300  1.00  0.00     0.054 A 
HETATM   27  C   UNL     1       7.955  23.780  55.435  1.00  0.00     0.049 A 
HETATM   28 CL   UNL     1       8.541  23.145  56.935  1.00  0.00    -0.083 Cl
HETATM   29  C   UNL     1       8.105  22.944  54.318  1.00  0.00     0.025 A 
HETATM   30  C   UNL     1       7.635  23.338  53.066  1.00  0.00     0.002 A 
HETATM   31  C   UNL     1       7.005  24.568  52.922  1.00  0.00     0.001 A 
HETATM   32  C   UNL     1       6.858  25.407  54.029  1.00  0.00     0.019 A 
ENDBRANCH  23  26
ENDBRANCH   5  22
TORSDOF 7
ENDMDL
MODEL 10
REMARK VINA RESULT:      -8.9      3.959     10.115
REMARK  7 active torsions:
REMARK  status: ('A' for Active; 'I' for Inactive)
REMARK    1  A    between atoms: C_3  and  C_4 
REMARK       I    between atoms: C_4  and  N_5 
REMARK    2  A    between atoms: N_5  and  C_6 
REMARK    3  A    between atoms: C_6  and  C_7 
REMARK    4  A    between atoms: C_7  and  O_8 
REMARK    5  A    between atoms: C_7  and  C_9 
REMARK    6  A    between atoms: C_18  and  N_19 
REMARK       I    between atoms: N_19  and  C_20 
REMARK    7  A    between atoms: C_20  and  C_21 
ROOT
HETATM    1  C   UNL     1       3.671  29.248  53.708  1.00  0.00     0.050 C 
HETATM    2  C   UNL     1       4.719  28.439  54.403  1.00  0.00    -0.037 A 
HETATM    3  C   UNL     1       5.455  28.855  55.509  1.00  0.00     0.080 A 
HETATM    4  S   UNL     1       6.567  27.647  56.003  1.00  0.00    -0.066 SA
HETATM    5  C   UNL     1       6.050  26.557  54.820  1.00  0.00     0.078 A 
HETATM    6  C   UNL     1       5.071  27.101  54.020  1.00  0.00     0.045 A 
ENDROOT
BRANCH   3   7
HETATM    7  C   UNL     1       5.342  30.119  56.232  1.00  0.00     0.259 C 
HETATM    8  N   UNL     1       5.230  30.035  57.605  1.00  0.00    -0.354 N 
HETATM    9  H   UNL     1       5.172  29.101  57.996  1.00  0.00     0.162 HD
HETATM   10  O   UNL     1       5.323  31.217  55.678  1.00  0.00    -0.267 OA
BRANCH   8  11
HETATM   11  C   UNL     1       4.787  31.155  58.430  1.00  0.00     0.159 C 
BRANCH  11  12
HETATM   12  C   UNL     1       5.848  32.260  58.654  1.00  0.00     0.169 C 
BRANCH  12  13
HETATM   13  O   UNL     1       5.295  33.422  59.273  1.00  0.00    -0.389 OA
HETATM   14  H   UNL     1       6.024  33.868  59.756  1.00  0.00     0.210 HD
ENDBRANCH  12  13
BRANCH  12  15
HETATM   15  C   UNL     1       6.953  31.746  59.560  1.00  0.00    -0.028 A 
HETATM   16  C   UNL     1       8.026  31.014  59.027  1.00  0.00     0.013 A 
HETATM   17  C   UNL     1       9.025  30.513  59.865  1.00  0.00     0.043 A 
HETATM   18  C   UNL     1       8.952  30.739  61.235  1.00  0.00     0.116 A 
HETATM   19  F   UNL     1       9.911  30.255  62.037  1.00  0.00    -0.206 F 
HETATM   20  C   UNL     1       7.900  31.459  61.785  1.00  0.00     0.043 A 
HETATM   21  C   UNL     1       6.901  31.960  60.950  1.00  0.00     0.013 A 
ENDBRANCH  12  15
ENDBRANCH  11  12
ENDBRANCH   8  11
ENDBRANCH   3   7
BRANCH   5  22
HETATM   22  N   UNL     1       6.538  25.268  54.720  1.00  0.00    -0.317 N 
HETATM   23  C   UNL     1       7.503  24.806  53.847  1.00  0.00     0.258 C 
HETATM   24  O   UNL     1       8.030  25.448  52.943  1.00  0.00    -0.267 OA
HETATM   25  H   UNL     1       6.120  24.600  55.356  1.00  0.00     0.169 HD
BRANCH  23  26
HETATM   26  C   UNL     1       7.978  23.398  54.062  1.00  0.00     0.054 A 
HETATM   27  C   UNL     1       8.658  22.917  55.192  1.00  0.00     0.049 A 
HETATM   28 CL   UNL     1       9.003  23.873  56.594  1.00  0.00    -0.083 Cl
HETATM   29  C   UNL     1       9.083  21.581  55.245  1.00  0.00     0.025 A 
HETATM   30  C   UNL     1       8.824  20.710  54.187  1.00  0.00     0.002 A 
HETATM   31  C   UNL     1       8.133  21.167  53.071  1.00  0.00     0.001 A 
HETATM   32  C   UNL     1       7.714  22.497  53.011  1.00  0.00     0.019 A 
ENDBRANCH  23  26
ENDBRANCH   5  22
TORSDOF 7
ENDMDL
