MODEL 1
REMARK VINA RESULT:      -9.5      0.000      0.000
REMARK  6 active torsions:
REMARK  status: ('A' for Active; 'I' for Inactive)
REMARK    1  A    between atoms: O_2  and  C_3 
REMARK    2  A    between atoms: C_6  and  C_7 
REMARK    3  A    between atoms: C_7  and  N_8 
REMARK       I    between atoms: N_8  and  C_9 
REMARK    4  A    between atoms: C_9  and  C_10 
REMARK    5  A    between atoms: C_13  and  C_14 
REMARK    6  A    between atoms: C_19  and  C_20 
ROOT
HETATM    1  C   UNL     1       6.588  29.372  56.888  1.00  0.00     0.096 A 
HETATM    2  C   UNL     1       6.803  28.860  55.623  1.00  0.00     0.138 A 
HETATM    3  N   UNL     1       5.642  29.047  54.925  1.00  0.00    -0.240 N 
HETATM    4  C   UNL     1       5.413  28.571  53.574  1.00  0.00     0.221 C 
HETATM    5  C   UNL     1       6.751  28.242  52.881  1.00  0.00     0.066 C 
HETATM    6  C   UNL     1       7.779  27.538  53.791  1.00  0.00     0.118 C 
HETATM    7  N   UNL     1       7.877  28.267  55.049  1.00  0.00    -0.365 N 
HETATM    8  N   UNL     1       4.720  29.755  55.596  1.00  0.00    -0.181 NA
HETATM    9  C   UNL     1       5.285  29.923  56.797  1.00  0.00     0.160 A 
HETATM   10  H   UNL     1       8.680  28.028  55.640  1.00  0.00     0.161 HD
ENDROOT
BRANCH   1  11
HETATM   11  C   UNL     1       7.534  29.314  57.989  1.00  0.00     0.257 C 
HETATM   12  N   UNL     1       7.509  30.383  58.855  1.00  0.00    -0.352 N 
HETATM   13  H   UNL     1       6.832  31.122  58.746  1.00  0.00     0.163 HD
HETATM   14  O   UNL     1       8.299  28.364  58.142  1.00  0.00    -0.267 OA
BRANCH  12  15
HETATM   15  C   UNL     1       8.357  30.424  60.026  1.00  0.00     0.161 C 
BRANCH  15  16
HETATM   16  C   UNL     1       7.845  31.389  61.065  1.00  0.00    -0.040 A 
HETATM   17  C   UNL     1       8.408  31.404  62.347  1.00  0.00     0.011 A 
HETATM   18  C   UNL     1       7.989  32.343  63.294  1.00  0.00     0.037 A 
HETATM   19  C   UNL     1       7.012  33.289  62.977  1.00  0.00     0.068 A 
HETATM   20  C   UNL     1       6.447  33.282  61.703  1.00  0.00     0.037 A 
HETATM   21  C   UNL     1       6.869  32.346  60.751  1.00  0.00     0.011 A 
BRANCH  19  22
HETATM   22  O   UNL     1       6.705  34.156  63.988  1.00  0.00    -0.356 OA
HETATM   23  C   UNL     1       7.149  33.802  65.292  1.00  0.00     0.210 C 
ENDBRANCH  19  22
ENDBRANCH  15  16
ENDBRANCH  12  15
ENDBRANCH   1  11
BRANCH   4  24
HETATM   24  C   UNL     1       4.436  27.416  53.589  1.00  0.00     0.409 C 
HETATM   25  F   UNL     1       4.628  26.519  52.604  1.00  0.00    -0.169 F 
HETATM   26  F   UNL     1       4.470  26.740  54.761  1.00  0.00    -0.169 F 
HETATM   27  F   UNL     1       3.164  27.882  53.463  1.00  0.00    -0.169 F 
ENDBRANCH   4  24
BRANCH   6  28
HETATM   28  C   UNL     1       7.576  26.043  53.981  1.00  0.00    -0.035 A 
HETATM   29  C   UNL     1       7.628  25.190  52.864  1.00  0.00     0.009 A 
HETATM   30  C   UNL     1       7.471  23.808  53.002  1.00  0.00     0.001 A 
HETATM   31  C   UNL     1       7.273  23.251  54.262  1.00  0.00     0.000 A 
HETATM   32  C   UNL     1       7.236  24.074  55.384  1.00  0.00     0.001 A 
HETATM   33  C   UNL     1       7.392  25.454  55.245  1.00  0.00     0.009 A 
ENDBRANCH   6  28
TORSDOF 6
ENDMDL
MODEL 2
REMARK VINA RESULT:      -9.3      4.828      8.780
REMARK  6 active torsions:
REMARK  status: ('A' for Active; 'I' for Inactive)
REMARK    1  A    between atoms: O_2  and  C_3 
REMARK    2  A    between atoms: C_6  and  C_7 
REMARK    3  A    between atoms: C_7  and  N_8 
REMARK       I    between atoms: N_8  and  C_9 
REMARK    4  A    between atoms: C_9  and  C_10 
REMARK    5  A    between atoms: C_13  and  C_14 
REMARK    6  A    between atoms: C_19  and  C_20 
ROOT
HETATM    1  C   UNL     1       5.064  29.359  54.848  1.00  0.00     0.096 A 
HETATM    2  C   UNL     1       5.163  28.031  55.218  1.00  0.00     0.138 A 
HETATM    3  N   UNL     1       5.962  27.995  56.327  1.00  0.00    -0.240 N 
HETATM    4  C   UNL     1       6.393  26.777  56.986  1.00  0.00     0.221 C 
HETATM    5  C   UNL     1       5.499  25.590  56.571  1.00  0.00     0.066 C 
HETATM    6  C   UNL     1       5.122  25.576  55.075  1.00  0.00     0.118 C 
HETATM    7  N   UNL     1       4.642  26.897  54.693  1.00  0.00    -0.365 N 
HETATM    8  N   UNL     1       6.296  29.211  56.789  1.00  0.00    -0.181 NA
HETATM    9  C   UNL     1       5.775  30.034  55.872  1.00  0.00     0.160 A 
HETATM   10  H   UNL     1       4.158  26.950  53.791  1.00  0.00     0.161 HD
ENDROOT
BRANCH   1  11
HETATM   11  C   UNL     1       4.371  29.853  53.670  1.00  0.00     0.257 C 
HETATM   12  N   UNL     1       5.068  29.763  52.487  1.00  0.00    -0.352 N 
HETATM   13  H   UNL     1       5.977  29.328  52.452  1.00  0.00     0.163 HD
HETATM   14  O   UNL     1       3.232  30.312  53.727  1.00  0.00    -0.267 OA
BRANCH  12  15
HETATM   15  C   UNL     1       4.474  30.165  51.231  1.00  0.00     0.161 C 
BRANCH  15  16
HETATM   16  C   UNL     1       4.352  29.013  50.266  1.00  0.00    -0.040 A 
HETATM   17  C   UNL     1       3.994  29.248  48.933  1.00  0.00     0.011 A 
HETATM   18  C   UNL     1       3.947  28.195  48.015  1.00  0.00     0.037 A 
HETATM   19  C   UNL     1       4.267  26.894  48.406  1.00  0.00     0.068 A 
HETATM   20  C   UNL     1       4.625  26.650  49.730  1.00  0.00     0.037 A 
HETATM   21  C   UNL     1       4.678  27.703  50.650  1.00  0.00     0.011 A 
BRANCH  19  22
HETATM   22  O   UNL     1       4.195  25.962  47.407  1.00  0.00    -0.356 OA
HETATM   23  C   UNL     1       3.083  25.077  47.438  1.00  0.00     0.210 C 
ENDBRANCH  19  22
ENDBRANCH  15  16
ENDBRANCH  12  15
ENDBRANCH   1  11
BRANCH   4  24
HETATM   24  C   UNL     1       7.867  26.544  56.736  1.00  0.00     0.409 C 
HETATM   25  F   UNL     1       8.680  27.210  57.576  1.00  0.00    -0.169 F 
HETATM   26  F   UNL     1       8.192  25.233  56.815  1.00  0.00    -0.169 F 
HETATM   27  F   UNL     1       8.191  26.933  55.473  1.00  0.00    -0.169 F 
ENDBRANCH   4  24
BRANCH   6  28
HETATM   28  C   UNL     1       6.183  25.029  54.133  1.00  0.00    -0.035 A 
HETATM   29  C   UNL     1       6.771  23.779  54.402  1.00  0.00     0.009 A 
HETATM   30  C   UNL     1       7.731  23.235  53.546  1.00  0.00     0.001 A 
HETATM   31  C   UNL     1       8.114  23.922  52.398  1.00  0.00     0.000 A 
HETATM   32  C   UNL     1       7.533  25.152  52.103  1.00  0.00     0.001 A 
HETATM   33  C   UNL     1       6.574  25.697  52.959  1.00  0.00     0.009 A 
ENDBRANCH   6  28
TORSDOF 6
ENDMDL
MODEL 3
REMARK VINA RESULT:      -9.1      1.652      2.155
REMARK  6 active torsions:
REMARK  status: ('A' for Active; 'I' for Inactive)
REMARK    1  A    between atoms: O_2  and  C_3 
REMARK    2  A    between atoms: C_6  and  C_7 
REMARK    3  A    between atoms: C_7  and  N_8 
REMARK       I    between atoms: N_8  and  C_9 
REMARK    4  A    between atoms: C_9  and  C_10 
REMARK    5  A    between atoms: C_13  and  C_14 
REMARK    6  A    between atoms: C_19  and  C_20 
ROOT
HETATM    1  C   UNL     1       6.640  28.013  56.074  1.00  0.00     0.096 A 
HETATM    2  C   UNL     1       6.886  27.333  54.897  1.00  0.00     0.138 A 
HETATM    3  N   UNL     1       5.694  27.267  54.229  1.00  0.00    -0.240 N 
HETATM    4  C   UNL     1       5.493  26.557  52.982  1.00  0.00     0.221 C 
HETATM    5  C   UNL     1       6.845  26.279  52.292  1.00  0.00     0.066 C 
HETATM    6  C   UNL     1       7.972  25.857  53.256  1.00  0.00     0.118 C 
HETATM    7  N   UNL     1       8.010  26.785  54.378  1.00  0.00    -0.365 N 
HETATM    8  N   UNL     1       4.708  27.961  54.820  1.00  0.00    -0.181 NA
HETATM    9  C   UNL     1       5.277  28.386  55.954  1.00  0.00     0.160 A 
HETATM   10  H   UNL     1       8.850  26.740  54.964  1.00  0.00     0.161 HD
ENDROOT
BRANCH   1  11
HETATM   11  C   UNL     1       7.612  28.244  57.130  1.00  0.00     0.257 C 
HETATM   12  N   UNL     1       8.195  29.490  57.142  1.00  0.00    -0.352 N 
HETATM   13  H   UNL     1       7.911  30.202  56.486  1.00  0.00     0.163 HD
HETATM   14  O   UNL     1       7.886  27.384  57.963  1.00  0.00    -0.267 OA
BRANCH  12  15
HETATM   15  C   UNL     1       9.135  29.872  58.172  1.00  0.00     0.161 C 
BRANCH  15  16
HETATM   16  C   UNL     1       8.475  30.646  59.285  1.00  0.00    -0.040 A 
HETATM   17  C   UNL     1       7.304  31.373  59.038  1.00  0.00     0.011 A 
HETATM   18  C   UNL     1       6.648  32.036  60.079  1.00  0.00     0.037 A 
HETATM   19  C   UNL     1       7.139  31.976  61.384  1.00  0.00     0.068 A 
HETATM   20  C   UNL     1       8.303  31.253  61.640  1.00  0.00     0.037 A 
HETATM   21  C   UNL     1       8.959  30.585  60.601  1.00  0.00     0.011 A 
BRANCH  19  22
HETATM   22  O   UNL     1       6.394  32.655  62.308  1.00  0.00    -0.356 OA
HETATM   23  C   UNL     1       5.363  31.925  62.960  1.00  0.00     0.210 C 
ENDBRANCH  19  22
ENDBRANCH  15  16
ENDBRANCH  12  15
ENDBRANCH   1  11
BRANCH   4  24
HETATM   24  C   UNL     1       4.665  25.312  53.219  1.00  0.00     0.409 C 
HETATM   25  F   UNL     1       4.834  24.353  52.291  1.00  0.00    -0.169 F 
HETATM   26  F   UNL     1       4.924  24.756  54.426  1.00  0.00    -0.169 F 
HETATM   27  F   UNL     1       3.343  25.629  53.231  1.00  0.00    -0.169 F 
ENDBRANCH   4  24
BRANCH   6  28
HETATM   28  C   UNL     1       7.959  24.398  53.686  1.00  0.00    -0.035 A 
HETATM   29  C   UNL     1       7.899  23.388  52.709  1.00  0.00     0.009 A 
HETATM   30  C   UNL     1       7.910  22.037  53.066  1.00  0.00     0.001 A 
HETATM   31  C   UNL     1       7.995  21.669  54.405  1.00  0.00     0.000 A 
HETATM   32  C   UNL     1       8.073  22.652  55.388  1.00  0.00     0.001 A 
HETATM   33  C   UNL     1       8.061  24.001  55.032  1.00  0.00     0.009 A 
ENDBRANCH   6  28
TORSDOF 6
ENDMDL
MODEL 4
REMARK VINA RESULT:      -9.1      6.311     10.558
REMARK  6 active torsions:
REMARK  status: ('A' for Active; 'I' for Inactive)
REMARK    1  A    between atoms: O_2  and  C_3 
REMARK    2  A    between atoms: C_6  and  C_7 
REMARK    3  A    between atoms: C_7  and  N_8 
REMARK       I    between atoms: N_8  and  C_9 
REMARK    4  A    between atoms: C_9  and  C_10 
REMARK    5  A    between atoms: C_13  and  C_14 
REMARK    6  A    between atoms: C_19  and  C_20 
ROOT
HETATM    1  C   UNL     1       5.018  27.613  50.882  1.00  0.00     0.096 A 
HETATM    2  C   UNL     1       5.098  27.108  52.166  1.00  0.00     0.138 A 
HETATM    3  N   UNL     1       5.766  28.041  52.910  1.00  0.00    -0.240 N 
HETATM    4  C   UNL     1       6.141  27.864  54.300  1.00  0.00     0.221 C 
HETATM    5  C   UNL     1       5.320  26.726  54.942  1.00  0.00     0.066 C 
HETATM    6  C   UNL     1       5.116  25.501  54.028  1.00  0.00     0.118 C 
HETATM    7  N   UNL     1       4.660  25.953  52.720  1.00  0.00    -0.365 N 
HETATM    8  N   UNL     1       6.024  29.177  52.243  1.00  0.00    -0.181 NA
HETATM    9  C   UNL     1       5.597  28.902  51.005  1.00  0.00     0.160 A 
HETATM   10  H   UNL     1       4.280  25.226  52.105  1.00  0.00     0.161 HD
ENDROOT
BRANCH   1  11
HETATM   11  C   UNL     1       4.455  26.915  49.739  1.00  0.00     0.257 C 
HETATM   12  N   UNL     1       4.151  27.701  48.650  1.00  0.00    -0.352 N 
HETATM   13  H   UNL     1       4.364  28.686  48.647  1.00  0.00     0.163 HD
HETATM   14  O   UNL     1       4.274  25.699  49.741  1.00  0.00    -0.267 OA
BRANCH  12  15
HETATM   15  C   UNL     1       3.640  27.125  47.426  1.00  0.00     0.161 C 
BRANCH  15  16
HETATM   16  C   UNL     1       2.342  27.762  46.997  1.00  0.00    -0.040 A 
HETATM   17  C   UNL     1       1.205  26.970  46.796  1.00  0.00     0.011 A 
HETATM   18  C   UNL     1      -0.019  27.560  46.467  1.00  0.00     0.037 A 
HETATM   19  C   UNL     1      -0.134  28.945  46.345  1.00  0.00     0.068 A 
HETATM   20  C   UNL     1       0.993  29.741  46.546  1.00  0.00     0.037 A 
HETATM   21  C   UNL     1       2.218  29.154  46.880  1.00  0.00     0.011 A 
BRANCH  19  22
HETATM   22  O   UNL     1      -1.389  29.391  46.035  1.00  0.00    -0.356 OA
HETATM   23  C   UNL     1      -1.749  29.381  44.659  1.00  0.00     0.210 C 
ENDBRANCH  19  22
ENDBRANCH  15  16
ENDBRANCH  12  15
ENDBRANCH   1  11
BRANCH   4  24
HETATM   24  C   UNL     1       7.637  27.674  54.415  1.00  0.00     0.409 C 
HETATM   25  F   UNL     1       8.192  27.025  53.375  1.00  0.00    -0.169 F 
HETATM   26  F   UNL     1       8.288  28.854  54.547  1.00  0.00    -0.169 F 
HETATM   27  F   UNL     1       7.930  26.960  55.535  1.00  0.00    -0.169 F 
ENDBRANCH   4  24
BRANCH   6  28
HETATM   28  C   UNL     1       6.287  24.533  53.950  1.00  0.00    -0.035 A 
HETATM   29  C   UNL     1       6.824  23.999  55.136  1.00  0.00     0.009 A 
HETATM   30  C   UNL     1       7.884  23.089  55.103  1.00  0.00     0.001 A 
HETATM   31  C   UNL     1       8.420  22.685  53.883  1.00  0.00     0.000 A 
HETATM   32  C   UNL     1       7.892  23.187  52.697  1.00  0.00     0.001 A 
HETATM   33  C   UNL     1       6.834  24.097  52.730  1.00  0.00     0.009 A 
ENDBRANCH   6  28
TORSDOF 6
ENDMDL
MODEL 5
REMARK VINA RESULT:      -8.6      2.360      3.890
REMARK  6 active torsions:
REMARK  status: ('A' for Active; 'I' for Inactive)
REMARK    1  A    between atoms: O_2  and  C_3 
REMARK    2  A    between atoms: C_6  and  C_7 
REMARK    3  A    between atoms: C_7  and  N_8 
REMARK       I    between atoms: N_8  and  C_9 
REMARK    4  A    between atoms: C_9  and  C_10 
REMARK    5  A    between atoms: C_13  and  C_14 
REMARK    6  A    between atoms: C_19  and  C_20 
ROOT
HETATM    1  C   UNL     1       6.424  27.471  56.175  1.00  0.00     0.096 A 
HETATM    2  C   UNL     1       5.872  26.768  55.121  1.00  0.00     0.138 A 
HETATM    3  N   UNL     1       6.737  25.747  54.839  1.00  0.00    -0.240 N 
HETATM    4  C   UNL     1       6.576  24.818  53.737  1.00  0.00     0.221 C 
HETATM    5  C   UNL     1       5.123  24.839  53.219  1.00  0.00     0.066 C 
HETATM    6  C   UNL     1       4.496  26.246  53.150  1.00  0.00     0.118 C 
HETATM    7  N   UNL     1       4.730  26.934  54.412  1.00  0.00    -0.365 N 
HETATM    8  N   UNL     1       7.756  25.651  55.708  1.00  0.00    -0.181 NA
HETATM    9  C   UNL     1       7.580  26.717  56.497  1.00  0.00     0.160 A 
HETATM   10  H   UNL     1       4.175  27.782  54.567  1.00  0.00     0.161 HD
ENDROOT
BRANCH   1  11
HETATM   11  C   UNL     1       5.877  28.688  56.750  1.00  0.00     0.257 C 
HETATM   12  N   UNL     1       6.782  29.699  56.980  1.00  0.00    -0.352 N 
HETATM   13  H   UNL     1       7.747  29.602  56.707  1.00  0.00     0.163 HD
HETATM   14  O   UNL     1       4.680  28.808  57.005  1.00  0.00    -0.267 OA
BRANCH  12  15
HETATM   15  C   UNL     1       6.361  30.983  57.494  1.00  0.00     0.161 C 
BRANCH  15  16
HETATM   16  C   UNL     1       6.912  31.252  58.872  1.00  0.00    -0.040 A 
HETATM   17  C   UNL     1       8.003  30.514  59.348  1.00  0.00     0.011 A 
HETATM   18  C   UNL     1       8.565  30.804  60.595  1.00  0.00     0.037 A 
HETATM   19  C   UNL     1       8.058  31.840  61.382  1.00  0.00     0.068 A 
HETATM   20  C   UNL     1       6.973  32.580  60.915  1.00  0.00     0.037 A 
HETATM   21  C   UNL     1       6.412  32.295  59.665  1.00  0.00     0.011 A 
BRANCH  19  22
HETATM   22  O   UNL     1       8.708  32.027  62.571  1.00  0.00    -0.356 OA
HETATM   23  C   UNL     1       7.962  32.634  63.618  1.00  0.00     0.210 C 
ENDBRANCH  19  22
ENDBRANCH  15  16
ENDBRANCH  12  15
ENDBRANCH   1  11
BRANCH   4  24
HETATM   24  C   UNL     1       7.607  25.098  52.666  1.00  0.00     0.409 C 
HETATM   25  F   UNL     1       8.065  26.363  52.659  1.00  0.00    -0.169 F 
HETATM   26  F   UNL     1       8.681  24.281  52.773  1.00  0.00    -0.169 F 
HETATM   27  F   UNL     1       7.077  24.857  51.437  1.00  0.00    -0.169 F 
ENDBRANCH   4  24
BRANCH   6  28
HETATM   28  C   UNL     1       4.879  27.079  51.936  1.00  0.00    -0.035 A 
HETATM   29  C   UNL     1       4.709  26.542  50.646  1.00  0.00     0.009 A 
HETATM   30  C   UNL     1       5.027  27.286  49.507  1.00  0.00     0.001 A 
HETATM   31  C   UNL     1       5.507  28.586  49.634  1.00  0.00     0.000 A 
HETATM   32  C   UNL     1       5.666  29.144  50.899  1.00  0.00     0.001 A 
HETATM   33  C   UNL     1       5.350  28.400  52.038  1.00  0.00     0.009 A 
ENDBRANCH   6  28
TORSDOF 6
ENDMDL
MODEL 6
REMARK VINA RESULT:      -8.5      2.249      3.482
REMARK  6 active torsions:
REMARK  status: ('A' for Active; 'I' for Inactive)
REMARK    1  A    between atoms: O_2  and  C_3 
REMARK    2  A    between atoms: C_6  and  C_7 
REMARK    3  A    between atoms: C_7  and  N_8 
REMARK       I    between atoms: N_8  and  C_9 
REMARK    4  A    between atoms: C_9  and  C_10 
REMARK    5  A    between atoms: C_13  and  C_14 
REMARK    6  A    between atoms: C_19  and  C_20 
ROOT
HETATM    1  C   UNL     1       7.431  28.060  57.104  1.00  0.00     0.096 A 
HETATM    2  C   UNL     1       6.661  27.079  56.509  1.00  0.00     0.138 A 
HETATM    3  N   UNL     1       7.400  25.928  56.547  1.00  0.00    -0.240 N 
HETATM    4  C   UNL     1       6.991  24.673  55.947  1.00  0.00     0.221 C 
HETATM    5  C   UNL     1       5.474  24.673  55.669  1.00  0.00     0.066 C 
HETATM    6  C   UNL     1       4.932  26.010  55.124  1.00  0.00     0.118 C 
HETATM    7  N   UNL     1       5.425  27.099  55.957  1.00  0.00    -0.365 N 
HETATM    8  N   UNL     1       8.547  26.049  57.234  1.00  0.00    -0.181 NA
HETATM    9  C   UNL     1       8.577  27.351  57.542  1.00  0.00     0.160 A 
HETATM   10  H   UNL     1       4.957  28.002  55.830  1.00  0.00     0.161 HD
ENDROOT
BRANCH   1  11
HETATM   11  C   UNL     1       7.068  29.463  57.209  1.00  0.00     0.257 C 
HETATM   12  N   UNL     1       7.231  30.030  58.452  1.00  0.00    -0.352 N 
HETATM   13  H   UNL     1       7.630  29.504  59.213  1.00  0.00     0.163 HD
HETATM   14  O   UNL     1       6.653  30.103  56.245  1.00  0.00    -0.267 OA
BRANCH  12  15
HETATM   15  C   UNL     1       6.963  31.433  58.680  1.00  0.00     0.161 C 
BRANCH  15  16
HETATM   16  C   UNL     1       7.325  31.860  60.080  1.00  0.00    -0.040 A 
HETATM   17  C   UNL     1       6.364  32.463  60.901  1.00  0.00     0.011 A 
HETATM   18  C   UNL     1       6.671  32.797  62.223  1.00  0.00     0.037 A 
HETATM   19  C   UNL     1       7.934  32.528  62.752  1.00  0.00     0.068 A 
HETATM   20  C   UNL     1       8.896  31.927  61.943  1.00  0.00     0.037 A 
HETATM   21  C   UNL     1       8.590  31.586  60.621  1.00  0.00     0.011 A 
BRANCH  19  22
HETATM   22  O   UNL     1       8.097  32.892  64.060  1.00  0.00    -0.356 OA
HETATM   23  C   UNL     1       7.056  33.665  64.643  1.00  0.00     0.210 C 
ENDBRANCH  19  22
ENDBRANCH  15  16
ENDBRANCH  12  15
ENDBRANCH   1  11
BRANCH   4  24
HETATM   24  C   UNL     1       7.834  24.383  54.724  1.00  0.00     0.409 C 
HETATM   25  F   UNL     1       9.020  23.809  54.996  1.00  0.00    -0.169 F 
HETATM   26  F   UNL     1       7.190  23.579  53.846  1.00  0.00    -0.169 F 
HETATM   27  F   UNL     1       8.092  25.537  54.053  1.00  0.00    -0.169 F 
ENDBRANCH   4  24
BRANCH   6  28
HETATM   28  C   UNL     1       5.145  26.251  53.637  1.00  0.00    -0.035 A 
HETATM   29  C   UNL     1       4.809  25.242  52.716  1.00  0.00     0.009 A 
HETATM   30  C   UNL     1       4.968  25.437  51.342  1.00  0.00     0.001 A 
HETATM   31  C   UNL     1       5.455  26.648  50.860  1.00  0.00     0.000 A 
HETATM   32  C   UNL     1       5.777  27.667  51.752  1.00  0.00     0.001 A 
HETATM   33  C   UNL     1       5.619  27.473  53.125  1.00  0.00     0.009 A 
ENDBRANCH   6  28
TORSDOF 6
ENDMDL
MODEL 7
REMARK VINA RESULT:      -8.5      4.504      8.125
REMARK  6 active torsions:
REMARK  status: ('A' for Active; 'I' for Inactive)
REMARK    1  A    between atoms: O_2  and  C_3 
REMARK    2  A    between atoms: C_6  and  C_7 
REMARK    3  A    between atoms: C_7  and  N_8 
REMARK       I    between atoms: N_8  and  C_9 
REMARK    4  A    between atoms: C_9  and  C_10 
REMARK    5  A    between atoms: C_13  and  C_14 
REMARK    6  A    between atoms: C_19  and  C_20 
ROOT
HETATM    1  C   UNL     1       4.701  27.855  53.311  1.00  0.00     0.096 A 
HETATM    2  C   UNL     1       4.885  28.038  54.667  1.00  0.00     0.138 A 
HETATM    3  N   UNL     1       4.185  29.163  55.007  1.00  0.00    -0.240 N 
HETATM    4  C   UNL     1       4.183  29.759  56.329  1.00  0.00     0.221 C 
HETATM    5  C   UNL     1       4.683  28.747  57.380  1.00  0.00     0.066 C 
HETATM    6  C   UNL     1       5.876  27.888  56.914  1.00  0.00     0.118 C 
HETATM    7  N   UNL     1       5.583  27.342  55.596  1.00  0.00    -0.365 N 
HETATM    8  N   UNL     1       3.452  29.664  53.999  1.00  0.00    -0.181 NA
HETATM    9  C   UNL     1       3.793  28.886  52.964  1.00  0.00     0.160 A 
HETATM   10  H   UNL     1       6.198  26.584  55.282  1.00  0.00     0.161 HD
ENDROOT
BRANCH   1  11
HETATM   11  C   UNL     1       5.333  26.819  52.510  1.00  0.00     0.257 C 
HETATM   12  N   UNL     1       6.608  26.468  52.888  1.00  0.00    -0.352 N 
HETATM   13  H   UNL     1       7.038  26.874  53.704  1.00  0.00     0.163 HD
HETATM   14  O   UNL     1       4.758  26.286  51.563  1.00  0.00    -0.267 OA
BRANCH  12  15
HETATM   15  C   UNL     1       7.329  25.411  52.213  1.00  0.00     0.161 C 
BRANCH  15  16
HETATM   16  C   UNL     1       7.802  24.345  53.169  1.00  0.00    -0.040 A 
HETATM   17  C   UNL     1       7.949  24.638  54.531  1.00  0.00     0.011 A 
HETATM   18  C   UNL     1       8.319  23.638  55.434  1.00  0.00     0.037 A 
HETATM   19  C   UNL     1       8.536  22.329  55.000  1.00  0.00     0.068 A 
HETATM   20  C   UNL     1       8.390  22.028  53.648  1.00  0.00     0.037 A 
HETATM   21  C   UNL     1       8.015  23.026  52.741  1.00  0.00     0.011 A 
BRANCH  19  22
HETATM   22  O   UNL     1       8.878  21.447  55.988  1.00  0.00    -0.356 OA
HETATM   23  C   UNL     1       8.030  20.319  56.159  1.00  0.00     0.210 C 
ENDBRANCH  19  22
ENDBRANCH  15  16
ENDBRANCH  12  15
ENDBRANCH   1  11
BRANCH   4  24
HETATM   24  C   UNL     1       4.962  31.056  56.315  1.00  0.00     0.409 C 
HETATM   25  F   UNL     1       5.522  31.374  57.496  1.00  0.00    -0.169 F 
HETATM   26  F   UNL     1       5.950  31.043  55.391  1.00  0.00    -0.169 F 
HETATM   27  F   UNL     1       4.143  32.086  55.970  1.00  0.00    -0.169 F 
ENDBRANCH   4  24
BRANCH   6  28
HETATM   28  C   UNL     1       7.240  28.557  56.994  1.00  0.00    -0.035 A 
HETATM   29  C   UNL     1       8.051  28.616  55.846  1.00  0.00     0.009 A 
HETATM   30  C   UNL     1       9.299  29.244  55.876  1.00  0.00     0.001 A 
HETATM   31  C   UNL     1       9.756  29.835  57.050  1.00  0.00     0.000 A 
HETATM   32  C   UNL     1       8.963  29.804  58.194  1.00  0.00     0.001 A 
HETATM   33  C   UNL     1       7.716  29.176  58.164  1.00  0.00     0.009 A 
ENDBRANCH   6  28
TORSDOF 6
ENDMDL
MODEL 8
REMARK VINA RESULT:      -8.5      7.268      9.496
REMARK  6 active torsions:
REMARK  status: ('A' for Active; 'I' for Inactive)
REMARK    1  A    between atoms: O_2  and  C_3 
REMARK    2  A    between atoms: C_6  and  C_7 
REMARK    3  A    between atoms: C_7  and  N_8 
REMARK       I    between atoms: N_8  and  C_9 
REMARK    4  A    between atoms: C_9  and  C_10 
REMARK    5  A    between atoms: C_13  and  C_14 
REMARK    6  A    between atoms: C_19  and  C_20 
ROOT
HETATM    1  C   UNL     1       5.016  26.811  50.641  1.00  0.00     0.096 A 
HETATM    2  C   UNL     1       4.167  27.897  50.547  1.00  0.00     0.138 A 
HETATM    3  N   UNL     1       3.373  27.678  49.455  1.00  0.00    -0.240 N 
HETATM    4  C   UNL     1       2.397  28.623  48.949  1.00  0.00     0.221 C 
HETATM    5  C   UNL     1       2.053  29.675  50.023  1.00  0.00     0.066 C 
HETATM    6  C   UNL     1       3.268  30.169  50.836  1.00  0.00     0.118 C 
HETATM    7  N   UNL     1       4.033  29.018  51.296  1.00  0.00    -0.365 N 
HETATM    8  N   UNL     1       3.551  26.470  48.896  1.00  0.00    -0.181 NA
HETATM    9  C   UNL     1       4.570  25.961  49.598  1.00  0.00     0.160 A 
HETATM   10  H   UNL     1       4.728  29.208  52.024  1.00  0.00     0.161 HD
ENDROOT
BRANCH   1  11
HETATM   11  C   UNL     1       6.085  26.663  51.613  1.00  0.00     0.257 C 
HETATM   12  N   UNL     1       6.881  25.551  51.460  1.00  0.00    -0.352 N 
HETATM   13  H   UNL     1       6.749  24.922  50.684  1.00  0.00     0.163 HD
HETATM   14  O   UNL     1       6.272  27.485  52.508  1.00  0.00    -0.267 OA
BRANCH  12  15
HETATM   15  C   UNL     1       8.016  25.313  52.323  1.00  0.00     0.161 C 
BRANCH  15  16
HETATM   16  C   UNL     1       7.803  24.128  53.231  1.00  0.00    -0.040 A 
HETATM   17  C   UNL     1       8.027  22.830  52.755  1.00  0.00     0.011 A 
HETATM   18  C   UNL     1       7.899  21.731  53.609  1.00  0.00     0.037 A 
HETATM   19  C   UNL     1       7.559  21.906  54.952  1.00  0.00     0.068 A 
HETATM   20  C   UNL     1       7.336  23.195  55.434  1.00  0.00     0.037 A 
HETATM   21  C   UNL     1       7.468  24.297  54.583  1.00  0.00     0.011 A 
BRANCH  19  22
HETATM   22  O   UNL     1       7.483  20.750  55.679  1.00  0.00    -0.356 OA
HETATM   23  C   UNL     1       8.615  20.419  56.473  1.00  0.00     0.210 C 
ENDBRANCH  19  22
ENDBRANCH  15  16
ENDBRANCH  12  15
ENDBRANCH   1  11
BRANCH   4  24
HETATM   24  C   UNL     1       2.879  29.221  47.645  1.00  0.00     0.409 C 
HETATM   25  F   UNL     1       2.469  30.485  47.434  1.00  0.00    -0.169 F 
HETATM   26  F   UNL     1       4.229  29.215  47.555  1.00  0.00    -0.169 F 
HETATM   27  F   UNL     1       2.433  28.475  46.599  1.00  0.00    -0.169 F 
ENDBRANCH   4  24
BRANCH   6  28
HETATM   28  C   UNL     1       4.127  31.226  50.160  1.00  0.00    -0.035 A 
HETATM   29  C   UNL     1       3.549  32.451  49.780  1.00  0.00     0.009 A 
HETATM   30  C   UNL     1       4.312  33.455  49.179  1.00  0.00     0.001 A 
HETATM   31  C   UNL     1       5.672  33.259  48.957  1.00  0.00     0.000 A 
HETATM   32  C   UNL     1       6.270  32.062  49.340  1.00  0.00     0.001 A 
HETATM   33  C   UNL     1       5.507  31.058  49.940  1.00  0.00     0.009 A 
ENDBRANCH   6  28
TORSDOF 6
ENDMDL
MODEL 9
REMARK VINA RESULT:      -8.3      4.468     10.032
REMARK  6 active torsions:
REMARK  status: ('A' for Active; 'I' for Inactive)
REMARK    1  A    between atoms: O_2  and  C_3 
REMARK    2  A    between atoms: C_6  and  C_7 
REMARK    3  A    between atoms: C_7  and  N_8 
REMARK       I    between atoms: N_8  and  C_9 
REMARK    4  A    between atoms: C_9  and  C_10 
REMARK    5  A    between atoms: C_13  and  C_14 
REMARK    6  A    between atoms: C_19  and  C_20 
ROOT
HETATM    1  C   UNL     1       5.623  32.467  58.885  1.00  0.00     0.096 A 
HETATM    2  C   UNL     1       4.963  32.559  60.095  1.00  0.00     0.138 A 
HETATM    3  N   UNL     1       4.234  33.715  60.054  1.00  0.00    -0.240 N 
HETATM    4  C   UNL     1       3.458  34.234  61.164  1.00  0.00     0.221 C 
HETATM    5  C   UNL     1       3.199  33.128  62.208  1.00  0.00     0.066 C 
HETATM    6  C   UNL     1       4.407  32.205  62.466  1.00  0.00     0.118 C 
HETATM    7  N   UNL     1       4.946  31.759  61.188  1.00  0.00    -0.365 N 
HETATM    8  N   UNL     1       4.265  34.328  58.860  1.00  0.00    -0.181 NA
HETATM    9  C   UNL     1       5.134  33.586  58.164  1.00  0.00     0.160 A 
HETATM   10  H   UNL     1       5.603  30.973  61.232  1.00  0.00     0.161 HD
ENDROOT
BRANCH   1  11
HETATM   11  C   UNL     1       6.577  31.432  58.525  1.00  0.00     0.257 C 
HETATM   12  N   UNL     1       6.033  30.231  58.129  1.00  0.00    -0.352 N 
HETATM   13  H   UNL     1       5.035  30.116  58.048  1.00  0.00     0.163 HD
HETATM   14  O   UNL     1       7.791  31.622  58.562  1.00  0.00    -0.267 OA
BRANCH  12  15
HETATM   15  C   UNL     1       6.868  29.136  57.689  1.00  0.00     0.161 C 
BRANCH  15  16
HETATM   16  C   UNL     1       6.240  28.362  56.557  1.00  0.00    -0.040 A 
HETATM   17  C   UNL     1       5.437  29.019  55.617  1.00  0.00     0.011 A 
HETATM   18  C   UNL     1       4.910  28.323  54.525  1.00  0.00     0.037 A 
HETATM   19  C   UNL     1       5.182  26.966  54.346  1.00  0.00     0.068 A 
HETATM   20  C   UNL     1       5.981  26.304  55.276  1.00  0.00     0.037 A 
HETATM   21  C   UNL     1       6.515  27.000  56.366  1.00  0.00     0.011 A 
BRANCH  19  22
HETATM   22  O   UNL     1       4.617  26.411  53.231  1.00  0.00    -0.356 OA
HETATM   23  C   UNL     1       4.871  25.031  53.005  1.00  0.00     0.210 C 
ENDBRANCH  19  22
ENDBRANCH  15  16
ENDBRANCH  12  15
ENDBRANCH   1  11
BRANCH   4  24
HETATM   24  C   UNL     1       4.128  35.464  61.736  1.00  0.00     0.409 C 
HETATM   25  F   UNL     1       5.473  35.406  61.743  1.00  0.00    -0.169 F 
HETATM   26  F   UNL     1       3.777  36.588  61.068  1.00  0.00    -0.169 F 
HETATM   27  F   UNL     1       3.729  35.655  63.022  1.00  0.00    -0.169 F 
ENDBRANCH   4  24
BRANCH   6  28
HETATM   28  C   UNL     1       5.471  32.758  63.402  1.00  0.00    -0.035 A 
HETATM   29  C   UNL     1       5.084  33.347  64.620  1.00  0.00     0.009 A 
HETATM   30  C   UNL     1       6.033  33.843  65.516  1.00  0.00     0.001 A 
HETATM   31  C   UNL     1       7.390  33.748  65.219  1.00  0.00     0.000 A 
HETATM   32  C   UNL     1       7.797  33.153  64.028  1.00  0.00     0.001 A 
HETATM   33  C   UNL     1       6.848  32.659  63.132  1.00  0.00     0.009 A 
ENDBRANCH   6  28
TORSDOF 6
ENDMDL
MODEL 10
REMARK VINA RESULT:      -8.3      6.607      8.929
REMARK  6 active torsions:
REMARK  status: ('A' for Active; 'I' for Inactive)
REMARK    1  A    between atoms: O_2  and  C_3 
REMARK    2  A    between atoms: C_6  and  C_7 
REMARK    3  A    between atoms: C_7  and  N_8 
REMARK       I    between atoms: N_8  and  C_9 
REMARK    4  A    between atoms: C_9  and  C_10 
REMARK    5  A    between atoms: C_13  and  C_14 
REMARK    6  A    between atoms: C_19  and  C_20 
ROOT
HETATM    1  C   UNL     1       5.310  27.546  51.555  1.00  0.00     0.096 A 
HETATM    2  C   UNL     1       4.982  28.371  50.497  1.00  0.00     0.138 A 
HETATM    3  N   UNL     1       4.551  29.549  51.040  1.00  0.00    -0.240 N 
HETATM    4  C   UNL     1       4.028  30.663  50.272  1.00  0.00     0.221 C 
HETATM    5  C   UNL     1       4.430  30.534  48.788  1.00  0.00     0.066 C 
HETATM    6  C   UNL     1       4.348  29.097  48.233  1.00  0.00     0.118 C 
HETATM    7  N   UNL     1       5.021  28.192  49.155  1.00  0.00    -0.365 N 
HETATM    8  N   UNL     1       4.688  29.607  52.375  1.00  0.00    -0.181 NA
HETATM    9  C   UNL     1       5.119  28.379  52.686  1.00  0.00     0.160 A 
HETATM   10  H   UNL     1       5.224  27.256  48.789  1.00  0.00     0.161 HD
ENDROOT
BRANCH   1  11
HETATM   11  C   UNL     1       5.740  26.162  51.440  1.00  0.00     0.257 C 
HETATM   12  N   UNL     1       7.044  25.911  51.799  1.00  0.00    -0.352 N 
HETATM   13  H   UNL     1       7.630  26.643  52.168  1.00  0.00     0.163 HD
HETATM   14  O   UNL     1       4.982  25.274  51.057  1.00  0.00    -0.267 OA
BRANCH  12  15
HETATM   15  C   UNL     1       7.583  24.570  51.787  1.00  0.00     0.161 C 
BRANCH  15  16
HETATM   16  C   UNL     1       7.722  24.000  53.177  1.00  0.00    -0.040 A 
HETATM   17  C   UNL     1       8.240  22.712  53.360  1.00  0.00     0.011 A 
HETATM   18  C   UNL     1       8.438  22.204  54.647  1.00  0.00     0.037 A 
HETATM   19  C   UNL     1       8.136  22.974  55.772  1.00  0.00     0.068 A 
HETATM   20  C   UNL     1       7.622  24.258  55.599  1.00  0.00     0.037 A 
HETATM   21  C   UNL     1       7.427  24.771  54.312  1.00  0.00     0.011 A 
BRANCH  19  22
HETATM   22  O   UNL     1       8.391  22.364  56.969  1.00  0.00    -0.356 OA
HETATM   23  C   UNL     1       8.399  20.942  56.972  1.00  0.00     0.210 C 
ENDBRANCH  19  22
ENDBRANCH  15  16
ENDBRANCH  12  15
ENDBRANCH   1  11
BRANCH   4  24
HETATM   24  C   UNL     1       2.536  30.789  50.490  1.00  0.00     0.409 C 
HETATM   25  F   UNL     1       1.905  29.614  50.671  1.00  0.00    -0.169 F 
HETATM   26  F   UNL     1       2.245  31.572  51.555  1.00  0.00    -0.169 F 
HETATM   27  F   UNL     1       1.959  31.391  49.415  1.00  0.00    -0.169 F 
ENDBRANCH   4  24
BRANCH   6  28
HETATM   28  C   UNL     1       2.958  28.622  47.838  1.00  0.00    -0.035 A 
HETATM   29  C   UNL     1       2.194  29.388  46.938  1.00  0.00     0.009 A 
HETATM   30  C   UNL     1       0.923  28.971  46.533  1.00  0.00     0.001 A 
HETATM   31  C   UNL     1       0.397  27.774  47.009  1.00  0.00     0.000 A 
HETATM   32  C   UNL     1       1.142  26.991  47.886  1.00  0.00     0.001 A 
HETATM   33  C   UNL     1       2.411  27.408  48.292  1.00  0.00     0.009 A 
ENDBRANCH   6  28
TORSDOF 6
ENDMDL
