MODEL 1
REMARK VINA RESULT:      -9.4      0.000      0.000
REMARK  6 active torsions:
REMARK  status: ('A' for Active; 'I' for Inactive)
REMARK    1  A    between atoms: C_8  and  N_9 
REMARK       I    between atoms: N_9  and  C_10 
REMARK       I    between atoms: C_10  and  N_11 
REMARK    2  A    between atoms: N_11  and  C_12 
REMARK    3  A    between atoms: C_15  and  O_16 
REMARK    4  A    between atoms: O_16  and  C_17 
REMARK    5  A    between atoms: C_17  and  C_18 
REMARK    6  A    between atoms: C_18  and  C_19 
ROOT
HETATM    1  C   UNL     1       7.133  31.644  62.445  1.00  0.00     0.054 A 
HETATM    2  C   UNL     1       5.767  31.722  62.700  1.00  0.00     0.149 A 
HETATM    3  N   UNL     1       5.222  32.454  63.703  1.00  0.00    -0.235 NA
HETATM    4  C   UNL     1       6.071  33.145  64.487  1.00  0.00     0.164 A 
HETATM    5  C   UNL     1       7.442  33.171  64.292  1.00  0.00     0.060 A 
HETATM    6  C   UNL     1       7.978  32.400  63.260  1.00  0.00     0.035 A 
ENDROOT
BRANCH   1   7
HETATM    7  N   UNL     1       7.716  30.806  61.472  1.00  0.00    -0.307 N 
HETATM    8  C   UNL     1       7.774  31.054  60.109  1.00  0.00     0.325 C 
HETATM    9  N   UNL     1       8.081  29.895  59.424  1.00  0.00    -0.305 N 
HETATM   10  O   UNL     1       7.541  32.139  59.596  1.00  0.00    -0.247 OA
HETATM   11  H   UNL     1       7.845  29.033  59.892  1.00  0.00     0.171 HD
HETATM   12  H   UNL     1       8.246  30.014  61.803  1.00  0.00     0.170 HD
BRANCH   9  13
HETATM   13  C   UNL     1       8.276  29.796  58.055  1.00  0.00     0.086 A 
HETATM   14  C   UNL     1       7.240  29.519  57.183  1.00  0.00     0.052 A 
HETATM   15  C   UNL     1       5.791  29.295  57.388  1.00  0.00     0.072 C 
HETATM   16  N   UNL     1       7.797  29.512  55.936  1.00  0.00    -0.280 N 
HETATM   17  H   UNL     1       7.337  29.365  55.043  1.00  0.00     0.189 HD
HETATM   18  N   UNL     1       9.116  29.726  55.931  1.00  0.00    -0.177 NA
HETATM   19  C   UNL     1       9.429  29.903  57.224  1.00  0.00     0.079 A 
HETATM   20  C   UNL     1      10.854  30.121  57.579  1.00  0.00     0.075 C 
ENDBRANCH   9  13
ENDBRANCH   1   7
BRANCH   4  21
HETATM   21  O   UNL     1       5.577  33.860  65.560  1.00  0.00    -0.334 OA
BRANCH  21  22
HETATM   22  C   UNL     1       6.580  34.065  66.565  1.00  0.00     0.182 C 
BRANCH  22  23
HETATM   23  C   UNL     1       5.936  34.732  67.779  1.00  0.00     0.065 C 
BRANCH  23  24
HETATM   24  C   UNL     1       6.685  34.397  69.045  1.00  0.00    -0.056 A 
HETATM   25  C   UNL     1       7.950  34.951  69.285  1.00  0.00     0.007 A 
HETATM   26  C   UNL     1       8.674  34.593  70.422  1.00  0.00     0.001 A 
HETATM   27  C   UNL     1       8.143  33.677  71.328  1.00  0.00     0.000 A 
HETATM   28  C   UNL     1       6.886  33.120  71.098  1.00  0.00     0.001 A 
HETATM   29  C   UNL     1       6.159  33.477  69.961  1.00  0.00     0.007 A 
ENDBRANCH  23  24
ENDBRANCH  22  23
ENDBRANCH  21  22
ENDBRANCH   4  21
TORSDOF 6
ENDMDL
MODEL 2
REMARK VINA RESULT:      -9.3     10.985     13.821
REMARK  6 active torsions:
REMARK  status: ('A' for Active; 'I' for Inactive)
REMARK    1  A    between atoms: C_8  and  N_9 
REMARK       I    between atoms: N_9  and  C_10 
REMARK       I    between atoms: C_10  and  N_11 
REMARK    2  A    between atoms: N_11  and  C_12 
REMARK    3  A    between atoms: C_15  and  O_16 
REMARK    4  A    between atoms: O_16  and  C_17 
REMARK    5  A    between atoms: C_17  and  C_18 
REMARK    6  A    between atoms: C_18  and  C_19 
ROOT
HETATM    1  C   UNL     1       5.470  26.209  54.002  1.00  0.00     0.054 A 
HETATM    2  C   UNL     1       5.268  25.101  54.821  1.00  0.00     0.149 A 
HETATM    3  N   UNL     1       6.058  24.780  55.874  1.00  0.00    -0.235 NA
HETATM    4  C   UNL     1       7.096  25.598  56.133  1.00  0.00     0.164 A 
HETATM    5  C   UNL     1       7.359  26.749  55.409  1.00  0.00     0.060 A 
HETATM    6  C   UNL     1       6.538  27.050  54.322  1.00  0.00     0.035 A 
ENDROOT
BRANCH   1   7
HETATM    7  N   UNL     1       4.718  26.494  52.844  1.00  0.00    -0.307 N 
HETATM    8  C   UNL     1       5.159  26.379  51.535  1.00  0.00     0.325 C 
HETATM    9  N   UNL     1       4.315  27.064  50.683  1.00  0.00    -0.305 N 
HETATM   10  O   UNL     1       6.176  25.788  51.201  1.00  0.00    -0.247 OA
HETATM   11  H   UNL     1       3.788  27.816  51.100  1.00  0.00     0.171 HD
HETATM   12  H   UNL     1       3.735  26.684  52.969  1.00  0.00     0.170 HD
BRANCH   9  13
HETATM   13  C   UNL     1       4.426  27.107  49.302  1.00  0.00     0.086 A 
HETATM   14  C   UNL     1       5.044  28.156  48.647  1.00  0.00     0.052 A 
HETATM   15  C   UNL     1       5.715  29.384  49.131  1.00  0.00     0.072 C 
HETATM   16  N   UNL     1       4.976  27.853  47.316  1.00  0.00    -0.280 N 
HETATM   17  H   UNL     1       5.345  28.381  46.533  1.00  0.00     0.189 HD
HETATM   18  N   UNL     1       4.334  26.712  47.053  1.00  0.00    -0.177 NA
HETATM   19  C   UNL     1       3.987  26.239  48.261  1.00  0.00     0.079 A 
HETATM   20  C   UNL     1       3.202  24.980  48.325  1.00  0.00     0.075 C 
ENDBRANCH   9  13
ENDBRANCH   1   7
BRANCH   4  21
HETATM   21  O   UNL     1       7.969  25.288  57.157  1.00  0.00    -0.334 OA
BRANCH  21  22
HETATM   22  C   UNL     1       8.308  23.894  57.157  1.00  0.00     0.182 C 
BRANCH  22  23
HETATM   23  C   UNL     1       9.303  23.627  56.029  1.00  0.00     0.065 C 
BRANCH  23  24
HETATM   24  C   UNL     1       8.795  22.555  55.098  1.00  0.00    -0.056 A 
HETATM   25  C   UNL     1       8.848  21.207  55.475  1.00  0.00     0.007 A 
HETATM   26  C   UNL     1       8.440  20.207  54.591  1.00  0.00     0.001 A 
HETATM   27  C   UNL     1       7.977  20.547  53.322  1.00  0.00     0.000 A 
HETATM   28  C   UNL     1       7.920  21.885  52.936  1.00  0.00     0.001 A 
HETATM   29  C   UNL     1       8.328  22.886  53.819  1.00  0.00     0.007 A 
ENDBRANCH  23  24
ENDBRANCH  22  23
ENDBRANCH  21  22
ENDBRANCH   4  21
TORSDOF 6
ENDMDL
MODEL 3
REMARK VINA RESULT:      -9.1     11.175     14.053
REMARK  6 active torsions:
REMARK  status: ('A' for Active; 'I' for Inactive)
REMARK    1  A    between atoms: C_8  and  N_9 
REMARK       I    between atoms: N_9  and  C_10 
REMARK       I    between atoms: C_10  and  N_11 
REMARK    2  A    between atoms: N_11  and  C_12 
REMARK    3  A    between atoms: C_15  and  O_16 
REMARK    4  A    between atoms: O_16  and  C_17 
REMARK    5  A    between atoms: C_17  and  C_18 
REMARK    6  A    between atoms: C_18  and  C_19 
ROOT
HETATM    1  C   UNL     1       6.496  25.963  52.408  1.00  0.00     0.054 A 
HETATM    2  C   UNL     1       7.430  26.708  53.121  1.00  0.00     0.149 A 
HETATM    3  N   UNL     1       7.612  26.618  54.461  1.00  0.00    -0.235 NA
HETATM    4  C   UNL     1       6.834  25.743  55.126  1.00  0.00     0.164 A 
HETATM    5  C   UNL     1       5.905  24.923  54.507  1.00  0.00     0.060 A 
HETATM    6  C   UNL     1       5.730  25.044  53.129  1.00  0.00     0.035 A 
ENDROOT
BRANCH   1   7
HETATM    7  N   UNL     1       6.228  26.123  51.033  1.00  0.00    -0.307 N 
HETATM    8  C   UNL     1       5.157  26.813  50.484  1.00  0.00     0.325 C 
HETATM    9  N   UNL     1       5.001  26.476  49.154  1.00  0.00    -0.305 N 
HETATM   10  O   UNL     1       4.436  27.575  51.111  1.00  0.00    -0.247 OA
HETATM   11  H   UNL     1       5.367  25.576  48.884  1.00  0.00     0.171 HD
HETATM   12  H   UNL     1       6.938  25.814  50.385  1.00  0.00     0.170 HD
BRANCH   9  13
HETATM   13  C   UNL     1       4.066  27.024  48.289  1.00  0.00     0.086 A 
HETATM   14  C   UNL     1       3.143  26.246  47.616  1.00  0.00     0.052 A 
HETATM   15  C   UNL     1       2.869  24.790  47.616  1.00  0.00     0.072 C 
HETATM   16  N   UNL     1       2.393  27.117  46.878  1.00  0.00    -0.280 N 
HETATM   17  H   UNL     1       1.605  26.910  46.273  1.00  0.00     0.189 HD
HETATM   18  N   UNL     1       2.777  28.391  46.990  1.00  0.00    -0.177 NA
HETATM   19  C   UNL     1       3.804  28.354  47.852  1.00  0.00     0.079 A 
HETATM   20  C   UNL     1       4.505  29.626  48.166  1.00  0.00     0.075 C 
ENDBRANCH   9  13
ENDBRANCH   1   7
BRANCH   4  21
HETATM   21  O   UNL     1       6.934  25.652  56.501  1.00  0.00    -0.334 OA
BRANCH  21  22
HETATM   22  C   UNL     1       7.212  24.310  56.922  1.00  0.00     0.182 C 
BRANCH  22  23
HETATM   23  C   UNL     1       8.627  23.937  56.483  1.00  0.00     0.065 C 
BRANCH  23  24
HETATM   24  C   UNL     1       8.639  22.624  55.741  1.00  0.00    -0.056 A 
HETATM   25  C   UNL     1       8.765  22.601  54.345  1.00  0.00     0.007 A 
HETATM   26  C   UNL     1       8.710  21.393  53.649  1.00  0.00     0.001 A 
HETATM   27  C   UNL     1       8.526  20.198  54.341  1.00  0.00     0.000 A 
HETATM   28  C   UNL     1       8.398  20.209  55.728  1.00  0.00     0.001 A 
HETATM   29  C   UNL     1       8.454  21.416  56.427  1.00  0.00     0.007 A 
ENDBRANCH  23  24
ENDBRANCH  22  23
ENDBRANCH  21  22
ENDBRANCH   4  21
TORSDOF 6
ENDMDL
MODEL 4
REMARK VINA RESULT:      -9.1      5.901     12.628
REMARK  6 active torsions:
REMARK  status: ('A' for Active; 'I' for Inactive)
REMARK    1  A    between atoms: C_8  and  N_9 
REMARK       I    between atoms: N_9  and  C_10 
REMARK       I    between atoms: C_10  and  N_11 
REMARK    2  A    between atoms: N_11  and  C_12 
REMARK    3  A    between atoms: C_15  and  O_16 
REMARK    4  A    between atoms: O_16  and  C_17 
REMARK    5  A    between atoms: C_17  and  C_18 
REMARK    6  A    between atoms: C_18  and  C_19 
ROOT
HETATM    1  C   UNL     1       6.185  27.025  56.774  1.00  0.00     0.054 A 
HETATM    2  C   UNL     1       5.653  27.285  55.515  1.00  0.00     0.149 A 
HETATM    3  N   UNL     1       5.502  26.350  54.545  1.00  0.00    -0.235 NA
HETATM    4  C   UNL     1       5.894  25.096  54.840  1.00  0.00     0.164 A 
HETATM    5  C   UNL     1       6.394  24.722  56.075  1.00  0.00     0.060 A 
HETATM    6  C   UNL     1       6.550  25.706  57.052  1.00  0.00     0.035 A 
ENDROOT
BRANCH   1   7
HETATM    7  N   UNL     1       6.442  28.009  57.751  1.00  0.00    -0.307 N 
HETATM    8  C   UNL     1       7.338  29.061  57.636  1.00  0.00     0.325 C 
HETATM    9  N   UNL     1       7.599  29.606  58.878  1.00  0.00    -0.305 N 
HETATM   10  O   UNL     1       7.851  29.416  56.585  1.00  0.00    -0.247 OA
HETATM   11  H   UNL     1       7.455  28.993  59.665  1.00  0.00     0.171 HD
HETATM   12  H   UNL     1       5.837  28.026  58.559  1.00  0.00     0.170 HD
BRANCH   9  13
HETATM   13  C   UNL     1       8.403  30.709  59.120  1.00  0.00     0.086 A 
HETATM   14  C   UNL     1       7.998  31.751  59.933  1.00  0.00     0.052 A 
HETATM   15  C   UNL     1       6.765  31.986  60.721  1.00  0.00     0.072 C 
HETATM   16  N   UNL     1       9.036  32.637  59.946  1.00  0.00    -0.280 N 
HETATM   17  H   UNL     1       9.109  33.513  60.454  1.00  0.00     0.189 HD
HETATM   18  N   UNL     1      10.068  32.274  59.179  1.00  0.00    -0.177 NA
HETATM   19  C   UNL     1       9.697  31.092  58.662  1.00  0.00     0.079 A 
HETATM   20  C   UNL     1      10.617  30.422  57.707  1.00  0.00     0.075 C 
ENDBRANCH   9  13
ENDBRANCH   1   7
BRANCH   4  21
HETATM   21  O   UNL     1       5.819  24.114  53.870  1.00  0.00    -0.334 OA
BRANCH  21  22
HETATM   22  C   UNL     1       6.532  24.489  52.684  1.00  0.00     0.182 C 
BRANCH  22  23
HETATM   23  C   UNL     1       8.015  24.178  52.879  1.00  0.00     0.065 C 
BRANCH  23  24
HETATM   24  C   UNL     1       8.209  22.808  53.477  1.00  0.00    -0.056 A 
HETATM   25  C   UNL     1       8.848  22.661  54.716  1.00  0.00     0.007 A 
HETATM   26  C   UNL     1       9.089  21.392  55.243  1.00  0.00     0.001 A 
HETATM   27  C   UNL     1       8.695  20.258  54.535  1.00  0.00     0.000 A 
HETATM   28  C   UNL     1       8.060  20.392  53.302  1.00  0.00     0.001 A 
HETATM   29  C   UNL     1       7.818  21.661  52.773  1.00  0.00     0.007 A 
ENDBRANCH  23  24
ENDBRANCH  22  23
ENDBRANCH  21  22
ENDBRANCH   4  21
TORSDOF 6
ENDMDL
MODEL 5
REMARK VINA RESULT:      -8.9      3.649      6.447
REMARK  6 active torsions:
REMARK  status: ('A' for Active; 'I' for Inactive)
REMARK    1  A    between atoms: C_8  and  N_9 
REMARK       I    between atoms: N_9  and  C_10 
REMARK       I    between atoms: C_10  and  N_11 
REMARK    2  A    between atoms: N_11  and  C_12 
REMARK    3  A    between atoms: C_15  and  O_16 
REMARK    4  A    between atoms: O_16  and  C_17 
REMARK    5  A    between atoms: C_17  and  C_18 
REMARK    6  A    between atoms: C_18  and  C_19 
ROOT
HETATM    1  C   UNL     1       7.249  29.375  57.593  1.00  0.00     0.054 A 
HETATM    2  C   UNL     1       6.571  30.555  57.885  1.00  0.00     0.149 A 
HETATM    3  N   UNL     1       7.132  31.621  58.506  1.00  0.00    -0.235 NA
HETATM    4  C   UNL     1       8.430  31.515  58.850  1.00  0.00     0.164 A 
HETATM    5  C   UNL     1       9.207  30.404  58.567  1.00  0.00     0.060 A 
HETATM    6  C   UNL     1       8.602  29.316  57.937  1.00  0.00     0.035 A 
ENDROOT
BRANCH   1   7
HETATM    7  N   UNL     1       6.649  28.225  57.042  1.00  0.00    -0.307 N 
HETATM    8  C   UNL     1       6.637  27.871  55.701  1.00  0.00     0.325 C 
HETATM    9  N   UNL     1       5.680  26.903  55.469  1.00  0.00    -0.305 N 
HETATM   10  O   UNL     1       7.349  28.383  54.849  1.00  0.00    -0.247 OA
HETATM   11  H   UNL     1       4.918  26.874  56.128  1.00  0.00     0.171 HD
HETATM   12  H   UNL     1       6.299  27.533  57.688  1.00  0.00     0.170 HD
BRANCH   9  13
HETATM   13  C   UNL     1       5.442  26.283  54.252  1.00  0.00     0.086 A 
HETATM   14  C   UNL     1       4.597  26.825  53.303  1.00  0.00     0.052 A 
HETATM   15  C   UNL     1       3.806  28.077  53.264  1.00  0.00     0.072 C 
HETATM   16  N   UNL     1       4.618  25.957  52.248  1.00  0.00    -0.280 N 
HETATM   17  H   UNL     1       4.135  26.037  51.360  1.00  0.00     0.189 HD
HETATM   18  N   UNL     1       5.379  24.878  52.451  1.00  0.00    -0.177 NA
HETATM   19  C   UNL     1       5.893  25.059  53.677  1.00  0.00     0.079 A 
HETATM   20  C   UNL     1       6.766  23.996  54.239  1.00  0.00     0.075 C 
ENDBRANCH   9  13
ENDBRANCH   1   7
BRANCH   4  21
HETATM   21  O   UNL     1       9.038  32.547  59.538  1.00  0.00    -0.334 OA
BRANCH  21  22
HETATM   22  C   UNL     1       9.517  32.116  60.820  1.00  0.00     0.182 C 
BRANCH  22  23
HETATM   23  C   UNL     1       8.347  31.545  61.619  1.00  0.00     0.065 C 
BRANCH  23  24
HETATM   24  C   UNL     1       7.694  32.609  62.465  1.00  0.00    -0.056 A 
HETATM   25  C   UNL     1       7.983  32.701  63.833  1.00  0.00     0.007 A 
HETATM   26  C   UNL     1       7.333  33.642  64.632  1.00  0.00     0.001 A 
HETATM   27  C   UNL     1       6.386  34.497  64.071  1.00  0.00     0.000 A 
HETATM   28  C   UNL     1       6.090  34.413  62.712  1.00  0.00     0.001 A 
HETATM   29  C   UNL     1       6.741  33.474  61.911  1.00  0.00     0.007 A 
ENDBRANCH  23  24
ENDBRANCH  22  23
ENDBRANCH  21  22
ENDBRANCH   4  21
TORSDOF 6
ENDMDL
MODEL 6
REMARK VINA RESULT:      -8.9      5.002     12.319
REMARK  6 active torsions:
REMARK  status: ('A' for Active; 'I' for Inactive)
REMARK    1  A    between atoms: C_8  and  N_9 
REMARK       I    between atoms: N_9  and  C_10 
REMARK       I    between atoms: C_10  and  N_11 
REMARK    2  A    between atoms: N_11  and  C_12 
REMARK    3  A    between atoms: C_15  and  O_16 
REMARK    4  A    between atoms: O_16  and  C_17 
REMARK    5  A    between atoms: C_17  and  C_18 
REMARK    6  A    between atoms: C_18  and  C_19 
ROOT
HETATM    1  C   UNL     1       7.036  29.329  56.994  1.00  0.00     0.054 A 
HETATM    2  C   UNL     1       6.237  28.190  57.014  1.00  0.00     0.149 A 
HETATM    3  N   UNL     1       6.292  27.205  56.084  1.00  0.00    -0.235 NA
HETATM    4  C   UNL     1       7.186  27.354  55.088  1.00  0.00     0.164 A 
HETATM    5  C   UNL     1       8.058  28.426  54.999  1.00  0.00     0.060 A 
HETATM    6  C   UNL     1       7.973  29.431  55.963  1.00  0.00     0.035 A 
ENDROOT
BRANCH   1   7
HETATM    7  N   UNL     1       6.915  30.405  57.896  1.00  0.00    -0.307 N 
HETATM    8  C   UNL     1       7.464  30.472  59.167  1.00  0.00     0.325 C 
HETATM    9  N   UNL     1       6.865  31.482  59.896  1.00  0.00    -0.305 N 
HETATM   10  O   UNL     1       8.324  29.711  59.586  1.00  0.00    -0.247 OA
HETATM   11  H   UNL     1       5.936  31.741  59.603  1.00  0.00     0.171 HD
HETATM   12  H   UNL     1       6.494  31.254  57.547  1.00  0.00     0.170 HD
BRANCH   9  13
HETATM   13  C   UNL     1       7.215  31.862  61.182  1.00  0.00     0.086 A 
HETATM   14  C   UNL     1       6.267  32.149  62.146  1.00  0.00     0.052 A 
HETATM   15  C   UNL     1       4.786  32.124  62.135  1.00  0.00     0.072 C 
HETATM   16  N   UNL     1       6.970  32.469  63.273  1.00  0.00    -0.280 N 
HETATM   17  H   UNL     1       6.610  32.715  64.189  1.00  0.00     0.189 HD
HETATM   18  N   UNL     1       8.295  32.447  63.108  1.00  0.00    -0.177 NA
HETATM   19  C   UNL     1       8.465  32.077  61.830  1.00  0.00     0.079 A 
HETATM   20  C   UNL     1       9.850  31.998  61.298  1.00  0.00     0.075 C 
ENDBRANCH   9  13
ENDBRANCH   1   7
BRANCH   4  21
HETATM   21  O   UNL     1       7.246  26.411  54.080  1.00  0.00    -0.334 OA
BRANCH  21  22
HETATM   22  C   UNL     1       6.985  25.091  54.577  1.00  0.00     0.182 C 
BRANCH  22  23
HETATM   23  C   UNL     1       7.060  24.102  53.415  1.00  0.00     0.065 C 
BRANCH  23  24
HETATM   24  C   UNL     1       7.548  22.753  53.881  1.00  0.00    -0.056 A 
HETATM   25  C   UNL     1       7.980  21.797  52.951  1.00  0.00     0.007 A 
HETATM   26  C   UNL     1       8.370  20.525  53.372  1.00  0.00     0.001 A 
HETATM   27  C   UNL     1       8.329  20.197  54.726  1.00  0.00     0.000 A 
HETATM   28  C   UNL     1       7.901  21.139  55.659  1.00  0.00     0.001 A 
HETATM   29  C   UNL     1       7.511  22.412  55.240  1.00  0.00     0.007 A 
ENDBRANCH  23  24
ENDBRANCH  22  23
ENDBRANCH  21  22
ENDBRANCH   4  21
TORSDOF 6
ENDMDL
MODEL 7
REMARK VINA RESULT:      -8.8     11.838     14.837
REMARK  6 active torsions:
REMARK  status: ('A' for Active; 'I' for Inactive)
REMARK    1  A    between atoms: C_8  and  N_9 
REMARK       I    between atoms: N_9  and  C_10 
REMARK       I    between atoms: C_10  and  N_11 
REMARK    2  A    between atoms: N_11  and  C_12 
REMARK    3  A    between atoms: C_15  and  O_16 
REMARK    4  A    between atoms: O_16  and  C_17 
REMARK    5  A    between atoms: C_17  and  C_18 
REMARK    6  A    between atoms: C_18  and  C_19 
ROOT
HETATM    1  C   UNL     1       5.483  26.727  51.197  1.00  0.00     0.054 A 
HETATM    2  C   UNL     1       6.129  27.514  52.145  1.00  0.00     0.149 A 
HETATM    3  N   UNL     1       6.321  27.146  53.436  1.00  0.00    -0.235 NA
HETATM    4  C   UNL     1       5.855  25.937  53.803  1.00  0.00     0.164 A 
HETATM    5  C   UNL     1       5.238  25.059  52.928  1.00  0.00     0.060 A 
HETATM    6  C   UNL     1       5.042  25.467  51.609  1.00  0.00     0.035 A 
ENDROOT
BRANCH   1   7
HETATM    7  N   UNL     1       5.187  27.142  49.882  1.00  0.00    -0.307 N 
HETATM    8  C   UNL     1       4.113  27.929  49.496  1.00  0.00     0.325 C 
HETATM    9  N   UNL     1       3.924  27.846  48.131  1.00  0.00    -0.305 N 
HETATM   10  O   UNL     1       3.415  28.567  50.271  1.00  0.00    -0.247 OA
HETATM   11  H   UNL     1       4.274  27.009  47.690  1.00  0.00     0.171 HD
HETATM   12  H   UNL     1       5.879  26.953  49.172  1.00  0.00     0.170 HD
BRANCH   9  13
HETATM   13  C   UNL     1       2.978  28.552  47.405  1.00  0.00     0.086 A 
HETATM   14  C   UNL     1       3.265  29.762  46.803  1.00  0.00     0.052 A 
HETATM   15  C   UNL     1       4.502  30.573  46.723  1.00  0.00     0.072 C 
HETATM   16  N   UNL     1       2.114  30.149  46.178  1.00  0.00    -0.280 N 
HETATM   17  H   UNL     1       1.952  30.978  45.616  1.00  0.00     0.189 HD
HETATM   18  N   UNL     1       1.093  29.305  46.355  1.00  0.00    -0.177 NA
HETATM   19  C   UNL     1       1.604  28.318  47.107  1.00  0.00     0.079 A 
HETATM   20  C   UNL     1       0.701  27.218  47.532  1.00  0.00     0.075 C 
ENDBRANCH   9  13
ENDBRANCH   1   7
BRANCH   4  21
HETATM   21  O   UNL     1       5.969  25.535  55.119  1.00  0.00    -0.334 OA
BRANCH  21  22
HETATM   22  C   UNL     1       7.262  24.975  55.389  1.00  0.00     0.182 C 
BRANCH  22  23
HETATM   23  C   UNL     1       7.082  23.611  56.053  1.00  0.00     0.065 C 
BRANCH  23  24
HETATM   24  C   UNL     1       7.517  22.497  55.134  1.00  0.00    -0.056 A 
HETATM   25  C   UNL     1       7.854  21.241  55.656  1.00  0.00     0.007 A 
HETATM   26  C   UNL     1       8.319  20.227  54.818  1.00  0.00     0.001 A 
HETATM   27  C   UNL     1       8.454  20.461  53.451  1.00  0.00     0.000 A 
HETATM   28  C   UNL     1       8.122  21.707  52.921  1.00  0.00     0.001 A 
HETATM   29  C   UNL     1       7.656  22.722  53.758  1.00  0.00     0.007 A 
ENDBRANCH  23  24
ENDBRANCH  22  23
ENDBRANCH  21  22
ENDBRANCH   4  21
TORSDOF 6
ENDMDL
MODEL 8
REMARK VINA RESULT:      -8.4     11.758     15.419
REMARK  6 active torsions:
REMARK  status: ('A' for Active; 'I' for Inactive)
REMARK    1  A    between atoms: C_8  and  N_9 
REMARK       I    between atoms: N_9  and  C_10 
REMARK       I    between atoms: C_10  and  N_11 
REMARK    2  A    between atoms: N_11  and  C_12 
REMARK    3  A    between atoms: C_15  and  O_16 
REMARK    4  A    between atoms: O_16  and  C_17 
REMARK    5  A    between atoms: C_17  and  C_18 
REMARK    6  A    between atoms: C_18  and  C_19 
ROOT
HETATM    1  C   UNL     1       6.291  25.943  53.933  1.00  0.00     0.054 A 
HETATM    2  C   UNL     1       6.977  27.135  54.140  1.00  0.00     0.149 A 
HETATM    3  N   UNL     1       6.853  28.231  53.351  1.00  0.00    -0.235 NA
HETATM    4  C   UNL     1       6.003  28.142  52.310  1.00  0.00     0.164 A 
HETATM    5  C   UNL     1       5.239  27.019  52.042  1.00  0.00     0.060 A 
HETATM    6  C   UNL     1       5.395  25.901  52.862  1.00  0.00     0.035 A 
ENDROOT
BRANCH   1   7
HETATM    7  N   UNL     1       6.491  24.766  54.684  1.00  0.00    -0.307 N 
HETATM    8  C   UNL     1       7.421  23.773  54.416  1.00  0.00     0.325 C 
HETATM    9  N   UNL     1       7.111  22.624  55.117  1.00  0.00    -0.305 N 
HETATM   10  O   UNL     1       8.352  23.897  53.634  1.00  0.00    -0.247 OA
HETATM   11  H   UNL     1       6.143  22.518  55.378  1.00  0.00     0.171 HD
HETATM   12  H   UNL     1       6.000  24.691  55.563  1.00  0.00     0.170 HD
BRANCH   9  13
HETATM   13  C   UNL     1       7.864  21.461  55.127  1.00  0.00     0.086 A 
HETATM   14  C   UNL     1       8.437  20.966  56.284  1.00  0.00     0.052 A 
HETATM   15  C   UNL     1       8.415  21.430  57.690  1.00  0.00     0.072 C 
HETATM   16  N   UNL     1       9.081  19.819  55.917  1.00  0.00    -0.280 N 
HETATM   17  H   UNL     1       9.597  19.172  56.505  1.00  0.00     0.189 HD
HETATM   18  N   UNL     1       9.005  19.549  54.611  1.00  0.00    -0.177 NA
HETATM   19  C   UNL     1       8.261  20.547  54.108  1.00  0.00     0.079 A 
HETATM   20  C   UNL     1       8.019  20.575  52.643  1.00  0.00     0.075 C 
ENDBRANCH   9  13
ENDBRANCH   1   7
BRANCH   4  21
HETATM   21  O   UNL     1       5.880  29.207  51.439  1.00  0.00    -0.334 OA
BRANCH  21  22
HETATM   22  C   UNL     1       4.734  29.063  50.589  1.00  0.00     0.182 C 
BRANCH  22  23
HETATM   23  C   UNL     1       5.205  28.728  49.175  1.00  0.00     0.065 C 
BRANCH  23  24
HETATM   24  C   UNL     1       4.205  27.852  48.463  1.00  0.00    -0.056 A 
HETATM   25  C   UNL     1       4.416  26.469  48.369  1.00  0.00     0.007 A 
HETATM   26  C   UNL     1       3.528  25.664  47.655  1.00  0.00     0.001 A 
HETATM   27  C   UNL     1       2.422  26.234  47.027  1.00  0.00     0.000 A 
HETATM   28  C   UNL     1       2.203  27.607  47.113  1.00  0.00     0.001 A 
HETATM   29  C   UNL     1       3.090  28.414  47.827  1.00  0.00     0.007 A 
ENDBRANCH  23  24
ENDBRANCH  22  23
ENDBRANCH  21  22
ENDBRANCH   4  21
TORSDOF 6
ENDMDL
MODEL 9
REMARK VINA RESULT:      -8.4      4.464     12.011
REMARK  6 active torsions:
REMARK  status: ('A' for Active; 'I' for Inactive)
REMARK    1  A    between atoms: C_8  and  N_9 
REMARK       I    between atoms: N_9  and  C_10 
REMARK       I    between atoms: C_10  and  N_11 
REMARK    2  A    between atoms: N_11  and  C_12 
REMARK    3  A    between atoms: C_15  and  O_16 
REMARK    4  A    between atoms: O_16  and  C_17 
REMARK    5  A    between atoms: C_17  and  C_18 
REMARK    6  A    between atoms: C_18  and  C_19 
ROOT
HETATM    1  C   UNL     1       6.380  30.053  57.531  1.00  0.00     0.054 A 
HETATM    2  C   UNL     1       7.615  29.416  57.610  1.00  0.00     0.149 A 
HETATM    3  N   UNL     1       8.143  28.657  56.619  1.00  0.00    -0.235 NA
HETATM    4  C   UNL     1       7.415  28.527  55.494  1.00  0.00     0.164 A 
HETATM    5  C   UNL     1       6.197  29.154  55.296  1.00  0.00     0.060 A 
HETATM    6  C   UNL     1       5.670  29.920  56.336  1.00  0.00     0.035 A 
ENDROOT
BRANCH   1   7
HETATM    7  N   UNL     1       5.776  30.757  58.593  1.00  0.00    -0.307 N 
HETATM    8  C   UNL     1       6.341  31.804  59.305  1.00  0.00     0.325 C 
HETATM    9  N   UNL     1       5.644  32.018  60.478  1.00  0.00    -0.305 N 
HETATM   10  O   UNL     1       7.341  32.414  58.954  1.00  0.00    -0.247 OA
HETATM   11  H   UNL     1       5.133  31.225  60.835  1.00  0.00     0.171 HD
HETATM   12  H   UNL     1       4.802  30.568  58.776  1.00  0.00     0.170 HD
BRANCH   9  13
HETATM   13  C   UNL     1       5.902  33.024  61.396  1.00  0.00     0.086 A 
HETATM   14  C   UNL     1       5.141  34.176  61.457  1.00  0.00     0.052 A 
HETATM   15  C   UNL     1       3.958  34.638  60.694  1.00  0.00     0.072 C 
HETATM   16  N   UNL     1       5.673  34.918  62.473  1.00  0.00    -0.280 N 
HETATM   17  H   UNL     1       5.361  35.818  62.823  1.00  0.00     0.189 HD
HETATM   18  N   UNL     1       6.738  34.358  63.052  1.00  0.00    -0.177 NA
HETATM   19  C   UNL     1       6.895  33.193  62.404  1.00  0.00     0.079 A 
HETATM   20  C   UNL     1       8.042  32.328  62.778  1.00  0.00     0.075 C 
ENDBRANCH   9  13
ENDBRANCH   1   7
BRANCH   4  21
HETATM   21  O   UNL     1       7.877  27.717  54.474  1.00  0.00    -0.334 OA
BRANCH  21  22
HETATM   22  C   UNL     1       6.861  26.815  54.016  1.00  0.00     0.182 C 
BRANCH  22  23
HETATM   23  C   UNL     1       7.471  25.865  52.986  1.00  0.00     0.065 C 
BRANCH  23  24
HETATM   24  C   UNL     1       7.528  24.454  53.515  1.00  0.00    -0.056 A 
HETATM   25  C   UNL     1       7.290  24.197  54.872  1.00  0.00     0.007 A 
HETATM   26  C   UNL     1       7.406  22.903  55.379  1.00  0.00     0.001 A 
HETATM   27  C   UNL     1       7.764  21.854  54.535  1.00  0.00     0.000 A 
HETATM   28  C   UNL     1       8.004  22.097  53.184  1.00  0.00     0.001 A 
HETATM   29  C   UNL     1       7.887  23.392  52.675  1.00  0.00     0.007 A 
ENDBRANCH  23  24
ENDBRANCH  22  23
ENDBRANCH  21  22
ENDBRANCH   4  21
TORSDOF 6
ENDMDL
MODEL 10
REMARK VINA RESULT:      -8.3      4.904      7.855
REMARK  6 active torsions:
REMARK  status: ('A' for Active; 'I' for Inactive)
REMARK    1  A    between atoms: C_8  and  N_9 
REMARK       I    between atoms: N_9  and  C_10 
REMARK       I    between atoms: C_10  and  N_11 
REMARK    2  A    between atoms: N_11  and  C_12 
REMARK    3  A    between atoms: C_15  and  O_16 
REMARK    4  A    between atoms: O_16  and  C_17 
REMARK    5  A    between atoms: C_17  and  C_18 
REMARK    6  A    between atoms: C_18  and  C_19 
ROOT
HETATM    1  C   UNL     1       6.742  26.988  57.228  1.00  0.00     0.054 A 
HETATM    2  C   UNL     1       7.890  27.388  57.905  1.00  0.00     0.149 A 
HETATM    3  N   UNL     1       8.155  28.668  58.265  1.00  0.00    -0.235 NA
HETATM    4  C   UNL     1       7.234  29.596  57.941  1.00  0.00     0.164 A 
HETATM    5  C   UNL     1       6.039  29.299  57.308  1.00  0.00     0.060 A 
HETATM    6  C   UNL     1       5.797  27.975  56.939  1.00  0.00     0.035 A 
ENDROOT
BRANCH   1   7
HETATM    7  N   UNL     1       6.506  25.679  56.760  1.00  0.00    -0.307 N 
HETATM    8  C   UNL     1       7.410  24.881  56.076  1.00  0.00     0.325 C 
HETATM    9  N   UNL     1       6.755  23.830  55.465  1.00  0.00    -0.305 N 
HETATM   10  O   UNL     1       8.608  25.111  55.997  1.00  0.00    -0.247 OA
HETATM   11  H   UNL     1       5.779  23.980  55.264  1.00  0.00     0.171 HD
HETATM   12  H   UNL     1       5.648  25.234  57.049  1.00  0.00     0.170 HD
BRANCH   9  13
HETATM   13  C   UNL     1       7.362  22.809  54.750  1.00  0.00     0.086 A 
HETATM   14  C   UNL     1       7.675  22.935  53.410  1.00  0.00     0.052 A 
HETATM   15  C   UNL     1       7.515  24.047  52.444  1.00  0.00     0.072 C 
HETATM   16  N   UNL     1       8.263  21.755  53.054  1.00  0.00    -0.280 N 
HETATM   17  H   UNL     1       8.644  21.490  52.151  1.00  0.00     0.189 HD
HETATM   18  N   UNL     1       8.324  20.860  54.044  1.00  0.00    -0.177 NA
HETATM   19  C   UNL     1       7.775  21.489  55.094  1.00  0.00     0.079 A 
HETATM   20  C   UNL     1       7.642  20.742  56.371  1.00  0.00     0.075 C 
ENDBRANCH   9  13
ENDBRANCH   1   7
BRANCH   4  21
HETATM   21  O   UNL     1       7.478  30.925  58.229  1.00  0.00    -0.334 OA
BRANCH  21  22
HETATM   22  C   UNL     1       6.984  31.282  59.528  1.00  0.00     0.182 C 
BRANCH  22  23
HETATM   23  C   UNL     1       8.167  31.637  60.427  1.00  0.00     0.065 C 
BRANCH  23  24
HETATM   24  C   UNL     1       7.717  32.421  61.634  1.00  0.00    -0.056 A 
HETATM   25  C   UNL     1       8.348  32.237  62.872  1.00  0.00     0.007 A 
HETATM   26  C   UNL     1       7.892  32.912  64.005  1.00  0.00     0.001 A 
HETATM   27  C   UNL     1       6.802  33.774  63.912  1.00  0.00     0.000 A 
HETATM   28  C   UNL     1       6.167  33.964  62.686  1.00  0.00     0.001 A 
HETATM   29  C   UNL     1       6.622  33.290  61.551  1.00  0.00     0.007 A 
ENDBRANCH  23  24
ENDBRANCH  22  23
ENDBRANCH  21  22
ENDBRANCH   4  21
TORSDOF 6
ENDMDL
