MODEL 1
REMARK VINA RESULT:      -9.3      0.000      0.000
REMARK  5 active torsions:
REMARK  status: ('A' for Active; 'I' for Inactive)
REMARK    1  A    between atoms: C_6  and  O_7 
REMARK    2  A    between atoms: O_7  and  C_8 
REMARK    3  A    between atoms: C_8  and  C_9 
REMARK       I    between atoms: C_9  and  N_10 
REMARK    4  A    between atoms: N_10  and  N_11 
REMARK    5  A    between atoms: C_12  and  C_13 
ROOT
HETATM    1  C   UNL     1       7.994  30.002  58.475  1.00  0.00     0.261 C 
HETATM    2  N   UNL     1       7.240  28.856  58.267  1.00  0.00    -0.246 N 
HETATM    3  O   UNL     1       9.204  30.104  58.274  1.00  0.00    -0.269 OA
HETATM    4  H   UNL     1       6.249  28.859  58.490  1.00  0.00     0.192 HD
ENDROOT
BRANCH   2   5
HETATM    5  N   UNL     1       7.854  27.732  57.799  1.00  0.00    -0.184 NA
HETATM    6  C   UNL     1       7.094  26.812  57.305  1.00  0.00     0.152 C 
BRANCH   6   7
HETATM    7  C   UNL     1       7.709  25.606  56.784  1.00  0.00     0.011 A 
HETATM    8  C   UNL     1       7.504  24.990  55.506  1.00  0.00     0.004 A 
HETATM    9  C   UNL     1       8.323  23.859  55.453  1.00  0.00     0.043 A 
HETATM   10  C   UNL     1       6.708  25.288  54.380  1.00  0.00     0.014 A 
HETATM   11  C   UNL     1       8.385  23.015  54.338  1.00  0.00     0.030 A 
HETATM   12  N   UNL     1       8.995  23.786  56.651  1.00  0.00    -0.364 N 
HETATM   13  C   UNL     1       7.588  23.335  53.237  1.00  0.00     0.002 A 
HETATM   14  C   UNL     1       6.761  24.455  53.254  1.00  0.00     0.001 A 
HETATM   15  H   UNL     1       9.662  23.066  56.895  1.00  0.00     0.165 HD
HETATM   16  C   UNL     1       8.637  24.830  57.454  1.00  0.00     0.102 A 
ENDBRANCH   6   7
ENDBRANCH   2   5
BRANCH   1  17
HETATM   17  C   UNL     1       7.162  31.211  58.890  1.00  0.00     0.280 C 
BRANCH  17  18
HETATM   18  O   UNL     1       7.957  32.240  59.476  1.00  0.00    -0.342 OA
BRANCH  18  19
HETATM   19  C   UNL     1       7.640  32.522  60.784  1.00  0.00     0.075 A 
HETATM   20  C   UNL     1       8.576  32.143  61.760  1.00  0.00    -0.028 A 
HETATM   21  C   UNL     1       8.314  32.435  63.111  1.00  0.00     0.016 A 
HETATM   22  C   UNL     1       9.876  31.494  61.381  1.00  0.00     0.051 C 
HETATM   23  C   UNL     1       7.122  33.058  63.499  1.00  0.00    -0.061 A 
HETATM   24  C   UNL     1       6.862  33.401  64.935  1.00  0.00     0.048 C 
HETATM   25  C   UNL     1       6.190  33.405  62.517  1.00  0.00     0.009 A 
HETATM   26  C   UNL     1       6.442  33.131  61.171  1.00  0.00     0.038 A 
ENDBRANCH  18  19
ENDBRANCH  17  18
ENDBRANCH   1  17
TORSDOF 5
ENDMDL
MODEL 2
REMARK VINA RESULT:      -9.2      7.383     11.108
REMARK  5 active torsions:
REMARK  status: ('A' for Active; 'I' for Inactive)
REMARK    1  A    between atoms: C_6  and  O_7 
REMARK    2  A    between atoms: O_7  and  C_8 
REMARK    3  A    between atoms: C_8  and  C_9 
REMARK       I    between atoms: C_9  and  N_10 
REMARK    4  A    between atoms: N_10  and  N_11 
REMARK    5  A    between atoms: C_12  and  C_13 
ROOT
HETATM    1  C   UNL     1       5.099  27.233  50.811  1.00  0.00     0.261 C 
HETATM    2  N   UNL     1       5.840  26.061  50.764  1.00  0.00    -0.246 N 
HETATM    3  O   UNL     1       4.481  27.644  51.792  1.00  0.00    -0.269 OA
HETATM    4  H   UNL     1       6.294  25.788  49.897  1.00  0.00     0.192 HD
ENDROOT
BRANCH   2   5
HETATM    5  N   UNL     1       5.915  25.276  51.876  1.00  0.00    -0.184 NA
HETATM    6  C   UNL     1       7.059  25.211  52.472  1.00  0.00     0.152 C 
BRANCH   6   7
HETATM    7  C   UNL     1       7.177  24.397  53.667  1.00  0.00     0.011 A 
HETATM    8  C   UNL     1       7.517  23.008  53.761  1.00  0.00     0.004 A 
HETATM    9  C   UNL     1       7.517  22.671  55.117  1.00  0.00     0.043 A 
HETATM   10  C   UNL     1       7.838  22.002  52.825  1.00  0.00     0.014 A 
HETATM   11  C   UNL     1       7.819  21.385  55.582  1.00  0.00     0.030 A 
HETATM   12  N   UNL     1       7.185  23.806  55.820  1.00  0.00    -0.364 N 
HETATM   13  C   UNL     1       8.133  20.410  54.634  1.00  0.00     0.002 A 
HETATM   14  C   UNL     1       8.145  20.711  53.274  1.00  0.00     0.001 A 
HETATM   15  H   UNL     1       7.110  23.859  56.826  1.00  0.00     0.165 HD
HETATM   16  C   UNL     1       6.982  24.847  54.960  1.00  0.00     0.102 A 
ENDBRANCH   6   7
ENDBRANCH   2   5
BRANCH   1  17
HETATM   17  C   UNL     1       5.196  28.066  49.537  1.00  0.00     0.280 C 
BRANCH  17  18
HETATM   18  O   UNL     1       4.902  27.304  48.369  1.00  0.00    -0.342 OA
BRANCH  18  19
HETATM   19  C   UNL     1       3.666  27.560  47.823  1.00  0.00     0.075 A 
HETATM   20  C   UNL     1       2.810  26.461  47.648  1.00  0.00    -0.028 A 
HETATM   21  C   UNL     1       1.523  26.672  47.122  1.00  0.00     0.016 A 
HETATM   22  C   UNL     1       3.219  25.080  48.073  1.00  0.00     0.051 C 
HETATM   23  C   UNL     1       1.099  27.949  46.734  1.00  0.00    -0.061 A 
HETATM   24  C   UNL     1      -0.287  28.176  46.208  1.00  0.00     0.048 C 
HETATM   25  C   UNL     1       1.974  29.028  46.891  1.00  0.00     0.009 A 
HETATM   26  C   UNL     1       3.251  28.833  47.423  1.00  0.00     0.038 A 
ENDBRANCH  18  19
ENDBRANCH  17  18
ENDBRANCH   1  17
TORSDOF 5
ENDMDL
MODEL 3
REMARK VINA RESULT:      -9.2      1.729      2.898
REMARK  5 active torsions:
REMARK  status: ('A' for Active; 'I' for Inactive)
REMARK    1  A    between atoms: C_6  and  O_7 
REMARK    2  A    between atoms: O_7  and  C_8 
REMARK    3  A    between atoms: C_8  and  C_9 
REMARK       I    between atoms: C_9  and  N_10 
REMARK    4  A    between atoms: N_10  and  N_11 
REMARK    5  A    between atoms: C_12  and  C_13 
ROOT
HETATM    1  C   UNL     1       7.745  28.565  56.931  1.00  0.00     0.261 C 
HETATM    2  N   UNL     1       7.191  27.294  56.877  1.00  0.00    -0.246 N 
HETATM    3  O   UNL     1       8.388  29.099  56.028  1.00  0.00    -0.269 OA
HETATM    4  H   UNL     1       6.700  26.924  57.686  1.00  0.00     0.192 HD
ENDROOT
BRANCH   2   5
HETATM    5  N   UNL     1       7.350  26.546  55.748  1.00  0.00    -0.184 NA
HETATM    6  C   UNL     1       7.584  25.286  55.908  1.00  0.00     0.152 C 
BRANCH   6   7
HETATM    7  C   UNL     1       7.745  24.453  54.731  1.00  0.00     0.011 A 
HETATM    8  C   UNL     1       7.824  23.023  54.663  1.00  0.00     0.004 A 
HETATM    9  C   UNL     1       7.964  22.678  53.317  1.00  0.00     0.043 A 
HETATM   10  C   UNL     1       7.778  21.984  55.616  1.00  0.00     0.014 A 
HETATM   11  C   UNL     1       8.062  21.352  52.877  1.00  0.00     0.030 A 
HETATM   12  N   UNL     1       7.977  23.848  52.594  1.00  0.00    -0.364 N 
HETATM   13  C   UNL     1       8.013  20.344  53.841  1.00  0.00     0.002 A 
HETATM   14  C   UNL     1       7.872  20.652  55.192  1.00  0.00     0.001 A 
HETATM   15  H   UNL     1       8.065  23.904  51.589  1.00  0.00     0.165 HD
HETATM   16  C   UNL     1       7.842  24.918  53.432  1.00  0.00     0.102 A 
ENDBRANCH   6   7
ENDBRANCH   2   5
BRANCH   1  17
HETATM   17  C   UNL     1       7.395  29.328  58.204  1.00  0.00     0.280 C 
BRANCH  17  18
HETATM   18  O   UNL     1       8.140  30.537  58.331  1.00  0.00    -0.342 OA
BRANCH  18  19
HETATM   19  C   UNL     1       8.162  31.055  59.605  1.00  0.00     0.075 A 
HETATM   20  C   UNL     1       7.157  31.980  59.931  1.00  0.00    -0.028 A 
HETATM   21  C   UNL     1       7.115  32.518  61.229  1.00  0.00     0.016 A 
HETATM   22  C   UNL     1       6.090  32.352  58.941  1.00  0.00     0.051 C 
HETATM   23  C   UNL     1       8.081  32.178  62.185  1.00  0.00    -0.061 A 
HETATM   24  C   UNL     1       8.013  32.725  63.580  1.00  0.00     0.048 C 
HETATM   25  C   UNL     1       9.089  31.276  61.836  1.00  0.00     0.009 A 
HETATM   26  C   UNL     1       9.135  30.726  60.552  1.00  0.00     0.038 A 
ENDBRANCH  18  19
ENDBRANCH  17  18
ENDBRANCH   1  17
TORSDOF 5
ENDMDL
MODEL 4
REMARK VINA RESULT:      -9.2      2.513     10.009
REMARK  5 active torsions:
REMARK  status: ('A' for Active; 'I' for Inactive)
REMARK    1  A    between atoms: C_6  and  O_7 
REMARK    2  A    between atoms: O_7  and  C_8 
REMARK    3  A    between atoms: C_8  and  C_9 
REMARK       I    between atoms: C_9  and  N_10 
REMARK    4  A    between atoms: N_10  and  N_11 
REMARK    5  A    between atoms: C_12  and  C_13 
ROOT
HETATM    1  C   UNL     1       5.894  26.984  56.319  1.00  0.00     0.261 C 
HETATM    2  N   UNL     1       6.838  27.981  56.521  1.00  0.00    -0.246 N 
HETATM    3  O   UNL     1       4.907  26.786  57.027  1.00  0.00    -0.269 OA
HETATM    4  H   UNL     1       7.638  28.049  55.899  1.00  0.00     0.192 HD
ENDROOT
BRANCH   2   5
HETATM    5  N   UNL     1       6.692  28.831  57.577  1.00  0.00    -0.184 NA
HETATM    6  C   UNL     1       6.986  30.073  57.375  1.00  0.00     0.152 C 
BRANCH   6   7
HETATM    7  C   UNL     1       6.831  31.012  58.470  1.00  0.00     0.011 A 
HETATM    8  C   UNL     1       7.644  31.144  59.643  1.00  0.00     0.004 A 
HETATM    9  C   UNL     1       7.113  32.192  60.400  1.00  0.00     0.043 A 
HETATM   10  C   UNL     1       8.789  30.483  60.133  1.00  0.00     0.014 A 
HETATM   11  C   UNL     1       7.667  32.608  61.618  1.00  0.00     0.030 A 
HETATM   12  N   UNL     1       6.020  32.674  59.720  1.00  0.00    -0.364 N 
HETATM   13  C   UNL     1       8.801  31.936  62.078  1.00  0.00     0.002 A 
HETATM   14  C   UNL     1       9.357  30.888  61.348  1.00  0.00     0.001 A 
HETATM   15  H   UNL     1       5.438  33.439  60.033  1.00  0.00     0.165 HD
HETATM   16  C   UNL     1       5.844  31.976  58.560  1.00  0.00     0.102 A 
ENDBRANCH   6   7
ENDBRANCH   2   5
BRANCH   1  17
HETATM   17  C   UNL     1       6.119  26.183  55.042  1.00  0.00     0.280 C 
BRANCH  17  18
HETATM   18  O   UNL     1       7.473  25.759  54.900  1.00  0.00    -0.342 OA
BRANCH  18  19
HETATM   19  C   UNL     1       7.618  24.437  54.550  1.00  0.00     0.075 A 
HETATM   20  C   UNL     1       7.832  24.162  53.190  1.00  0.00    -0.028 A 
HETATM   21  C   UNL     1       8.015  22.829  52.781  1.00  0.00     0.016 A 
HETATM   22  C   UNL     1       7.933  25.267  52.178  1.00  0.00     0.051 C 
HETATM   23  C   UNL     1       7.948  21.774  53.700  1.00  0.00    -0.061 A 
HETATM   24  C   UNL     1       8.181  20.357  53.267  1.00  0.00     0.048 C 
HETATM   25  C   UNL     1       7.709  22.064  55.046  1.00  0.00     0.009 A 
HETATM   26  C   UNL     1       7.535  23.385  55.466  1.00  0.00     0.038 A 
ENDBRANCH  18  19
ENDBRANCH  17  18
ENDBRANCH   1  17
TORSDOF 5
ENDMDL
MODEL 5
REMARK VINA RESULT:      -9.1      2.367      9.949
REMARK  5 active torsions:
REMARK  status: ('A' for Active; 'I' for Inactive)
REMARK    1  A    between atoms: C_6  and  O_7 
REMARK    2  A    between atoms: O_7  and  C_8 
REMARK    3  A    between atoms: C_8  and  C_9 
REMARK       I    between atoms: C_9  and  N_10 
REMARK    4  A    between atoms: N_10  and  N_11 
REMARK    5  A    between atoms: C_12  and  C_13 
ROOT
HETATM    1  C   UNL     1       6.061  26.937  56.462  1.00  0.00     0.261 C 
HETATM    2  N   UNL     1       7.114  27.766  56.821  1.00  0.00    -0.246 N 
HETATM    3  O   UNL     1       4.940  26.951  56.971  1.00  0.00    -0.269 OA
HETATM    4  H   UNL     1       8.015  27.662  56.362  1.00  0.00     0.192 HD
ENDROOT
BRANCH   2   5
HETATM    5  N   UNL     1       6.931  28.684  57.813  1.00  0.00    -0.184 NA
HETATM    6  C   UNL     1       7.184  29.917  57.524  1.00  0.00     0.152 C 
BRANCH   6   7
HETATM    7  C   UNL     1       6.988  30.926  58.547  1.00  0.00     0.011 A 
HETATM    8  C   UNL     1       7.743  31.124  59.750  1.00  0.00     0.004 A 
HETATM    9  C   UNL     1       7.190  32.224  60.411  1.00  0.00     0.043 A 
HETATM   10  C   UNL     1       8.853  30.482  60.338  1.00  0.00     0.014 A 
HETATM   11  C   UNL     1       7.688  32.711  61.626  1.00  0.00     0.030 A 
HETATM   12  N   UNL     1       6.138  32.673  59.647  1.00  0.00    -0.364 N 
HETATM   13  C   UNL     1       8.788  32.057  62.184  1.00  0.00     0.002 A 
HETATM   14  C   UNL     1       9.365  30.959  61.551  1.00  0.00     0.001 A 
HETATM   15  H   UNL     1       5.552  33.463  59.882  1.00  0.00     0.165 HD
HETATM   16  C   UNL     1       6.010  31.905  58.526  1.00  0.00     0.102 A 
ENDBRANCH   6   7
ENDBRANCH   2   5
BRANCH   1  17
HETATM   17  C   UNL     1       6.370  26.042  55.267  1.00  0.00     0.280 C 
BRANCH  17  18
HETATM   18  O   UNL     1       7.710  25.555  55.289  1.00  0.00    -0.342 OA
BRANCH  18  19
HETATM   19  C   UNL     1       7.880  24.342  54.663  1.00  0.00     0.075 A 
HETATM   20  C   UNL     1       8.289  23.266  55.466  1.00  0.00    -0.028 A 
HETATM   21  C   UNL     1       8.450  21.996  54.881  1.00  0.00     0.016 A 
HETATM   22  C   UNL     1       8.493  23.431  56.945  1.00  0.00     0.051 C 
HETATM   23  C   UNL     1       8.247  21.800  53.510  1.00  0.00    -0.061 A 
HETATM   24  C   UNL     1       8.383  20.439  52.896  1.00  0.00     0.048 C 
HETATM   25  C   UNL     1       7.865  22.888  52.720  1.00  0.00     0.009 A 
HETATM   26  C   UNL     1       7.692  24.152  53.290  1.00  0.00     0.038 A 
ENDBRANCH  18  19
ENDBRANCH  17  18
ENDBRANCH   1  17
TORSDOF 5
ENDMDL
MODEL 6
REMARK VINA RESULT:      -8.7      1.575      2.037
REMARK  5 active torsions:
REMARK  status: ('A' for Active; 'I' for Inactive)
REMARK    1  A    between atoms: C_6  and  O_7 
REMARK    2  A    between atoms: O_7  and  C_8 
REMARK    3  A    between atoms: C_8  and  C_9 
REMARK       I    between atoms: C_9  and  N_10 
REMARK    4  A    between atoms: N_10  and  N_11 
REMARK    5  A    between atoms: C_12  and  C_13 
ROOT
HETATM    1  C   UNL     1       8.298  29.747  57.342  1.00  0.00     0.261 C 
HETATM    2  N   UNL     1       7.289  29.043  56.700  1.00  0.00    -0.246 N 
HETATM    3  O   UNL     1       9.494  29.695  57.055  1.00  0.00    -0.269 OA
HETATM    4  H   UNL     1       6.331  29.127  57.027  1.00  0.00     0.192 HD
ENDROOT
BRANCH   2   5
HETATM    5  N   UNL     1       7.609  28.219  55.662  1.00  0.00    -0.184 NA
HETATM    6  C   UNL     1       7.072  27.044  55.659  1.00  0.00     0.152 C 
BRANCH   6   7
HETATM    7  C   UNL     1       7.376  26.142  54.565  1.00  0.00     0.011 A 
HETATM    8  C   UNL     1       7.504  24.714  54.605  1.00  0.00     0.004 A 
HETATM    9  C   UNL     1       7.791  24.286  53.306  1.00  0.00     0.043 A 
HETATM   10  C   UNL     1       7.392  23.739  55.618  1.00  0.00     0.014 A 
HETATM   11  C   UNL     1       7.972  22.938  52.971  1.00  0.00     0.030 A 
HETATM   12  N   UNL     1       7.842  25.406  52.509  1.00  0.00    -0.364 N 
HETATM   13  C   UNL     1       7.854  21.995  53.994  1.00  0.00     0.002 A 
HETATM   14  C   UNL     1       7.568  22.386  55.300  1.00  0.00     0.001 A 
HETATM   15  H   UNL     1       8.030  25.398  51.516  1.00  0.00     0.165 HD
HETATM   16  C   UNL     1       7.591  26.523  53.253  1.00  0.00     0.102 A 
ENDBRANCH   6   7
ENDBRANCH   2   5
BRANCH   1  17
HETATM   17  C   UNL     1       7.786  30.712  58.405  1.00  0.00     0.280 C 
BRANCH  17  18
HETATM   18  O   UNL     1       8.255  30.378  59.709  1.00  0.00    -0.342 OA
BRANCH  18  19
HETATM   19  C   UNL     1       7.851  31.249  60.694  1.00  0.00     0.075 A 
HETATM   20  C   UNL     1       8.504  31.153  61.933  1.00  0.00    -0.028 A 
HETATM   21  C   UNL     1       8.151  32.039  62.966  1.00  0.00     0.016 A 
HETATM   22  C   UNL     1       9.615  30.166  62.153  1.00  0.00     0.051 C 
HETATM   23  C   UNL     1       7.134  32.986  62.790  1.00  0.00    -0.061 A 
HETATM   24  C   UNL     1       6.785  33.955  63.881  1.00  0.00     0.048 C 
HETATM   25  C   UNL     1       6.477  33.052  61.559  1.00  0.00     0.009 A 
HETATM   26  C   UNL     1       6.826  32.184  60.522  1.00  0.00     0.038 A 
ENDBRANCH  18  19
ENDBRANCH  17  18
ENDBRANCH   1  17
TORSDOF 5
ENDMDL
MODEL 7
REMARK VINA RESULT:      -8.4      6.507     10.021
REMARK  5 active torsions:
REMARK  status: ('A' for Active; 'I' for Inactive)
REMARK    1  A    between atoms: C_6  and  O_7 
REMARK    2  A    between atoms: O_7  and  C_8 
REMARK    3  A    between atoms: C_8  and  C_9 
REMARK       I    between atoms: C_9  and  N_10 
REMARK    4  A    between atoms: N_10  and  N_11 
REMARK    5  A    between atoms: C_12  and  C_13 
ROOT
HETATM    1  C   UNL     1       5.421  27.001  54.593  1.00  0.00     0.261 C 
HETATM    2  N   UNL     1       5.475  26.596  53.268  1.00  0.00    -0.246 N 
HETATM    3  O   UNL     1       4.652  27.849  55.047  1.00  0.00    -0.269 OA
HETATM    4  H   UNL     1       6.165  25.908  52.980  1.00  0.00     0.192 HD
ENDROOT
BRANCH   2   5
HETATM    5  N   UNL     1       4.622  27.158  52.365  1.00  0.00    -0.184 NA
HETATM    6  C   UNL     1       5.060  27.307  51.158  1.00  0.00     0.152 C 
BRANCH   6   7
HETATM    7  C   UNL     1       4.178  27.888  50.164  1.00  0.00     0.011 A 
HETATM    8  C   UNL     1       3.550  27.239  49.051  1.00  0.00     0.004 A 
HETATM    9  C   UNL     1       2.785  28.201  48.386  1.00  0.00     0.043 A 
HETATM   10  C   UNL     1       3.546  25.921  48.548  1.00  0.00     0.014 A 
HETATM   11  C   UNL     1       2.022  27.914  47.248  1.00  0.00     0.030 A 
HETATM   12  N   UNL     1       2.946  29.388  49.062  1.00  0.00    -0.364 N 
HETATM   13  C   UNL     1       2.036  26.601  46.772  1.00  0.00     0.002 A 
HETATM   14  C   UNL     1       2.785  25.616  47.412  1.00  0.00     0.001 A 
HETATM   15  H   UNL     1       2.505  30.261  48.805  1.00  0.00     0.165 HD
HETATM   16  C   UNL     1       3.776  29.211  50.131  1.00  0.00     0.102 A 
ENDBRANCH   6   7
ENDBRANCH   2   5
BRANCH   1  17
HETATM   17  C   UNL     1       6.349  26.211  55.510  1.00  0.00     0.280 C 
BRANCH  17  18
HETATM   18  O   UNL     1       7.559  25.834  54.858  1.00  0.00    -0.342 OA
BRANCH  18  19
HETATM   19  C   UNL     1       7.674  24.484  54.618  1.00  0.00     0.075 A 
HETATM   20  C   UNL     1       7.921  24.095  53.292  1.00  0.00    -0.028 A 
HETATM   21  C   UNL     1       8.075  22.729  52.995  1.00  0.00     0.016 A 
HETATM   22  C   UNL     1       8.087  25.113  52.200  1.00  0.00     0.051 C 
HETATM   23  C   UNL     1       7.947  21.753  53.992  1.00  0.00    -0.061 A 
HETATM   24  C   UNL     1       8.149  20.300  53.680  1.00  0.00     0.048 C 
HETATM   25  C   UNL     1       7.676  22.157  55.302  1.00  0.00     0.009 A 
HETATM   26  C   UNL     1       7.531  23.511  55.611  1.00  0.00     0.038 A 
ENDBRANCH  18  19
ENDBRANCH  17  18
ENDBRANCH   1  17
TORSDOF 5
ENDMDL
MODEL 8
REMARK VINA RESULT:      -8.3      7.492     10.988
REMARK  5 active torsions:
REMARK  status: ('A' for Active; 'I' for Inactive)
REMARK    1  A    between atoms: C_6  and  O_7 
REMARK    2  A    between atoms: O_7  and  C_8 
REMARK    3  A    between atoms: C_8  and  C_9 
REMARK       I    between atoms: C_9  and  N_10 
REMARK    4  A    between atoms: N_10  and  N_11 
REMARK    5  A    between atoms: C_12  and  C_13 
ROOT
HETATM    1  C   UNL     1       5.451  27.566  50.750  1.00  0.00     0.261 C 
HETATM    2  N   UNL     1       5.914  26.263  50.860  1.00  0.00    -0.246 N 
HETATM    3  O   UNL     1       5.458  28.402  51.654  1.00  0.00    -0.269 OA
HETATM    4  H   UNL     1       5.841  25.635  50.065  1.00  0.00     0.192 HD
ENDROOT
BRANCH   2   5
HETATM    5  N   UNL     1       6.427  25.837  52.049  1.00  0.00    -0.184 NA
HETATM    6  C   UNL     1       6.896  24.634  52.088  1.00  0.00     0.152 C 
BRANCH   6   7
HETATM    7  C   UNL     1       7.463  24.148  53.331  1.00  0.00     0.011 A 
HETATM    8  C   UNL     1       7.868  22.812  53.655  1.00  0.00     0.004 A 
HETATM    9  C   UNL     1       8.366  22.833  54.961  1.00  0.00     0.043 A 
HETATM   10  C   UNL     1       7.873  21.583  52.961  1.00  0.00     0.014 A 
HETATM   11  C   UNL     1       8.863  21.693  55.606  1.00  0.00     0.030 A 
HETATM   12  N   UNL     1       8.262  24.127  55.416  1.00  0.00    -0.364 N 
HETATM   13  C   UNL     1       8.856  20.492  54.894  1.00  0.00     0.002 A 
HETATM   14  C   UNL     1       8.370  20.434  53.591  1.00  0.00     0.001 A 
HETATM   15  H   UNL     1       8.549  24.440  56.333  1.00  0.00     0.165 HD
HETATM   16  C   UNL     1       7.726  24.924  54.446  1.00  0.00     0.102 A 
ENDBRANCH   6   7
ENDBRANCH   2   5
BRANCH   1  17
HETATM   17  C   UNL     1       5.011  27.940  49.339  1.00  0.00     0.280 C 
BRANCH  17  18
HETATM   18  O   UNL     1       3.915  28.852  49.338  1.00  0.00    -0.342 OA
BRANCH  18  19
HETATM   19  C   UNL     1       2.896  28.508  48.480  1.00  0.00     0.075 A 
HETATM   20  C   UNL     1       2.388  29.525  47.658  1.00  0.00    -0.028 A 
HETATM   21  C   UNL     1       1.365  29.221  46.742  1.00  0.00     0.016 A 
HETATM   22  C   UNL     1       2.961  30.914  47.693  1.00  0.00     0.051 C 
HETATM   23  C   UNL     1       0.821  27.933  46.667  1.00  0.00    -0.061 A 
HETATM   24  C   UNL     1      -0.244  27.601  45.663  1.00  0.00     0.048 C 
HETATM   25  C   UNL     1       1.321  26.937  47.511  1.00  0.00     0.009 A 
HETATM   26  C   UNL     1       2.344  27.225  48.417  1.00  0.00     0.038 A 
ENDBRANCH  18  19
ENDBRANCH  17  18
ENDBRANCH   1  17
TORSDOF 5
ENDMDL
MODEL 9
REMARK VINA RESULT:      -8.2      7.468     11.232
REMARK  5 active torsions:
REMARK  status: ('A' for Active; 'I' for Inactive)
REMARK    1  A    between atoms: C_6  and  O_7 
REMARK    2  A    between atoms: O_7  and  C_8 
REMARK    3  A    between atoms: C_8  and  C_9 
REMARK       I    between atoms: C_9  and  N_10 
REMARK    4  A    between atoms: N_10  and  N_11 
REMARK    5  A    between atoms: C_12  and  C_13 
ROOT
HETATM    1  C   UNL     1       5.792  26.450  51.523  1.00  0.00     0.261 C 
HETATM    2  N   UNL     1       5.622  26.424  50.146  1.00  0.00    -0.246 N 
HETATM    3  O   UNL     1       5.129  27.128  52.308  1.00  0.00    -0.269 OA
HETATM    4  H   UNL     1       6.238  25.854  49.574  1.00  0.00     0.192 HD
ENDROOT
BRANCH   2   5
HETATM    5  N   UNL     1       4.650  27.195  49.580  1.00  0.00    -0.184 NA
HETATM    6  C   UNL     1       5.024  28.039  48.676  1.00  0.00     0.152 C 
BRANCH   6   7
HETATM    7  C   UNL     1       4.018  28.868  48.040  1.00  0.00     0.011 A 
HETATM    8  C   UNL     1       2.763  28.463  47.479  1.00  0.00     0.004 A 
HETATM    9  C   UNL     1       2.134  29.613  46.994  1.00  0.00     0.043 A 
HETATM   10  C   UNL     1       2.091  27.230  47.346  1.00  0.00     0.014 A 
HETATM   11  C   UNL     1       0.874  29.591  46.383  1.00  0.00     0.030 A 
HETATM   12  N   UNL     1       2.973  30.673  47.243  1.00  0.00    -0.364 N 
HETATM   13  C   UNL     1       0.231  28.357  46.266  1.00  0.00     0.002 A 
HETATM   14  C   UNL     1       0.828  27.192  46.740  1.00  0.00     0.001 A 
HETATM   15  H   UNL     1       2.775  31.634  47.000  1.00  0.00     0.165 HD
HETATM   16  C   UNL     1       4.104  30.239  47.872  1.00  0.00     0.102 A 
ENDBRANCH   6   7
ENDBRANCH   2   5
BRANCH   1  17
HETATM   17  C   UNL     1       6.833  25.458  52.027  1.00  0.00     0.280 C 
BRANCH  17  18
HETATM   18  O   UNL     1       6.617  25.092  53.388  1.00  0.00    -0.342 OA
BRANCH  18  19
HETATM   19  C   UNL     1       7.140  23.868  53.734  1.00  0.00     0.075 A 
HETATM   20  C   UNL     1       7.194  23.565  55.104  1.00  0.00    -0.028 A 
HETATM   21  C   UNL     1       7.693  22.314  55.510  1.00  0.00     0.016 A 
HETATM   22  C   UNL     1       6.671  24.524  56.135  1.00  0.00     0.051 C 
HETATM   23  C   UNL     1       8.170  21.387  54.575  1.00  0.00    -0.061 A 
HETATM   24  C   UNL     1       8.666  20.039  55.009  1.00  0.00     0.048 C 
HETATM   25  C   UNL     1       8.132  21.715  53.218  1.00  0.00     0.009 A 
HETATM   26  C   UNL     1       7.629  22.950  52.800  1.00  0.00     0.038 A 
ENDBRANCH  18  19
ENDBRANCH  17  18
ENDBRANCH   1  17
TORSDOF 5
ENDMDL
MODEL 10
REMARK VINA RESULT:      -7.9      2.288      9.561
REMARK  5 active torsions:
REMARK  status: ('A' for Active; 'I' for Inactive)
REMARK    1  A    between atoms: C_6  and  O_7 
REMARK    2  A    between atoms: O_7  and  C_8 
REMARK    3  A    between atoms: C_8  and  C_9 
REMARK       I    between atoms: C_9  and  N_10 
REMARK    4  A    between atoms: N_10  and  N_11 
REMARK    5  A    between atoms: C_12  and  C_13 
ROOT
HETATM    1  C   UNL     1       6.275  28.909  55.711  1.00  0.00     0.261 C 
HETATM    2  N   UNL     1       7.122  28.481  56.723  1.00  0.00    -0.246 N 
HETATM    3  O   UNL     1       5.487  29.851  55.793  1.00  0.00    -0.269 OA
HETATM    4  H   UNL     1       7.718  27.673  56.572  1.00  0.00     0.192 HD
ENDROOT
BRANCH   2   5
HETATM    5  N   UNL     1       7.110  29.134  57.920  1.00  0.00    -0.184 NA
HETATM    6  C   UNL     1       8.070  29.970  58.141  1.00  0.00     0.152 C 
BRANCH   6   7
HETATM    7  C   UNL     1       8.086  30.695  59.397  1.00  0.00     0.011 A 
HETATM    8  C   UNL     1       7.151  31.675  59.864  1.00  0.00     0.004 A 
HETATM    9  C   UNL     1       7.574  32.083  61.132  1.00  0.00     0.043 A 
HETATM   10  C   UNL     1       5.975  32.251  59.338  1.00  0.00     0.014 A 
HETATM   11  C   UNL     1       6.885  33.033  61.896  1.00  0.00     0.030 A 
HETATM   12  N   UNL     1       8.722  31.384  61.423  1.00  0.00    -0.364 N 
HETATM   13  C   UNL     1       5.724  33.585  61.351  1.00  0.00     0.002 A 
HETATM   14  C   UNL     1       5.273  33.201  60.090  1.00  0.00     0.001 A 
HETATM   15  H   UNL     1       9.250  31.475  62.281  1.00  0.00     0.165 HD
HETATM   16  C   UNL     1       9.036  30.547  60.392  1.00  0.00     0.102 A 
ENDBRANCH   6   7
ENDBRANCH   2   5
BRANCH   1  17
HETATM   17  C   UNL     1       6.473  28.164  54.395  1.00  0.00     0.280 C 
BRANCH  17  18
HETATM   18  O   UNL     1       5.638  27.012  54.294  1.00  0.00    -0.342 OA
BRANCH  18  19
HETATM   19  C   UNL     1       6.310  25.853  53.983  1.00  0.00     0.075 A 
HETATM   20  C   UNL     1       6.343  24.855  54.970  1.00  0.00    -0.028 A 
HETATM   21  C   UNL     1       6.992  23.639  54.693  1.00  0.00     0.016 A 
HETATM   22  C   UNL     1       5.645  25.039  56.287  1.00  0.00     0.051 C 
HETATM   23  C   UNL     1       7.636  23.424  53.468  1.00  0.00    -0.061 A 
HETATM   24  C   UNL     1       8.295  22.113  53.162  1.00  0.00     0.048 C 
HETATM   25  C   UNL     1       7.615  24.438  52.507  1.00  0.00     0.009 A 
HETATM   26  C   UNL     1       6.965  25.647  52.766  1.00  0.00     0.038 A 
ENDBRANCH  18  19
ENDBRANCH  17  18
ENDBRANCH   1  17
TORSDOF 5
ENDMDL
