MODEL 1
REMARK VINA RESULT:      -8.7      0.000      0.000
REMARK  3 active torsions:
REMARK  status: ('A' for Active; 'I' for Inactive)
REMARK    1  A    between atoms: C_2  and  C_3 
REMARK    2  A    between atoms: C_7  and  N_8 
REMARK       I    between atoms: N_8  and  C_9 
REMARK    3  A    between atoms: C_9  and  C_10 
ROOT
HETATM    1  N   UNL     1       5.831  26.647  50.466  1.00  0.00    -0.311 N 
HETATM    2  C   UNL     1       5.870  25.829  51.584  1.00  0.00     0.234 C 
HETATM    3  O   UNL     1       4.926  25.128  51.954  1.00  0.00    -0.272 OA
HETATM    4  H   UNL     1       6.643  27.199  50.209  1.00  0.00     0.170 HD
ENDROOT
BRANCH   2   5
HETATM    5  C   UNL     1       7.195  25.795  52.329  1.00  0.00     0.138 C 
HETATM    6  C   UNL     1       7.450  24.548  53.099  1.00  0.00    -0.008 A 
HETATM    7  C   UNL     1       7.310  24.811  54.454  1.00  0.00     0.076 A 
HETATM    8  C   UNL     1       7.733  23.269  52.648  1.00  0.00     0.030 A 
HETATM    9  C   UNL     1       7.437  23.823  55.408  1.00  0.00     0.039 A 
HETATM   10  O   UNL     1       6.988  26.111  54.732  1.00  0.00    -0.349 OA
HETATM   11  C   UNL     1       7.729  22.528  54.973  1.00  0.00     0.022 A 
HETATM   12  C   UNL     1       7.875  22.258  53.603  1.00  0.00     0.011 A 
HETATM   13 BR   UNL     1       8.255  20.494  53.038  1.00  0.00    -0.051 Br
HETATM   14  C   UNL     1       7.209  26.808  53.478  1.00  0.00     0.194 C 
ENDBRANCH   2   5
BRANCH   1  15
HETATM   15  C   UNL     1       4.691  26.785  49.700  1.00  0.00     0.126 A 
HETATM   16  N   UNL     1       3.626  27.585  50.025  1.00  0.00    -0.262 N 
HETATM   17  N   UNL     1       2.635  27.556  49.116  1.00  0.00    -0.178 NA
HETATM   18  H   UNL     1       3.535  28.166  50.854  1.00  0.00     0.191 HD
HETATM   19  C   UNL     1       3.087  26.717  48.176  1.00  0.00     0.058 A 
HETATM   20  C   UNL     1       4.365  26.201  48.501  1.00  0.00     0.079 A 
BRANCH  19  21
HETATM   21  C   UNL     1       2.264  26.430  46.965  1.00  0.00     0.056 C 
HETATM   22  C   UNL     1       0.982  27.249  46.931  1.00  0.00     0.011 C 
ENDBRANCH  19  21
ENDBRANCH   1  15
TORSDOF 3
ENDMDL
MODEL 2
REMARK VINA RESULT:      -8.6      4.595      7.330
REMARK  3 active torsions:
REMARK  status: ('A' for Active; 'I' for Inactive)
REMARK    1  A    between atoms: C_2  and  C_3 
REMARK    2  A    between atoms: C_7  and  N_8 
REMARK       I    between atoms: N_8  and  C_9 
REMARK    3  A    between atoms: C_9  and  C_10 
ROOT
HETATM    1  N   UNL     1       7.173  27.190  55.956  1.00  0.00    -0.311 N 
HETATM    2  C   UNL     1       6.776  25.968  56.472  1.00  0.00     0.234 C 
HETATM    3  O   UNL     1       6.964  25.624  57.641  1.00  0.00    -0.272 OA
HETATM    4  H   UNL     1       6.987  27.419  54.984  1.00  0.00     0.170 HD
ENDROOT
BRANCH   2   5
HETATM    5  C   UNL     1       6.025  25.059  55.512  1.00  0.00     0.138 C 
HETATM    6  C   UNL     1       6.836  23.961  54.922  1.00  0.00    -0.008 A 
HETATM    7  C   UNL     1       7.100  24.252  53.592  1.00  0.00     0.076 A 
HETATM    8  C   UNL     1       7.349  22.819  55.516  1.00  0.00     0.030 A 
HETATM    9  C   UNL     1       7.882  23.432  52.804  1.00  0.00     0.039 A 
HETATM   10  O   UNL     1       6.559  25.436  53.170  1.00  0.00    -0.349 OA
HETATM   11  C   UNL     1       8.402  22.272  53.383  1.00  0.00     0.022 A 
HETATM   12  C   UNL     1       8.135  21.973  54.729  1.00  0.00     0.011 A 
HETATM   13 BR   UNL     1       8.864  20.404  55.494  1.00  0.00    -0.051 Br
HETATM   14  C   UNL     1       5.641  25.806  54.231  1.00  0.00     0.194 C 
ENDBRANCH   2   5
BRANCH   1  15
HETATM   15  C   UNL     1       7.873  28.111  56.710  1.00  0.00     0.126 A 
HETATM   16  N   UNL     1       7.594  28.422  58.015  1.00  0.00    -0.262 N 
HETATM   17  N   UNL     1       8.421  29.345  58.537  1.00  0.00    -0.178 NA
HETATM   18  H   UNL     1       6.851  28.028  58.588  1.00  0.00     0.191 HD
HETATM   19  C   UNL     1       9.262  29.626  57.533  1.00  0.00     0.058 A 
HETATM   20  C   UNL     1       8.953  28.885  56.365  1.00  0.00     0.079 A 
BRANCH  19  21
HETATM   21  C   UNL     1      10.363  30.614  57.726  1.00  0.00     0.056 C 
HETATM   22  C   UNL     1       9.995  31.700  58.727  1.00  0.00     0.011 C 
ENDBRANCH  19  21
ENDBRANCH   1  15
TORSDOF 3
ENDMDL
MODEL 3
REMARK VINA RESULT:      -8.0      5.005      7.049
REMARK  3 active torsions:
REMARK  status: ('A' for Active; 'I' for Inactive)
REMARK    1  A    between atoms: C_2  and  C_3 
REMARK    2  A    between atoms: C_7  and  N_8 
REMARK       I    between atoms: N_8  and  C_9 
REMARK    3  A    between atoms: C_9  and  C_10 
ROOT
HETATM    1  N   UNL     1       6.677  25.190  54.435  1.00  0.00    -0.311 N 
HETATM    2  C   UNL     1       7.198  26.276  53.751  1.00  0.00     0.234 C 
HETATM    3  O   UNL     1       8.030  26.181  52.846  1.00  0.00    -0.272 OA
HETATM    4  H   UNL     1       5.991  25.330  55.170  1.00  0.00     0.170 HD
ENDROOT
BRANCH   2   5
HETATM    5  C   UNL     1       6.638  27.633  54.145  1.00  0.00     0.138 C 
HETATM    6  C   UNL     1       7.278  28.255  55.334  1.00  0.00    -0.008 A 
HETATM    7  C   UNL     1       6.407  28.184  56.411  1.00  0.00     0.076 A 
HETATM    8  C   UNL     1       8.545  28.797  55.478  1.00  0.00     0.030 A 
HETATM    9  C   UNL     1       6.757  28.637  57.667  1.00  0.00     0.039 A 
HETATM   10  O   UNL     1       5.214  27.583  56.116  1.00  0.00    -0.349 OA
HETATM   11  C   UNL     1       8.028  29.193  57.830  1.00  0.00     0.022 A 
HETATM   12  C   UNL     1       8.911  29.270  56.742  1.00  0.00     0.011 A 
HETATM   13 BR   UNL     1      10.632  30.013  56.992  1.00  0.00    -0.051 Br
HETATM   14  C   UNL     1       5.203  27.508  54.666  1.00  0.00     0.194 C 
ENDBRANCH   2   5
BRANCH   1  15
HETATM   15  C   UNL     1       7.101  23.899  54.190  1.00  0.00     0.126 A 
HETATM   16  N   UNL     1       7.319  23.374  52.942  1.00  0.00    -0.262 N 
HETATM   17  N   UNL     1       7.734  22.095  52.962  1.00  0.00    -0.178 NA
HETATM   18  H   UNL     1       7.198  23.853  52.053  1.00  0.00     0.191 HD
HETATM   19  C   UNL     1       7.792  21.797  54.265  1.00  0.00     0.058 A 
HETATM   20  C   UNL     1       7.396  22.890  55.074  1.00  0.00     0.079 A 
BRANCH  19  21
HETATM   21  C   UNL     1       8.238  20.444  54.710  1.00  0.00     0.056 C 
HETATM   22  C   UNL     1       8.148  20.274  56.219  1.00  0.00     0.011 C 
ENDBRANCH  19  21
ENDBRANCH   1  15
TORSDOF 3
ENDMDL
MODEL 4
REMARK VINA RESULT:      -7.8      5.714      7.502
REMARK  3 active torsions:
REMARK  status: ('A' for Active; 'I' for Inactive)
REMARK    1  A    between atoms: C_2  and  C_3 
REMARK    2  A    between atoms: C_7  and  N_8 
REMARK       I    between atoms: N_8  and  C_9 
REMARK    3  A    between atoms: C_9  and  C_10 
ROOT
HETATM    1  N   UNL     1       7.466  25.395  55.019  1.00  0.00    -0.311 N 
HETATM    2  C   UNL     1       6.452  26.014  55.731  1.00  0.00     0.234 C 
HETATM    3  O   UNL     1       5.747  25.437  56.563  1.00  0.00    -0.272 OA
HETATM    4  H   UNL     1       8.016  25.923  54.349  1.00  0.00     0.170 HD
ENDROOT
BRANCH   2   5
HETATM    5  C   UNL     1       6.276  27.502  55.471  1.00  0.00     0.138 C 
HETATM    6  C   UNL     1       7.165  28.388  56.267  1.00  0.00    -0.008 A 
HETATM    7  C   UNL     1       6.419  29.020  57.250  1.00  0.00     0.076 A 
HETATM    8  C   UNL     1       8.533  28.589  56.172  1.00  0.00     0.030 A 
HETATM    9  C   UNL     1       6.995  29.865  58.177  1.00  0.00     0.039 A 
HETATM   10  O   UNL     1       5.093  28.683  57.237  1.00  0.00    -0.349 OA
HETATM   11  C   UNL     1       8.372  30.085  58.093  1.00  0.00     0.022 A 
HETATM   12  C   UNL     1       9.131  29.450  57.097  1.00  0.00     0.011 A 
HETATM   13 BR   UNL     1      10.996  29.752  57.015  1.00  0.00    -0.051 Br
HETATM   14  C   UNL     1       4.915  27.993  55.973  1.00  0.00     0.194 C 
ENDBRANCH   2   5
BRANCH   1  15
HETATM   15  C   UNL     1       7.731  24.046  55.146  1.00  0.00     0.126 A 
HETATM   16  N   UNL     1       8.129  23.436  56.308  1.00  0.00    -0.262 N 
HETATM   17  N   UNL     1       8.321  22.111  56.181  1.00  0.00    -0.178 NA
HETATM   18  H   UNL     1       8.280  23.885  57.208  1.00  0.00     0.191 HD
HETATM   19  C   UNL     1       8.026  21.866  54.899  1.00  0.00     0.058 A 
HETATM   20  C   UNL     1       7.661  23.047  54.207  1.00  0.00     0.079 A 
BRANCH  19  21
HETATM   21  C   UNL     1       8.102  20.476  54.361  1.00  0.00     0.056 C 
HETATM   22  C   UNL     1       8.205  20.450  52.843  1.00  0.00     0.011 C 
ENDBRANCH  19  21
ENDBRANCH   1  15
TORSDOF 3
ENDMDL
MODEL 5
REMARK VINA RESULT:      -7.4      4.324      7.290
REMARK  3 active torsions:
REMARK  status: ('A' for Active; 'I' for Inactive)
REMARK    1  A    between atoms: C_2  and  C_3 
REMARK    2  A    between atoms: C_7  and  N_8 
REMARK       I    between atoms: N_8  and  C_9 
REMARK    3  A    between atoms: C_9  and  C_10 
ROOT
HETATM    1  N   UNL     1       6.384  28.077  55.946  1.00  0.00    -0.311 N 
HETATM    2  C   UNL     1       6.207  26.720  56.163  1.00  0.00     0.234 C 
HETATM    3  O   UNL     1       6.586  26.133  57.178  1.00  0.00    -0.272 OA
HETATM    4  H   UNL     1       6.047  28.506  55.091  1.00  0.00     0.170 HD
ENDROOT
BRANCH   2   5
HETATM    5  C   UNL     1       5.451  25.973  55.076  1.00  0.00     0.138 C 
HETATM    6  C   UNL     1       6.270  25.018  54.284  1.00  0.00    -0.008 A 
HETATM    7  C   UNL     1       6.488  25.544  53.019  1.00  0.00     0.076 A 
HETATM    8  C   UNL     1       6.826  23.805  54.655  1.00  0.00     0.030 A 
HETATM    9  C   UNL     1       7.267  24.897  52.081  1.00  0.00     0.039 A 
HETATM   10  O   UNL     1       5.909  26.768  52.824  1.00  0.00    -0.349 OA
HETATM   11  C   UNL     1       7.830  23.668  52.436  1.00  0.00     0.022 A 
HETATM   12  C   UNL     1       7.609  23.131  53.714  1.00  0.00     0.011 A 
HETATM   13 BR   UNL     1       8.395  21.474  54.174  1.00  0.00    -0.051 Br
HETATM   14  C   UNL     1       5.013  26.921  53.956  1.00  0.00     0.194 C 
ENDBRANCH   2   5
BRANCH   1  15
HETATM   15  C   UNL     1       7.062  28.878  56.842  1.00  0.00     0.126 A 
HETATM   16  N   UNL     1       6.468  29.611  57.838  1.00  0.00    -0.262 N 
HETATM   17  N   UNL     1       7.341  30.308  58.587  1.00  0.00    -0.178 NA
HETATM   18  H   UNL     1       5.474  29.661  58.042  1.00  0.00     0.191 HD
HETATM   19  C   UNL     1       8.532  30.004  58.057  1.00  0.00     0.058 A 
HETATM   20  C   UNL     1       8.409  29.120  56.957  1.00  0.00     0.079 A 
BRANCH  19  21
HETATM   21  C   UNL     1       9.782  30.579  58.634  1.00  0.00     0.056 C 
HETATM   22  C   UNL     1      10.902  30.673  57.608  1.00  0.00     0.011 C 
ENDBRANCH  19  21
ENDBRANCH   1  15
TORSDOF 3
ENDMDL
MODEL 6
REMARK VINA RESULT:      -7.4      9.095     11.796
REMARK  3 active torsions:
REMARK  status: ('A' for Active; 'I' for Inactive)
REMARK    1  A    between atoms: C_2  and  C_3 
REMARK    2  A    between atoms: C_7  and  N_8 
REMARK       I    between atoms: N_8  and  C_9 
REMARK    3  A    between atoms: C_9  and  C_10 
ROOT
HETATM    1  N   UNL     1       7.584  30.957  60.533  1.00  0.00    -0.311 N 
HETATM    2  C   UNL     1       7.274  31.499  59.296  1.00  0.00     0.234 C 
HETATM    3  O   UNL     1       6.693  32.576  59.145  1.00  0.00    -0.272 OA
HETATM    4  H   UNL     1       8.068  30.067  60.594  1.00  0.00     0.170 HD
ENDROOT
BRANCH   2   5
HETATM    5  C   UNL     1       7.746  30.702  58.090  1.00  0.00     0.138 C 
HETATM    6  C   UNL     1       6.663  30.083  57.283  1.00  0.00    -0.008 A 
HETATM    7  C   UNL     1       6.650  28.715  57.506  1.00  0.00     0.076 A 
HETATM    8  C   UNL     1       5.725  30.677  56.454  1.00  0.00     0.030 A 
HETATM    9  C   UNL     1       5.711  27.887  56.927  1.00  0.00     0.039 A 
HETATM   10  O   UNL     1       7.612  28.292  58.382  1.00  0.00    -0.349 OA
HETATM   11  C   UNL     1       4.761  28.466  56.082  1.00  0.00     0.022 A 
HETATM   12  C   UNL     1       4.771  29.851  55.851  1.00  0.00     0.011 A 
HETATM   13 BR   UNL     1       3.466  30.614  54.716  1.00  0.00    -0.051 Br
HETATM   14  C   UNL     1       8.493  29.436  58.523  1.00  0.00     0.194 C 
ENDBRANCH   2   5
BRANCH   1  15
HETATM   15  C   UNL     1       7.208  31.566  61.713  1.00  0.00     0.126 A 
HETATM   16  N   UNL     1       5.924  31.612  62.192  1.00  0.00    -0.262 N 
HETATM   17  N   UNL     1       5.810  32.257  63.366  1.00  0.00    -0.178 NA
HETATM   18  H   UNL     1       5.097  31.216  61.751  1.00  0.00     0.191 HD
HETATM   19  C   UNL     1       7.064  32.627  63.651  1.00  0.00     0.058 A 
HETATM   20  C   UNL     1       7.974  32.226  62.642  1.00  0.00     0.079 A 
BRANCH  19  21
HETATM   21  C   UNL     1       7.364  33.368  64.911  1.00  0.00     0.056 C 
HETATM   22  C   UNL     1       6.124  34.022  65.504  1.00  0.00     0.011 C 
ENDBRANCH  19  21
ENDBRANCH   1  15
TORSDOF 3
ENDMDL
MODEL 7
REMARK VINA RESULT:      -7.3      5.070      7.153
REMARK  3 active torsions:
REMARK  status: ('A' for Active; 'I' for Inactive)
REMARK    1  A    between atoms: C_2  and  C_3 
REMARK    2  A    between atoms: C_7  and  N_8 
REMARK       I    between atoms: N_8  and  C_9 
REMARK    3  A    between atoms: C_9  and  C_10 
ROOT
HETATM    1  N   UNL     1       7.529  25.829  53.888  1.00  0.00    -0.311 N 
HETATM    2  C   UNL     1       6.465  26.401  54.565  1.00  0.00     0.234 C 
HETATM    3  O   UNL     1       5.655  25.759  55.238  1.00  0.00    -0.272 OA
HETATM    4  H   UNL     1       8.166  26.410  53.353  1.00  0.00     0.170 HD
ENDROOT
BRANCH   2   5
HETATM    5  C   UNL     1       6.368  27.916  54.482  1.00  0.00     0.138 C 
HETATM    6  C   UNL     1       7.138  28.653  55.518  1.00  0.00    -0.008 A 
HETATM    7  C   UNL     1       6.258  29.186  56.448  1.00  0.00     0.076 A 
HETATM    8  C   UNL     1       8.507  28.803  55.667  1.00  0.00     0.030 A 
HETATM    9  C   UNL     1       6.697  29.879  57.558  1.00  0.00     0.039 A 
HETATM   10  O   UNL     1       4.944  28.912  56.183  1.00  0.00    -0.349 OA
HETATM   11  C   UNL     1       8.074  30.047  57.721  1.00  0.00     0.022 A 
HETATM   12  C   UNL     1       8.968  29.511  56.781  1.00  0.00     0.011 A 
HETATM   13 BR   UNL     1      10.828  29.739  57.032  1.00  0.00    -0.051 Br
HETATM   14  C   UNL     1       4.955  28.399  54.825  1.00  0.00     0.194 C 
ENDBRANCH   2   5
BRANCH   1  15
HETATM   15  C   UNL     1       7.734  24.464  53.867  1.00  0.00     0.126 A 
HETATM   16  N   UNL     1       7.314  23.627  52.866  1.00  0.00    -0.262 N 
HETATM   17  N   UNL     1       7.638  22.338  53.069  1.00  0.00    -0.178 NA
HETATM   18  H   UNL     1       6.806  23.894  52.026  1.00  0.00     0.191 HD
HETATM   19  C   UNL     1       8.295  22.354  54.236  1.00  0.00     0.058 A 
HETATM   20  C   UNL     1       8.373  23.660  54.779  1.00  0.00     0.079 A 
BRANCH  19  21
HETATM   21  C   UNL     1       8.845  21.090  54.808  1.00  0.00     0.056 C 
HETATM   22  C   UNL     1       7.893  20.447  55.806  1.00  0.00     0.011 C 
ENDBRANCH  19  21
ENDBRANCH   1  15
TORSDOF 3
ENDMDL
MODEL 8
REMARK VINA RESULT:      -7.2      3.752      7.958
REMARK  3 active torsions:
REMARK  status: ('A' for Active; 'I' for Inactive)
REMARK    1  A    between atoms: C_2  and  C_3 
REMARK    2  A    between atoms: C_7  and  N_8 
REMARK       I    between atoms: N_8  and  C_9 
REMARK    3  A    between atoms: C_9  and  C_10 
ROOT
HETATM    1  N   UNL     1       5.484  26.204  50.238  1.00  0.00    -0.311 N 
HETATM    2  C   UNL     1       4.824  27.406  50.042  1.00  0.00     0.234 C 
HETATM    3  O   UNL     1       4.369  28.096  50.958  1.00  0.00    -0.272 OA
HETATM    4  H   UNL     1       5.840  25.681  49.444  1.00  0.00     0.170 HD
ENDROOT
BRANCH   2   5
HETATM    5  C   UNL     1       4.727  27.879  48.601  1.00  0.00     0.138 C 
HETATM    6  C   UNL     1       3.375  28.328  48.176  1.00  0.00    -0.008 A 
HETATM    7  C   UNL     1       2.819  27.376  47.336  1.00  0.00     0.076 A 
HETATM    8  C   UNL     1       2.663  29.461  48.537  1.00  0.00     0.030 A 
HETATM    9  C   UNL     1       1.542  27.502  46.829  1.00  0.00     0.039 A 
HETATM   10  O   UNL     1       3.632  26.298  47.112  1.00  0.00    -0.349 OA
HETATM   11  C   UNL     1       0.812  28.641  47.176  1.00  0.00     0.022 A 
HETATM   12  C   UNL     1       1.372  29.610  48.024  1.00  0.00     0.011 A 
HETATM   13 BR   UNL     1       0.356  31.135  48.492  1.00  0.00    -0.051 Br
HETATM   14  C   UNL     1       4.924  26.715  47.624  1.00  0.00     0.194 C 
ENDBRANCH   2   5
BRANCH   1  15
HETATM   15  C   UNL     1       5.636  25.649  51.492  1.00  0.00     0.126 A 
HETATM   16  N   UNL     1       4.614  25.439  52.382  1.00  0.00    -0.262 N 
HETATM   17  N   UNL     1       5.012  24.879  53.537  1.00  0.00    -0.178 NA
HETATM   18  H   UNL     1       3.632  25.662  52.240  1.00  0.00     0.191 HD
HETATM   19  C   UNL     1       6.331  24.717  53.377  1.00  0.00     0.058 A 
HETATM   20  C   UNL     1       6.771  25.192  52.117  1.00  0.00     0.079 A 
BRANCH  19  21
HETATM   21  C   UNL     1       7.151  24.094  54.457  1.00  0.00     0.056 C 
HETATM   22  C   UNL     1       7.627  22.697  54.088  1.00  0.00     0.011 C 
ENDBRANCH  19  21
ENDBRANCH   1  15
TORSDOF 3
ENDMDL
MODEL 9
REMARK VINA RESULT:      -7.1     11.160     13.382
REMARK  3 active torsions:
REMARK  status: ('A' for Active; 'I' for Inactive)
REMARK    1  A    between atoms: C_2  and  C_3 
REMARK    2  A    between atoms: C_7  and  N_8 
REMARK       I    between atoms: N_8  and  C_9 
REMARK    3  A    between atoms: C_9  and  C_10 
ROOT
HETATM    1  N   UNL     1       6.657  31.780  60.772  1.00  0.00    -0.311 N 
HETATM    2  C   UNL     1       5.620  32.618  60.396  1.00  0.00     0.234 C 
HETATM    3  O   UNL     1       5.549  33.170  59.296  1.00  0.00    -0.272 OA
HETATM    4  H   UNL     1       6.660  31.350  61.691  1.00  0.00     0.170 HD
ENDROOT
BRANCH   2   5
HETATM    5  C   UNL     1       4.508  32.789  61.419  1.00  0.00     0.138 C 
HETATM    6  C   UNL     1       4.816  33.726  62.531  1.00  0.00    -0.008 A 
HETATM    7  C   UNL     1       5.038  33.001  63.692  1.00  0.00     0.076 A 
HETATM    8  C   UNL     1       4.944  35.106  62.519  1.00  0.00     0.030 A 
HETATM    9  C   UNL     1       5.400  33.607  64.877  1.00  0.00     0.039 A 
HETATM   10  O   UNL     1       4.917  31.648  63.527  1.00  0.00    -0.349 OA
HETATM   11  C   UNL     1       5.527  34.999  64.886  1.00  0.00     0.022 A 
HETATM   12  C   UNL     1       5.300  35.738  63.714  1.00  0.00     0.011 A 
HETATM   13 BR   UNL     1       5.492  37.619  63.749  1.00  0.00    -0.051 Br
HETATM   14  C   UNL     1       4.295  31.503  62.224  1.00  0.00     0.194 C 
ENDBRANCH   2   5
BRANCH   1  15
HETATM   15  C   UNL     1       7.739  31.541  59.949  1.00  0.00     0.126 A 
HETATM   16  N   UNL     1       8.738  32.445  59.692  1.00  0.00    -0.262 N 
HETATM   17  N   UNL     1       9.687  31.976  58.862  1.00  0.00    -0.178 NA
HETATM   18  H   UNL     1       8.812  33.389  60.062  1.00  0.00     0.191 HD
HETATM   19  C   UNL     1       9.285  30.729  58.587  1.00  0.00     0.058 A 
HETATM   20  C   UNL     1       8.066  30.413  59.236  1.00  0.00     0.079 A 
BRANCH  19  21
HETATM   21  C   UNL     1      10.100  29.855  57.694  1.00  0.00     0.056 C 
HETATM   22  C   UNL     1       9.236  29.032  56.749  1.00  0.00     0.011 C 
ENDBRANCH  19  21
ENDBRANCH   1  15
TORSDOF 3
ENDMDL
MODEL 10
REMARK VINA RESULT:      -6.9      3.266      6.962
REMARK  3 active torsions:
REMARK  status: ('A' for Active; 'I' for Inactive)
REMARK    1  A    between atoms: C_2  and  C_3 
REMARK    2  A    between atoms: C_7  and  N_8 
REMARK       I    between atoms: N_8  and  C_9 
REMARK    3  A    between atoms: C_9  and  C_10 
ROOT
HETATM    1  N   UNL     1       5.200  26.018  52.778  1.00  0.00    -0.311 N 
HETATM    2  C   UNL     1       5.676  27.305  52.596  1.00  0.00     0.234 C 
HETATM    3  O   UNL     1       6.763  27.701  53.024  1.00  0.00    -0.272 OA
HETATM    4  H   UNL     1       4.298  25.748  52.398  1.00  0.00     0.170 HD
ENDROOT
BRANCH   2   5
HETATM    5  C   UNL     1       4.792  28.225  51.770  1.00  0.00     0.138 C 
HETATM    6  C   UNL     1       4.641  27.838  50.343  1.00  0.00    -0.008 A 
HETATM    7  C   UNL     1       5.369  28.715  49.552  1.00  0.00     0.076 A 
HETATM    8  C   UNL     1       3.962  26.770  49.780  1.00  0.00     0.030 A 
HETATM    9  C   UNL     1       5.458  28.566  48.183  1.00  0.00     0.039 A 
HETATM   10  O   UNL     1       6.017  29.688  50.263  1.00  0.00    -0.349 OA
HETATM   11  C   UNL     1       4.773  27.498  47.597  1.00  0.00     0.022 A 
HETATM   12  C   UNL     1       4.033  26.610  48.393  1.00  0.00     0.011 A 
HETATM   13 BR   UNL     1       3.128  25.164  47.577  1.00  0.00    -0.051 Br
HETATM   14  C   UNL     1       5.441  29.602  51.592  1.00  0.00     0.194 C 
ENDBRANCH   2   5
BRANCH   1  15
HETATM   15  C   UNL     1       5.892  25.078  53.515  1.00  0.00     0.126 A 
HETATM   16  N   UNL     1       6.021  25.099  54.880  1.00  0.00    -0.262 N 
HETATM   17  N   UNL     1       6.738  24.072  55.368  1.00  0.00    -0.178 NA
HETATM   18  H   UNL     1       5.635  25.793  55.515  1.00  0.00     0.191 HD
HETATM   19  C   UNL     1       7.071  23.367  54.280  1.00  0.00     0.058 A 
HETATM   20  C   UNL     1       6.573  23.962  53.095  1.00  0.00     0.079 A 
BRANCH  19  21
HETATM   21  C   UNL     1       7.871  22.114  54.409  1.00  0.00     0.056 C 
HETATM   22  C   UNL     1       9.290  22.383  54.889  1.00  0.00     0.011 C 
ENDBRANCH  19  21
ENDBRANCH   1  15
TORSDOF 3
ENDMDL
