MODEL 1
REMARK VINA RESULT:      -9.7      0.000      0.000
REMARK  7 active torsions:
REMARK  status: ('A' for Active; 'I' for Inactive)
REMARK    1  A    between atoms: C_2  and  N_3 
REMARK    2  A    between atoms: C_2  and  C_10 
REMARK    3  A    between atoms: N_11  and  C_12 
REMARK    4  A    between atoms: C_19  and  S_20 
REMARK    5  A    between atoms: S_20  and  C_21 
REMARK    6  A    between atoms: C_21  and  C_22 
REMARK    7  A    between atoms: C_21  and  C_28 
REMARK       I    between atoms: C_22  and  N_23 
REMARK       I    between atoms: N_23  and  C_24 
REMARK       I    between atoms: C_24  and  N_25 
ROOT
HETATM    1  C   UNL     1       7.877  28.011  57.149  1.00  0.00     0.166 A 
HETATM    2  N   UNL     1       6.948  27.273  56.421  1.00  0.00    -0.274 N 
HETATM    3  C   UNL     1       6.833  26.089  57.127  1.00  0.00     0.197 A 
HETATM    4  N   UNL     1       7.662  26.091  58.144  1.00  0.00    -0.122 NA
HETATM    5  N   UNL     1       8.324  27.284  58.154  1.00  0.00    -0.131 NA
ENDROOT
BRANCH   3   6
HETATM    6  S   UNL     1       5.860  24.750  56.631  1.00  0.00    -0.070 SA
BRANCH   6   7
HETATM    7  C   UNL     1       6.952  23.812  55.487  1.00  0.00     0.180 C 
BRANCH   7   8
HETATM    8  C   UNL     1       8.394  23.648  56.023  1.00  0.00     0.244 C 
HETATM    9  N   UNL     1       9.033  22.436  55.835  1.00  0.00    -0.278 N 
HETATM   10  C   UNL     1       8.434  21.207  55.918  1.00  0.00     0.320 C 
HETATM   11  H   UNL     1       9.980  22.450  56.175  1.00  0.00     0.173 HD
HETATM   12  N   UNL     1       9.316  20.175  55.850  1.00  0.00    -0.352 N 
HETATM   13  O   UNL     1       7.235  20.992  55.991  1.00  0.00    -0.247 OA
HETATM   14  H   UNL     1      10.292  20.261  56.086  1.00  0.00     0.160 HD
HETATM   15  H   UNL     1       8.910  19.250  55.941  1.00  0.00     0.160 HD
HETATM   16  O   UNL     1       9.008  24.511  56.666  1.00  0.00    -0.271 OA
ENDBRANCH   7   8
BRANCH   7  17
HETATM   17  C   UNL     1       6.835  24.330  54.060  1.00  0.00    -0.035 A 
HETATM   18  C   UNL     1       5.557  24.591  53.533  1.00  0.00     0.009 A 
HETATM   19  C   UNL     1       5.399  25.076  52.234  1.00  0.00     0.001 A 
HETATM   20  C   UNL     1       6.517  25.310  51.440  1.00  0.00     0.000 A 
HETATM   21  C   UNL     1       7.791  25.064  51.945  1.00  0.00     0.001 A 
HETATM   22  C   UNL     1       7.951  24.581  53.247  1.00  0.00     0.009 A 
ENDBRANCH   7  17
ENDBRANCH   6   7
ENDBRANCH   3   6
BRANCH   2  23
HETATM   23  C   UNL     1       6.239  27.702  55.269  1.00  0.00     0.043 A 
HETATM   24  C   UNL     1       6.942  28.002  54.091  1.00  0.00     0.033 A 
HETATM   25  C   UNL     1       6.245  28.443  52.965  1.00  0.00     0.044 A 
HETATM   26  C   UNL     1       4.862  28.579  53.016  1.00  0.00     0.116 A 
HETATM   27  F   UNL     1       4.202  29.008  51.935  1.00  0.00    -0.206 F 
HETATM   28  C   UNL     1       4.157  28.278  54.176  1.00  0.00     0.044 A 
HETATM   29  C   UNL     1       4.844  27.836  55.308  1.00  0.00     0.033 A 
ENDBRANCH   2  23
BRANCH   1  30
HETATM   30  C   UNL     1       8.202  29.458  56.947  1.00  0.00     0.255 C 
HETATM   31  C   UNL     1       9.529  29.628  56.202  1.00  0.00     0.049 C 
BRANCH  30  32
HETATM   32  N   UNL     1       8.236  30.293  58.244  1.00  0.00    -0.060 N 
HETATM   33  H   UNL     1       8.209  29.609  59.009  1.00  0.00     0.280 HD
HETATM   34  C   UNL     1       9.541  31.054  58.383  1.00  0.00     0.236 C 
HETATM   35  C   UNL     1       9.634  31.634  59.788  1.00  0.00     0.028 C 
HETATM   36  C   UNL     1       8.435  32.517  60.117  1.00  0.00     0.003 C 
HETATM   37  C   UNL     1       7.119  31.786  59.869  1.00  0.00     0.028 C 
HETATM   38  C   UNL     1       7.053  31.221  58.453  1.00  0.00     0.236 C 
ENDBRANCH  30  32
ENDBRANCH   1  30
TORSDOF 7
ENDMDL
MODEL 2
REMARK VINA RESULT:      -9.6      2.415      3.688
REMARK  7 active torsions:
REMARK  status: ('A' for Active; 'I' for Inactive)
REMARK    1  A    between atoms: C_2  and  N_3 
REMARK    2  A    between atoms: C_2  and  C_10 
REMARK    3  A    between atoms: N_11  and  C_12 
REMARK    4  A    between atoms: C_19  and  S_20 
REMARK    5  A    between atoms: S_20  and  C_21 
REMARK    6  A    between atoms: C_21  and  C_22 
REMARK    7  A    between atoms: C_21  and  C_28 
REMARK       I    between atoms: C_22  and  N_23 
REMARK       I    between atoms: N_23  and  C_24 
REMARK       I    between atoms: C_24  and  N_25 
ROOT
HETATM    1  C   UNL     1       8.130  28.506  56.995  1.00  0.00     0.166 A 
HETATM    2  N   UNL     1       6.880  28.075  56.559  1.00  0.00    -0.274 N 
HETATM    3  C   UNL     1       6.960  26.696  56.621  1.00  0.00     0.197 A 
HETATM    4  N   UNL     1       8.164  26.332  56.996  1.00  0.00    -0.122 NA
HETATM    5  N   UNL     1       8.900  27.459  57.219  1.00  0.00    -0.131 NA
ENDROOT
BRANCH   3   6
HETATM    6  S   UNL     1       5.704  25.624  56.113  1.00  0.00    -0.070 SA
BRANCH   6   7
HETATM    7  C   UNL     1       6.208  25.126  54.417  1.00  0.00     0.180 C 
BRANCH   7   8
HETATM    8  C   UNL     1       5.029  25.100  53.416  1.00  0.00     0.244 C 
HETATM    9  N   UNL     1       5.228  25.615  52.149  1.00  0.00    -0.278 N 
HETATM   10  C   UNL     1       5.974  26.726  51.857  1.00  0.00     0.320 C 
HETATM   11  H   UNL     1       4.418  25.505  51.562  1.00  0.00     0.173 HD
HETATM   12  N   UNL     1       5.878  27.111  50.557  1.00  0.00    -0.352 N 
HETATM   13  O   UNL     1       6.713  27.322  52.625  1.00  0.00    -0.247 OA
HETATM   14  H   UNL     1       5.098  26.876  49.963  1.00  0.00     0.160 HD
HETATM   15  H   UNL     1       6.393  27.950  50.313  1.00  0.00     0.160 HD
HETATM   16  O   UNL     1       3.887  24.699  53.684  1.00  0.00    -0.271 OA
ENDBRANCH   7   8
BRANCH   7  17
HETATM   17  C   UNL     1       7.079  23.877  54.441  1.00  0.00    -0.035 A 
HETATM   18  C   UNL     1       7.235  23.180  55.653  1.00  0.00     0.009 A 
HETATM   19  C   UNL     1       8.015  22.024  55.723  1.00  0.00     0.001 A 
HETATM   20  C   UNL     1       8.649  21.544  54.582  1.00  0.00     0.000 A 
HETATM   21  C   UNL     1       8.500  22.216  53.371  1.00  0.00     0.001 A 
HETATM   22  C   UNL     1       7.718  23.372  53.299  1.00  0.00     0.009 A 
ENDBRANCH   7  17
ENDBRANCH   6   7
ENDBRANCH   3   6
BRANCH   2  23
HETATM   23  C   UNL     1       5.773  28.894  56.216  1.00  0.00     0.043 A 
HETATM   24  C   UNL     1       4.896  29.334  57.219  1.00  0.00     0.033 A 
HETATM   25  C   UNL     1       3.796  30.123  56.877  1.00  0.00     0.044 A 
HETATM   26  C   UNL     1       3.579  30.468  55.548  1.00  0.00     0.116 A 
HETATM   27  F   UNL     1       2.519  31.220  55.227  1.00  0.00    -0.206 F 
HETATM   28  C   UNL     1       4.446  30.043  54.549  1.00  0.00     0.044 A 
HETATM   29  C   UNL     1       5.550  29.254  54.879  1.00  0.00     0.033 A 
ENDBRANCH   2  23
BRANCH   1  30
HETATM   30  C   UNL     1       8.506  29.914  57.332  1.00  0.00     0.255 C 
HETATM   31  C   UNL     1      10.010  30.143  57.155  1.00  0.00     0.049 C 
BRANCH  30  32
HETATM   32  N   UNL     1       8.084  30.370  58.745  1.00  0.00    -0.060 N 
HETATM   33  H   UNL     1       7.527  29.595  59.124  1.00  0.00     0.280 HD
HETATM   34  C   UNL     1       9.284  30.535  59.658  1.00  0.00     0.236 C 
HETATM   35  C   UNL     1       8.800  30.714  61.091  1.00  0.00     0.028 C 
HETATM   36  C   UNL     1       7.834  31.887  61.220  1.00  0.00     0.003 C 
HETATM   37  C   UNL     1       6.686  31.776  60.221  1.00  0.00     0.028 C 
HETATM   38  C   UNL     1       7.201  31.603  58.796  1.00  0.00     0.236 C 
ENDBRANCH  30  32
ENDBRANCH   1  30
TORSDOF 7
ENDMDL
MODEL 3
REMARK VINA RESULT:      -9.4      4.042      6.230
REMARK  7 active torsions:
REMARK  status: ('A' for Active; 'I' for Inactive)
REMARK    1  A    between atoms: C_2  and  N_3 
REMARK    2  A    between atoms: C_2  and  C_10 
REMARK    3  A    between atoms: N_11  and  C_12 
REMARK    4  A    between atoms: C_19  and  S_20 
REMARK    5  A    between atoms: S_20  and  C_21 
REMARK    6  A    between atoms: C_21  and  C_22 
REMARK    7  A    between atoms: C_21  and  C_28 
REMARK       I    between atoms: C_22  and  N_23 
REMARK       I    between atoms: N_23  and  C_24 
REMARK       I    between atoms: C_24  and  N_25 
ROOT
HETATM    1  C   UNL     1       6.666  28.391  55.583  1.00  0.00     0.166 A 
HETATM    2  N   UNL     1       6.074  27.632  54.577  1.00  0.00    -0.274 N 
HETATM    3  C   UNL     1       4.982  28.385  54.186  1.00  0.00     0.197 A 
HETATM    4  N   UNL     1       4.889  29.462  54.933  1.00  0.00    -0.122 NA
HETATM    5  N   UNL     1       5.932  29.462  55.813  1.00  0.00    -0.131 NA
ENDROOT
BRANCH   3   6
HETATM    6  S   UNL     1       3.825  27.884  53.005  1.00  0.00    -0.070 SA
BRANCH   6   7
HETATM    7  C   UNL     1       4.266  28.864  51.513  1.00  0.00     0.180 C 
BRANCH   7   8
HETATM    8  C   UNL     1       3.783  30.332  51.586  1.00  0.00     0.244 C 
HETATM    9  N   UNL     1       4.252  31.228  50.643  1.00  0.00    -0.278 N 
HETATM   10  C   UNL     1       5.527  31.252  50.144  1.00  0.00     0.320 C 
HETATM   11  H   UNL     1       3.840  32.140  50.748  1.00  0.00     0.173 HD
HETATM   12  N   UNL     1       5.773  32.329  49.353  1.00  0.00    -0.352 N 
HETATM   13  O   UNL     1       6.384  30.398  50.310  1.00  0.00    -0.247 OA
HETATM   14  H   UNL     1       5.253  33.191  49.408  1.00  0.00     0.160 HD
HETATM   15  H   UNL     1       6.719  32.396  48.992  1.00  0.00     0.160 HD
HETATM   16  O   UNL     1       3.041  30.785  52.469  1.00  0.00    -0.271 OA
ENDBRANCH   7   8
BRANCH   7  17
HETATM   17  C   UNL     1       3.912  28.116  50.235  1.00  0.00    -0.035 A 
HETATM   18  C   UNL     1       4.824  27.176  49.721  1.00  0.00     0.009 A 
HETATM   19  C   UNL     1       4.540  26.458  48.558  1.00  0.00     0.001 A 
HETATM   20  C   UNL     1       3.338  26.668  47.890  1.00  0.00     0.000 A 
HETATM   21  C   UNL     1       2.419  27.590  48.386  1.00  0.00     0.001 A 
HETATM   22  C   UNL     1       2.701  28.306  49.552  1.00  0.00     0.009 A 
ENDBRANCH   7  17
ENDBRANCH   6   7
ENDBRANCH   3   6
BRANCH   2  23
HETATM   23  C   UNL     1       6.556  26.410  54.042  1.00  0.00     0.043 A 
HETATM   24  C   UNL     1       7.406  26.426  52.925  1.00  0.00     0.033 A 
HETATM   25  C   UNL     1       7.864  25.221  52.388  1.00  0.00     0.044 A 
HETATM   26  C   UNL     1       7.476  24.016  52.963  1.00  0.00     0.116 A 
HETATM   27  F   UNL     1       7.914  22.865  52.439  1.00  0.00    -0.206 F 
HETATM   28  C   UNL     1       6.641  23.990  54.074  1.00  0.00     0.044 A 
HETATM   29  C   UNL     1       6.178  25.189  54.620  1.00  0.00     0.033 A 
ENDBRANCH   2  23
BRANCH   1  30
HETATM   30  C   UNL     1       8.007  28.143  56.197  1.00  0.00     0.255 C 
HETATM   31  C   UNL     1       7.949  26.994  57.208  1.00  0.00     0.049 C 
BRANCH  30  32
HETATM   32  N   UNL     1       8.643  29.379  56.867  1.00  0.00    -0.060 N 
HETATM   33  H   UNL     1       8.343  30.180  56.300  1.00  0.00     0.280 HD
HETATM   34  C   UNL     1       8.094  29.600  58.263  1.00  0.00     0.236 C 
HETATM   35  C   UNL     1       8.543  30.966  58.766  1.00  0.00     0.028 C 
HETATM   36  C   UNL     1      10.060  31.113  58.733  1.00  0.00     0.003 C 
HETATM   37  C   UNL     1      10.622  30.779  57.354  1.00  0.00     0.028 C 
HETATM   38  C   UNL     1      10.161  29.404  56.881  1.00  0.00     0.236 C 
ENDBRANCH  30  32
ENDBRANCH   1  30
TORSDOF 7
ENDMDL
MODEL 4
REMARK VINA RESULT:      -9.4      3.516      7.394
REMARK  7 active torsions:
REMARK  status: ('A' for Active; 'I' for Inactive)
REMARK    1  A    between atoms: C_2  and  N_3 
REMARK    2  A    between atoms: C_2  and  C_10 
REMARK    3  A    between atoms: N_11  and  C_12 
REMARK    4  A    between atoms: C_19  and  S_20 
REMARK    5  A    between atoms: S_20  and  C_21 
REMARK    6  A    between atoms: C_21  and  C_22 
REMARK    7  A    between atoms: C_21  and  C_28 
REMARK       I    between atoms: C_22  and  N_23 
REMARK       I    between atoms: N_23  and  C_24 
REMARK       I    between atoms: C_24  and  N_25 
ROOT
HETATM    1  C   UNL     1       5.090  28.885  52.580  1.00  0.00     0.166 A 
HETATM    2  N   UNL     1       5.222  27.847  53.498  1.00  0.00    -0.274 N 
HETATM    3  C   UNL     1       4.606  28.328  54.639  1.00  0.00     0.197 A 
HETATM    4  N   UNL     1       4.202  29.562  54.444  1.00  0.00    -0.122 NA
HETATM    5  N   UNL     1       4.512  29.916  53.164  1.00  0.00    -0.131 NA
ENDROOT
BRANCH   3   6
HETATM    6  S   UNL     1       4.539  27.479  56.142  1.00  0.00    -0.070 SA
BRANCH   6   7
HETATM    7  C   UNL     1       6.218  27.711  56.853  1.00  0.00     0.180 C 
BRANCH   7   8
HETATM    8  C   UNL     1       6.970  28.924  56.255  1.00  0.00     0.244 C 
HETATM    9  N   UNL     1       6.920  30.129  56.929  1.00  0.00    -0.278 N 
HETATM   10  C   UNL     1       5.821  30.623  57.582  1.00  0.00     0.320 C 
HETATM   11  H   UNL     1       7.480  30.837  56.484  1.00  0.00     0.173 HD
HETATM   12  N   UNL     1       5.989  31.897  58.024  1.00  0.00    -0.352 N 
HETATM   13  O   UNL     1       4.790  30.016  57.821  1.00  0.00    -0.247 OA
HETATM   14  H   UNL     1       6.652  32.543  57.625  1.00  0.00     0.160 HD
HETATM   15  H   UNL     1       5.182  32.307  58.484  1.00  0.00     0.160 HD
HETATM   16  O   UNL     1       7.575  28.912  55.173  1.00  0.00    -0.271 OA
ENDBRANCH   7   8
BRANCH   7  17
HETATM   17  C   UNL     1       6.996  26.402  56.879  1.00  0.00    -0.035 A 
HETATM   18  C   UNL     1       6.344  25.215  56.495  1.00  0.00     0.009 A 
HETATM   19  C   UNL     1       7.018  23.992  56.492  1.00  0.00     0.001 A 
HETATM   20  C   UNL     1       8.355  23.936  56.870  1.00  0.00     0.000 A 
HETATM   21  C   UNL     1       9.020  25.101  57.246  1.00  0.00     0.001 A 
HETATM   22  C   UNL     1       8.348  26.326  57.247  1.00  0.00     0.009 A 
ENDBRANCH   7  17
ENDBRANCH   6   7
ENDBRANCH   3   6
BRANCH   2  23
HETATM   23  C   UNL     1       5.790  26.570  53.257  1.00  0.00     0.043 A 
HETATM   24  C   UNL     1       4.953  25.458  53.074  1.00  0.00     0.033 A 
HETATM   25  C   UNL     1       5.514  24.198  52.858  1.00  0.00     0.044 A 
HETATM   26  C   UNL     1       6.897  24.054  52.823  1.00  0.00     0.116 A 
HETATM   27  F   UNL     1       7.428  22.843  52.621  1.00  0.00    -0.206 F 
HETATM   28  C   UNL     1       7.734  25.150  52.996  1.00  0.00     0.044 A 
HETATM   29  C   UNL     1       7.184  26.415  53.213  1.00  0.00     0.033 A 
ENDBRANCH   2  23
BRANCH   1  30
HETATM   30  C   UNL     1       5.387  28.807  51.115  1.00  0.00     0.255 C 
HETATM   31  C   UNL     1       5.548  30.203  50.507  1.00  0.00     0.049 C 
BRANCH  30  32
HETATM   32  N   UNL     1       4.352  28.010  50.293  1.00  0.00    -0.060 N 
HETATM   33  H   UNL     1       3.766  27.531  50.987  1.00  0.00     0.280 HD
HETATM   34  C   UNL     1       3.438  28.930  49.507  1.00  0.00     0.236 C 
HETATM   35  C   UNL     1       2.281  28.118  48.940  1.00  0.00     0.028 C 
HETATM   36  C   UNL     1       2.769  26.953  48.087  1.00  0.00     0.003 C 
HETATM   37  C   UNL     1       3.776  26.092  48.844  1.00  0.00     0.028 C 
HETATM   38  C   UNL     1       4.926  26.930  49.394  1.00  0.00     0.236 C 
ENDBRANCH  30  32
ENDBRANCH   1  30
TORSDOF 7
ENDMDL
MODEL 5
REMARK VINA RESULT:      -9.2      3.374      7.869
REMARK  7 active torsions:
REMARK  status: ('A' for Active; 'I' for Inactive)
REMARK    1  A    between atoms: C_2  and  N_3 
REMARK    2  A    between atoms: C_2  and  C_10 
REMARK    3  A    between atoms: N_11  and  C_12 
REMARK    4  A    between atoms: C_19  and  S_20 
REMARK    5  A    between atoms: S_20  and  C_21 
REMARK    6  A    between atoms: C_21  and  C_22 
REMARK    7  A    between atoms: C_21  and  C_28 
REMARK       I    between atoms: C_22  and  N_23 
REMARK       I    between atoms: N_23  and  C_24 
REMARK       I    between atoms: C_24  and  N_25 
ROOT
HETATM    1  C   UNL     1       5.230  28.715  52.044  1.00  0.00     0.166 A 
HETATM    2  N   UNL     1       5.474  27.817  53.080  1.00  0.00    -0.274 N 
HETATM    3  C   UNL     1       4.938  28.437  54.194  1.00  0.00     0.197 A 
HETATM    4  N   UNL     1       4.477  29.623  53.869  1.00  0.00    -0.122 NA
HETATM    5  N   UNL     1       4.668  29.803  52.531  1.00  0.00    -0.131 NA
ENDROOT
BRANCH   3   6
HETATM    6  S   UNL     1       5.026  27.803  55.799  1.00  0.00    -0.070 SA
BRANCH   6   7
HETATM    7  C   UNL     1       6.370  28.779  56.586  1.00  0.00     0.180 C 
BRANCH   7   8
HETATM    8  C   UNL     1       7.425  27.898  57.296  1.00  0.00     0.244 C 
HETATM    9  N   UNL     1       8.715  28.381  57.415  1.00  0.00    -0.278 N 
HETATM   10  C   UNL     1       9.378  29.105  56.460  1.00  0.00     0.320 C 
HETATM   11  H   UNL     1       9.308  27.755  57.934  1.00  0.00     0.173 HD
HETATM   12  N   UNL     1      10.686  29.319  56.761  1.00  0.00    -0.352 N 
HETATM   13  O   UNL     1       8.890  29.584  55.449  1.00  0.00    -0.247 OA
HETATM   14  H   UNL     1      11.216  28.732  57.386  1.00  0.00     0.160 HD
HETATM   15  H   UNL     1      11.216  29.825  56.059  1.00  0.00     0.160 HD
HETATM   16  O   UNL     1       7.214  26.754  57.722  1.00  0.00    -0.271 OA
ENDBRANCH   7   8
BRANCH   7  17
HETATM   17  C   UNL     1       5.810  29.929  57.412  1.00  0.00    -0.035 A 
HETATM   18  C   UNL     1       4.414  30.062  57.536  1.00  0.00     0.009 A 
HETATM   19  C   UNL     1       3.853  31.093  58.291  1.00  0.00     0.001 A 
HETATM   20  C   UNL     1       4.678  32.008  58.936  1.00  0.00     0.000 A 
HETATM   21  C   UNL     1       6.062  31.891  58.831  1.00  0.00     0.001 A 
HETATM   22  C   UNL     1       6.625  30.856  58.078  1.00  0.00     0.009 A 
ENDBRANCH   7  17
ENDBRANCH   6   7
ENDBRANCH   3   6
BRANCH   2  23
HETATM   23  C   UNL     1       6.065  26.532  52.967  1.00  0.00     0.043 A 
HETATM   24  C   UNL     1       5.248  25.402  52.807  1.00  0.00     0.033 A 
HETATM   25  C   UNL     1       5.830  24.136  52.717  1.00  0.00     0.044 A 
HETATM   26  C   UNL     1       7.212  24.004  52.784  1.00  0.00     0.116 A 
HETATM   27  F   UNL     1       7.763  22.787  52.702  1.00  0.00    -0.206 F 
HETATM   28  C   UNL     1       8.030  25.118  52.935  1.00  0.00     0.044 A 
HETATM   29  C   UNL     1       7.459  26.389  53.026  1.00  0.00     0.033 A 
ENDBRANCH   2  23
BRANCH   1  30
HETATM   30  C   UNL     1       5.408  28.440  50.584  1.00  0.00     0.255 C 
HETATM   31  C   UNL     1       5.709  29.728  49.812  1.00  0.00     0.049 C 
BRANCH  30  32
HETATM   32  N   UNL     1       4.220  27.715  49.919  1.00  0.00    -0.060 N 
HETATM   33  H   UNL     1       3.750  27.211  50.680  1.00  0.00     0.280 HD
HETATM   34  C   UNL     1       3.211  28.697  49.356  1.00  0.00     0.236 C 
HETATM   35  C   UNL     1       1.947  27.945  48.963  1.00  0.00     0.028 C 
HETATM   36  C   UNL     1       2.239  26.819  47.977  1.00  0.00     0.003 C 
HETATM   37  C   UNL     1       3.336  25.894  48.498  1.00  0.00     0.028 C 
HETATM   38  C   UNL     1       4.591  26.675  48.877  1.00  0.00     0.236 C 
ENDBRANCH  30  32
ENDBRANCH   1  30
TORSDOF 7
ENDMDL
MODEL 6
REMARK VINA RESULT:      -8.8      4.230      7.674
REMARK  7 active torsions:
REMARK  status: ('A' for Active; 'I' for Inactive)
REMARK    1  A    between atoms: C_2  and  N_3 
REMARK    2  A    between atoms: C_2  and  C_10 
REMARK    3  A    between atoms: N_11  and  C_12 
REMARK    4  A    between atoms: C_19  and  S_20 
REMARK    5  A    between atoms: S_20  and  C_21 
REMARK    6  A    between atoms: C_21  and  C_22 
REMARK    7  A    between atoms: C_21  and  C_28 
REMARK       I    between atoms: C_22  and  N_23 
REMARK       I    between atoms: N_23  and  C_24 
REMARK       I    between atoms: C_24  and  N_25 
ROOT
HETATM    1  C   UNL     1       5.975  25.311  54.108  1.00  0.00     0.166 A 
HETATM    2  N   UNL     1       5.524  26.618  54.268  1.00  0.00    -0.274 N 
HETATM    3  C   UNL     1       4.573  26.770  53.275  1.00  0.00     0.197 A 
HETATM    4  N   UNL     1       4.508  25.679  52.547  1.00  0.00    -0.122 NA
HETATM    5  N   UNL     1       5.389  24.771  53.057  1.00  0.00    -0.131 NA
ENDROOT
BRANCH   3   6
HETATM    6  S   UNL     1       3.730  28.242  52.950  1.00  0.00    -0.070 SA
BRANCH   6   7
HETATM    7  C   UNL     1       3.795  28.392  51.119  1.00  0.00     0.180 C 
BRANCH   7   8
HETATM    8  C   UNL     1       5.232  28.583  50.575  1.00  0.00     0.244 C 
HETATM    9  N   UNL     1       5.518  28.136  49.299  1.00  0.00    -0.278 N 
HETATM   10  C   UNL     1       5.029  26.988  48.736  1.00  0.00     0.320 C 
HETATM   11  H   UNL     1       6.462  28.353  49.024  1.00  0.00     0.173 HD
HETATM   12  N   UNL     1       5.591  26.699  47.532  1.00  0.00    -0.352 N 
HETATM   13  O   UNL     1       4.141  26.283  49.189  1.00  0.00    -0.247 OA
HETATM   14  H   UNL     1       6.496  27.037  47.245  1.00  0.00     0.160 HD
HETATM   15  H   UNL     1       5.274  25.837  47.101  1.00  0.00     0.160 HD
HETATM   16  O   UNL     1       6.171  29.061  51.226  1.00  0.00    -0.271 OA
ENDBRANCH   7   8
BRANCH   7  17
HETATM   17  C   UNL     1       2.760  29.385  50.606  1.00  0.00    -0.035 A 
HETATM   18  C   UNL     1       2.681  30.655  51.205  1.00  0.00     0.009 A 
HETATM   19  C   UNL     1       1.756  31.603  50.764  1.00  0.00     0.001 A 
HETATM   20  C   UNL     1       0.897  31.297  49.714  1.00  0.00     0.000 A 
HETATM   21  C   UNL     1       0.964  30.047  49.103  1.00  0.00     0.001 A 
HETATM   22  C   UNL     1       1.892  29.098  49.542  1.00  0.00     0.009 A 
ENDBRANCH   7  17
ENDBRANCH   6   7
ENDBRANCH   3   6
BRANCH   2  23
HETATM   23  C   UNL     1       5.914  27.531  55.281  1.00  0.00     0.043 A 
HETATM   24  C   UNL     1       5.211  27.564  56.496  1.00  0.00     0.033 A 
HETATM   25  C   UNL     1       5.583  28.477  57.485  1.00  0.00     0.044 A 
HETATM   26  C   UNL     1       6.646  29.344  57.261  1.00  0.00     0.116 A 
HETATM   27  F   UNL     1       6.993  30.220  58.210  1.00  0.00    -0.206 F 
HETATM   28  C   UNL     1       7.352  29.315  56.064  1.00  0.00     0.044 A 
HETATM   29  C   UNL     1       6.989  28.406  55.068  1.00  0.00     0.033 A 
ENDBRANCH   2  23
BRANCH   1  30
HETATM   30  C   UNL     1       6.848  24.559  55.062  1.00  0.00     0.255 C 
HETATM   31  C   UNL     1       8.195  25.263  55.251  1.00  0.00     0.049 C 
BRANCH  30  32
HETATM   32  N   UNL     1       7.094  23.085  54.680  1.00  0.00    -0.060 N 
HETATM   33  H   UNL     1       6.171  22.711  54.432  1.00  0.00     0.280 HD
HETATM   34  C   UNL     1       7.962  22.967  53.441  1.00  0.00     0.236 C 
HETATM   35  C   UNL     1       7.946  21.524  52.956  1.00  0.00     0.028 C 
HETATM   36  C   UNL     1       8.393  20.554  54.044  1.00  0.00     0.003 C 
HETATM   37  C   UNL     1       7.593  20.751  55.329  1.00  0.00     0.028 C 
HETATM   38  C   UNL     1       7.632  22.204  55.793  1.00  0.00     0.236 C 
ENDBRANCH  30  32
ENDBRANCH   1  30
TORSDOF 7
ENDMDL
MODEL 7
REMARK VINA RESULT:      -8.7      5.138      7.309
REMARK  7 active torsions:
REMARK  status: ('A' for Active; 'I' for Inactive)
REMARK    1  A    between atoms: C_2  and  N_3 
REMARK    2  A    between atoms: C_2  and  C_10 
REMARK    3  A    between atoms: N_11  and  C_12 
REMARK    4  A    between atoms: C_19  and  S_20 
REMARK    5  A    between atoms: S_20  and  C_21 
REMARK    6  A    between atoms: C_21  and  C_22 
REMARK    7  A    between atoms: C_21  and  C_28 
REMARK       I    between atoms: C_22  and  N_23 
REMARK       I    between atoms: N_23  and  C_24 
REMARK       I    between atoms: C_24  and  N_25 
ROOT
HETATM    1  C   UNL     1       4.378  27.889  53.994  1.00  0.00     0.166 A 
HETATM    2  N   UNL     1       5.014  27.071  53.065  1.00  0.00    -0.274 N 
HETATM    3  C   UNL     1       4.569  27.541  51.843  1.00  0.00     0.197 A 
HETATM    4  N   UNL     1       3.698  28.507  52.024  1.00  0.00    -0.122 NA
HETATM    5  N   UNL     1       3.569  28.719  53.365  1.00  0.00    -0.131 NA
ENDROOT
BRANCH   3   6
HETATM    6  S   UNL     1       4.980  26.836  50.320  1.00  0.00    -0.070 SA
BRANCH   6   7
HETATM    7  C   UNL     1       3.969  27.781  49.110  1.00  0.00     0.180 C 
BRANCH   7   8
HETATM    8  C   UNL     1       3.877  27.094  47.727  1.00  0.00     0.244 C 
HETATM    9  N   UNL     1       2.741  27.293  46.966  1.00  0.00    -0.278 N 
HETATM   10  C   UNL     1       1.465  27.369  47.458  1.00  0.00     0.320 C 
HETATM   11  H   UNL     1       2.803  26.845  46.067  1.00  0.00     0.173 HD
HETATM   12  N   UNL     1       0.516  27.407  46.486  1.00  0.00    -0.352 N 
HETATM   13  O   UNL     1       1.149  27.452  48.634  1.00  0.00    -0.247 OA
HETATM   14  H   UNL     1       0.660  27.053  45.553  1.00  0.00     0.160 HD
HETATM   15  H   UNL     1      -0.443  27.430  46.816  1.00  0.00     0.160 HD
HETATM   16  O   UNL     1       4.732  26.325  47.266  1.00  0.00    -0.271 OA
ENDBRANCH   7   8
BRANCH   7  17
HETATM   17  C   UNL     1       4.361  29.253  49.090  1.00  0.00    -0.035 A 
HETATM   18  C   UNL     1       5.703  29.603  49.325  1.00  0.00     0.009 A 
HETATM   19  C   UNL     1       6.113  30.938  49.306  1.00  0.00     0.001 A 
HETATM   20  C   UNL     1       5.187  31.944  49.049  1.00  0.00     0.000 A 
HETATM   21  C   UNL     1       3.855  31.617  48.808  1.00  0.00     0.001 A 
HETATM   22  C   UNL     1       3.444  30.281  48.823  1.00  0.00     0.009 A 
ENDBRANCH   7  17
ENDBRANCH   6   7
ENDBRANCH   3   6
BRANCH   2  23
HETATM   23  C   UNL     1       5.960  26.050  53.342  1.00  0.00     0.043 A 
HETATM   24  C   UNL     1       7.289  26.198  52.913  1.00  0.00     0.033 A 
HETATM   25  C   UNL     1       8.214  25.184  53.168  1.00  0.00     0.044 A 
HETATM   26  C   UNL     1       7.814  24.038  53.846  1.00  0.00     0.116 A 
HETATM   27  F   UNL     1       8.705  23.068  54.082  1.00  0.00    -0.206 F 
HETATM   28  C   UNL     1       6.503  23.885  54.281  1.00  0.00     0.044 A 
HETATM   29  C   UNL     1       5.569  24.893  54.031  1.00  0.00     0.033 A 
ENDBRANCH   2  23
BRANCH   1  30
HETATM   30  C   UNL     1       4.679  27.956  55.458  1.00  0.00     0.255 C 
HETATM   31  C   UNL     1       4.047  29.195  56.098  1.00  0.00     0.049 C 
BRANCH  30  32
HETATM   32  N   UNL     1       6.182  27.914  55.806  1.00  0.00    -0.060 N 
HETATM   33  H   UNL     1       6.641  27.520  54.977  1.00  0.00     0.280 HD
HETATM   34  C   UNL     1       6.748  29.308  56.000  1.00  0.00     0.236 C 
HETATM   35  C   UNL     1       8.267  29.225  56.068  1.00  0.00     0.028 C 
HETATM   36  C   UNL     1       8.735  28.275  57.165  1.00  0.00     0.003 C 
HETATM   37  C   UNL     1       8.076  26.905  57.033  1.00  0.00     0.028 C 
HETATM   38  C   UNL     1       6.556  27.019  56.974  1.00  0.00     0.236 C 
ENDBRANCH  30  32
ENDBRANCH   1  30
TORSDOF 7
ENDMDL
MODEL 8
REMARK VINA RESULT:      -8.4      3.115      7.995
REMARK  7 active torsions:
REMARK  status: ('A' for Active; 'I' for Inactive)
REMARK    1  A    between atoms: C_2  and  N_3 
REMARK    2  A    between atoms: C_2  and  C_10 
REMARK    3  A    between atoms: N_11  and  C_12 
REMARK    4  A    between atoms: C_19  and  S_20 
REMARK    5  A    between atoms: S_20  and  C_21 
REMARK    6  A    between atoms: C_21  and  C_22 
REMARK    7  A    between atoms: C_21  and  C_28 
REMARK       I    between atoms: C_22  and  N_23 
REMARK       I    between atoms: N_23  and  C_24 
REMARK       I    between atoms: C_24  and  N_25 
ROOT
HETATM    1  C   UNL     1       6.904  26.919  57.049  1.00  0.00     0.166 A 
HETATM    2  N   UNL     1       6.589  28.117  56.413  1.00  0.00    -0.274 N 
HETATM    3  C   UNL     1       7.210  29.081  57.187  1.00  0.00     0.197 A 
HETATM    4  N   UNL     1       7.786  28.521  58.225  1.00  0.00    -0.122 NA
HETATM    5  N   UNL     1       7.587  27.173  58.148  1.00  0.00    -0.131 NA
ENDROOT
BRANCH   3   6
HETATM    6  S   UNL     1       7.089  30.781  56.906  1.00  0.00    -0.070 SA
BRANCH   6   7
HETATM    7  C   UNL     1       6.385  31.438  58.472  1.00  0.00     0.180 C 
BRANCH   7   8
HETATM    8  C   UNL     1       5.492  32.684  58.262  1.00  0.00     0.244 C 
HETATM    9  N   UNL     1       4.460  32.913  59.152  1.00  0.00    -0.278 N 
HETATM   10  C   UNL     1       3.668  31.944  59.708  1.00  0.00     0.320 C 
HETATM   11  H   UNL     1       3.974  33.772  58.956  1.00  0.00     0.173 HD
HETATM   12  N   UNL     1       2.627  32.447  60.424  1.00  0.00    -0.352 N 
HETATM   13  O   UNL     1       3.854  30.739  59.651  1.00  0.00    -0.247 OA
HETATM   14  H   UNL     1       2.244  33.367  60.276  1.00  0.00     0.160 HD
HETATM   15  H   UNL     1       2.001  31.756  60.823  1.00  0.00     0.160 HD
HETATM   16  O   UNL     1       5.597  33.472  57.311  1.00  0.00    -0.271 OA
ENDBRANCH   7   8
BRANCH   7  17
HETATM   17  C   UNL     1       7.455  31.569  59.548  1.00  0.00    -0.035 A 
HETATM   18  C   UNL     1       8.789  31.790  59.159  1.00  0.00     0.009 A 
HETATM   19  C   UNL     1       9.803  31.927  60.109  1.00  0.00     0.001 A 
HETATM   20  C   UNL     1       9.499  31.848  61.464  1.00  0.00     0.000 A 
HETATM   21  C   UNL     1       8.183  31.636  61.870  1.00  0.00     0.001 A 
HETATM   22  C   UNL     1       7.167  31.502  60.920  1.00  0.00     0.009 A 
ENDBRANCH   7  17
ENDBRANCH   6   7
ENDBRANCH   3   6
BRANCH   2  23
HETATM   23  C   UNL     1       5.865  28.269  55.202  1.00  0.00     0.043 A 
HETATM   24  C   UNL     1       6.558  28.392  53.988  1.00  0.00     0.033 A 
HETATM   25  C   UNL     1       5.844  28.563  52.800  1.00  0.00     0.044 A 
HETATM   26  C   UNL     1       4.455  28.606  52.828  1.00  0.00     0.116 A 
HETATM   27  F   UNL     1       3.778  28.775  51.686  1.00  0.00    -0.206 F 
HETATM   28  C   UNL     1       3.760  28.478  54.025  1.00  0.00     0.044 A 
HETATM   29  C   UNL     1       4.463  28.307  55.219  1.00  0.00     0.033 A 
ENDBRANCH   2  23
BRANCH   1  30
HETATM   30  C   UNL     1       6.668  25.546  56.504  1.00  0.00     0.255 C 
HETATM   31  C   UNL     1       7.694  24.550  57.050  1.00  0.00     0.049 C 
BRANCH  30  32
HETATM   32  N   UNL     1       6.650  25.463  54.963  1.00  0.00    -0.060 N 
HETATM   33  H   UNL     1       6.617  26.437  54.639  1.00  0.00     0.280 HD
HETATM   34  C   UNL     1       7.935  24.866  54.422  1.00  0.00     0.236 C 
HETATM   35  C   UNL     1       7.978  25.058  52.912  1.00  0.00     0.028 C 
HETATM   36  C   UNL     1       6.753  24.460  52.228  1.00  0.00     0.003 C 
HETATM   37  C   UNL     1       5.459  24.979  52.851  1.00  0.00     0.028 C 
HETATM   38  C   UNL     1       5.443  24.767  54.361  1.00  0.00     0.236 C 
ENDBRANCH  30  32
ENDBRANCH   1  30
TORSDOF 7
ENDMDL
MODEL 9
REMARK VINA RESULT:      -8.4      2.916      7.477
REMARK  7 active torsions:
REMARK  status: ('A' for Active; 'I' for Inactive)
REMARK    1  A    between atoms: C_2  and  N_3 
REMARK    2  A    between atoms: C_2  and  C_10 
REMARK    3  A    between atoms: N_11  and  C_12 
REMARK    4  A    between atoms: C_19  and  S_20 
REMARK    5  A    between atoms: S_20  and  C_21 
REMARK    6  A    between atoms: C_21  and  C_22 
REMARK    7  A    between atoms: C_21  and  C_28 
REMARK       I    between atoms: C_22  and  N_23 
REMARK       I    between atoms: N_23  and  C_24 
REMARK       I    between atoms: C_24  and  N_25 
ROOT
HETATM    1  C   UNL     1       7.293  25.121  55.670  1.00  0.00     0.166 A 
HETATM    2  N   UNL     1       6.251  25.885  55.152  1.00  0.00    -0.274 N 
HETATM    3  C   UNL     1       5.821  26.639  56.229  1.00  0.00     0.197 A 
HETATM    4  N   UNL     1       6.497  26.311  57.305  1.00  0.00    -0.122 NA
HETATM    5  N   UNL     1       7.409  25.356  56.962  1.00  0.00    -0.131 NA
ENDROOT
BRANCH   3   6
HETATM    6  S   UNL     1       4.478  27.725  56.183  1.00  0.00    -0.070 SA
BRANCH   6   7
HETATM    7  C   UNL     1       5.256  29.390  56.190  1.00  0.00     0.180 C 
BRANCH   7   8
HETATM    8  C   UNL     1       4.920  30.223  54.930  1.00  0.00     0.244 C 
HETATM    9  N   UNL     1       5.081  31.595  54.985  1.00  0.00    -0.278 N 
HETATM   10  C   UNL     1       4.796  32.381  56.069  1.00  0.00     0.320 C 
HETATM   11  H   UNL     1       4.884  32.035  54.101  1.00  0.00     0.173 HD
HETATM   12  N   UNL     1       4.891  33.711  55.808  1.00  0.00    -0.352 N 
HETATM   13  O   UNL     1       4.531  31.989  57.195  1.00  0.00    -0.247 OA
HETATM   14  H   UNL     1       4.807  34.104  54.884  1.00  0.00     0.160 HD
HETATM   15  H   UNL     1       4.654  34.324  56.582  1.00  0.00     0.160 HD
HETATM   16  O   UNL     1       4.458  29.754  53.880  1.00  0.00    -0.271 OA
ENDBRANCH   7   8
BRANCH   7  17
HETATM   17  C   UNL     1       6.733  29.310  56.552  1.00  0.00    -0.035 A 
HETATM   18  C   UNL     1       7.675  29.107  55.526  1.00  0.00     0.009 A 
HETATM   19  C   UNL     1       9.041  29.037  55.806  1.00  0.00     0.001 A 
HETATM   20  C   UNL     1       9.488  29.172  57.117  1.00  0.00     0.000 A 
HETATM   21  C   UNL     1       8.572  29.381  58.145  1.00  0.00     0.001 A 
HETATM   22  C   UNL     1       7.205  29.454  57.865  1.00  0.00     0.009 A 
ENDBRANCH   7  17
ENDBRANCH   6   7
ENDBRANCH   3   6
BRANCH   2  23
HETATM   23  C   UNL     1       5.811  25.917  53.804  1.00  0.00     0.043 A 
HETATM   24  C   UNL     1       5.031  24.864  53.300  1.00  0.00     0.033 A 
HETATM   25  C   UNL     1       4.617  24.887  51.967  1.00  0.00     0.044 A 
HETATM   26  C   UNL     1       4.977  25.952  51.150  1.00  0.00     0.116 A 
HETATM   27  F   UNL     1       4.581  25.964  49.872  1.00  0.00    -0.206 F 
HETATM   28  C   UNL     1       5.743  27.002  51.641  1.00  0.00     0.044 A 
HETATM   29  C   UNL     1       6.163  26.990  52.972  1.00  0.00     0.033 A 
ENDBRANCH   2  23
BRANCH   1  30
HETATM   30  C   UNL     1       8.254  24.292  54.876  1.00  0.00     0.255 C 
HETATM   31  C   UNL     1       8.247  24.699  53.400  1.00  0.00     0.049 C 
BRANCH  30  32
HETATM   32  N   UNL     1       8.028  22.769  54.985  1.00  0.00    -0.060 N 
HETATM   33  H   UNL     1       7.009  22.647  55.003  1.00  0.00     0.280 HD
HETATM   34  C   UNL     1       8.536  22.042  53.755  1.00  0.00     0.236 C 
HETATM   35  C   UNL     1       8.049  20.599  53.792  1.00  0.00     0.028 C 
HETATM   36  C   UNL     1       8.471  19.890  55.074  1.00  0.00     0.003 C 
HETATM   37  C   UNL     1       8.057  20.683  56.311  1.00  0.00     0.028 C 
HETATM   38  C   UNL     1       8.564  22.120  56.249  1.00  0.00     0.236 C 
ENDBRANCH  30  32
ENDBRANCH   1  30
TORSDOF 7
ENDMDL
MODEL 10
REMARK VINA RESULT:      -8.4      3.274      7.337
REMARK  7 active torsions:
REMARK  status: ('A' for Active; 'I' for Inactive)
REMARK    1  A    between atoms: C_2  and  N_3 
REMARK    2  A    between atoms: C_2  and  C_10 
REMARK    3  A    between atoms: N_11  and  C_12 
REMARK    4  A    between atoms: C_19  and  S_20 
REMARK    5  A    between atoms: S_20  and  C_21 
REMARK    6  A    between atoms: C_21  and  C_22 
REMARK    7  A    between atoms: C_21  and  C_28 
REMARK       I    between atoms: C_22  and  N_23 
REMARK       I    between atoms: N_23  and  C_24 
REMARK       I    between atoms: C_24  and  N_25 
ROOT
HETATM    1  C   UNL     1       6.668  25.667  53.714  1.00  0.00     0.166 A 
HETATM    2  N   UNL     1       6.448  26.718  54.599  1.00  0.00    -0.274 N 
HETATM    3  C   UNL     1       5.070  26.827  54.654  1.00  0.00     0.197 A 
HETATM    4  N   UNL     1       4.519  25.967  53.830  1.00  0.00    -0.122 NA
HETATM    5  N   UNL     1       5.514  25.249  53.233  1.00  0.00    -0.131 NA
ENDROOT
BRANCH   3   6
HETATM    6  S   UNL     1       4.224  28.037  55.552  1.00  0.00    -0.070 SA
BRANCH   6   7
HETATM    7  C   UNL     1       4.561  29.589  54.626  1.00  0.00     0.180 C 
BRANCH   7   8
HETATM    8  C   UNL     1       3.843  30.821  55.225  1.00  0.00     0.244 C 
HETATM    9  N   UNL     1       4.553  31.651  56.072  1.00  0.00    -0.278 N 
HETATM   10  C   UNL     1       5.469  31.234  57.001  1.00  0.00     0.320 C 
HETATM   11  H   UNL     1       4.011  32.448  56.366  1.00  0.00     0.173 HD
HETATM   12  N   UNL     1       5.905  32.234  57.812  1.00  0.00    -0.352 N 
HETATM   13  O   UNL     1       5.929  30.108  57.106  1.00  0.00    -0.247 OA
HETATM   14  H   UNL     1       5.380  33.077  57.986  1.00  0.00     0.160 HD
HETATM   15  H   UNL     1       6.560  31.954  58.533  1.00  0.00     0.160 HD
HETATM   16  O   UNL     1       2.647  31.094  55.046  1.00  0.00    -0.271 OA
ENDBRANCH   7   8
BRANCH   7  17
HETATM   17  C   UNL     1       4.386  29.389  53.127  1.00  0.00    -0.035 A 
HETATM   18  C   UNL     1       5.525  29.404  52.301  1.00  0.00     0.009 A 
HETATM   19  C   UNL     1       5.418  29.216  50.922  1.00  0.00     0.001 A 
HETATM   20  C   UNL     1       4.169  29.007  50.346  1.00  0.00     0.000 A 
HETATM   21  C   UNL     1       3.030  28.982  51.147  1.00  0.00     0.001 A 
HETATM   22  C   UNL     1       3.137  29.167  52.528  1.00  0.00     0.009 A 
ENDBRANCH   7  17
ENDBRANCH   6   7
ENDBRANCH   3   6
BRANCH   2  23
HETATM   23  C   UNL     1       7.433  27.436  55.325  1.00  0.00     0.043 A 
HETATM   24  C   UNL     1       7.695  27.101  56.662  1.00  0.00     0.033 A 
HETATM   25  C   UNL     1       8.651  27.822  57.381  1.00  0.00     0.044 A 
HETATM   26  C   UNL     1       9.336  28.864  56.767  1.00  0.00     0.116 A 
HETATM   27  F   UNL     1      10.247  29.554  57.464  1.00  0.00    -0.206 F 
HETATM   28  C   UNL     1       9.089  29.199  55.441  1.00  0.00     0.044 A 
HETATM   29  C   UNL     1       8.136  28.484  54.712  1.00  0.00     0.033 A 
ENDBRANCH   2  23
BRANCH   1  30
HETATM   30  C   UNL     1       7.978  24.987  53.465  1.00  0.00     0.255 C 
HETATM   31  C   UNL     1       8.226  24.794  51.966  1.00  0.00     0.049 C 
BRANCH  30  32
HETATM   32  N   UNL     1       8.144  23.633  54.186  1.00  0.00    -0.060 N 
HETATM   33  H   UNL     1       9.157  23.506  54.295  1.00  0.00     0.280 HD
HETATM   34  C   UNL     1       7.555  23.670  55.583  1.00  0.00     0.236 C 
HETATM   35  C   UNL     1       7.982  22.419  56.339  1.00  0.00     0.028 C 
HETATM   36  C   UNL     1       7.585  21.146  55.599  1.00  0.00     0.003 C 
HETATM   37  C   UNL     1       8.084  21.161  54.157  1.00  0.00     0.028 C 
HETATM   38  C   UNL     1       7.635  22.422  53.425  1.00  0.00     0.236 C 
ENDBRANCH  30  32
ENDBRANCH   1  30
TORSDOF 7
ENDMDL
