MODEL 1
REMARK VINA RESULT:      -9.9      0.000      0.000
REMARK  5 active torsions:
REMARK  status: ('A' for Active; 'I' for Inactive)
REMARK    1  A    between atoms: C_3  and  O_4 
REMARK    2  A    between atoms: C_6  and  N_7 
REMARK       I    between atoms: N_7  and  C_8 
REMARK    3  A    between atoms: C_8  and  C_9 
REMARK    4  A    between atoms: C_14  and  C_15 
REMARK    5  A    between atoms: C_23  and  C_24 
ROOT
HETATM    1  C   UNL     1       7.705  30.913  58.675  1.00  0.00     0.148 A 
HETATM    2  N   UNL     1       6.502  30.464  58.251  1.00  0.00    -0.165 NA
HETATM    3  N   UNL     1       6.801  29.714  57.174  1.00  0.00    -0.240 N 
HETATM    4  C   UNL     1       8.146  29.616  56.934  1.00  0.00     0.123 A 
HETATM    5  N   UNL     1       8.638  28.832  55.949  1.00  0.00    -0.366 N 
HETATM    6  C   UNL     1       7.787  27.886  55.234  1.00  0.00     0.118 C 
HETATM    7  C   UNL     1       6.357  28.433  55.122  1.00  0.00     0.066 C 
HETATM    8  C   UNL     1       5.800  28.932  56.469  1.00  0.00     0.221 C 
HETATM    9  C   UNL     1       8.758  30.403  57.872  1.00  0.00     0.089 A 
HETATM   10  H   UNL     1       9.635  28.625  55.912  1.00  0.00     0.161 HD
ENDROOT
BRANCH   1  11
HETATM   11  C   UNL     1       7.843  31.806  59.842  1.00  0.00     0.276 C 
HETATM   12  N   UNL     1       6.995  31.443  60.870  1.00  0.00    -0.322 N 
HETATM   13  H   UNL     1       6.407  30.643  60.645  1.00  0.00     0.169 HD
HETATM   14  O   UNL     1       8.627  32.748  59.831  1.00  0.00    -0.266 OA
BRANCH  12  15
HETATM   15  C   UNL     1       6.838  32.050  62.128  1.00  0.00     0.037 A 
HETATM   16  C   UNL     1       5.602  32.341  62.704  1.00  0.00     0.066 A 
HETATM   17  C   UNL     1       5.543  32.947  63.959  1.00  0.00     0.067 A 
HETATM   18  C   UNL     1       6.701  33.266  64.659  1.00  0.00     0.036 A 
HETATM   19  C   UNL     1       7.939  32.979  64.089  1.00  0.00     0.005 A 
HETATM   20  C   UNL     1       8.007  32.379  62.828  1.00  0.00     0.029 A 
BRANCH  17  21
HETATM   21  O   UNL     1       4.309  33.219  64.476  1.00  0.00    -0.361 OA
HETATM   22  H   UNL     1       4.403  33.883  65.178  1.00  0.00     0.217 HD
ENDBRANCH  17  21
ENDBRANCH  12  15
ENDBRANCH   1  11
BRANCH   8  23
HETATM   23  C   UNL     1       4.533  29.723  56.229  1.00  0.00     0.409 C 
HETATM   24  F   UNL     1       3.704  29.117  55.348  1.00  0.00    -0.169 F 
HETATM   25  F   UNL     1       3.839  29.842  57.393  1.00  0.00    -0.169 F 
HETATM   26  F   UNL     1       4.757  30.982  55.798  1.00  0.00    -0.169 F 
ENDBRANCH   8  23
BRANCH   6  27
HETATM   27  C   UNL     1       7.858  26.480  55.813  1.00  0.00    -0.035 A 
HETATM   28  C   UNL     1       8.349  26.204  57.102  1.00  0.00     0.012 A 
HETATM   29  C   UNL     1       8.406  24.892  57.581  1.00  0.00     0.043 A 
HETATM   30  C   UNL     1       7.970  23.848  56.778  1.00  0.00     0.116 A 
HETATM   31  F   UNL     1       8.032  22.591  57.235  1.00  0.00    -0.206 F 
HETATM   32  C   UNL     1       7.470  24.090  55.506  1.00  0.00     0.043 A 
HETATM   33  C   UNL     1       7.412  25.401  55.026  1.00  0.00     0.012 A 
ENDBRANCH   6  27
TORSDOF 5
ENDMDL
MODEL 2
REMARK VINA RESULT:      -9.8      4.068      8.915
REMARK  5 active torsions:
REMARK  status: ('A' for Active; 'I' for Inactive)
REMARK    1  A    between atoms: C_3  and  O_4 
REMARK    2  A    between atoms: C_6  and  N_7 
REMARK       I    between atoms: N_7  and  C_8 
REMARK    3  A    between atoms: C_8  and  C_9 
REMARK    4  A    between atoms: C_14  and  C_15 
REMARK    5  A    between atoms: C_23  and  C_24 
ROOT
HETATM    1  C   UNL     1       7.342  27.201  57.298  1.00  0.00     0.148 A 
HETATM    2  N   UNL     1       8.611  27.657  57.409  1.00  0.00    -0.165 NA
HETATM    3  N   UNL     1       8.458  28.971  57.664  1.00  0.00    -0.240 N 
HETATM    4  C   UNL     1       7.149  29.355  57.784  1.00  0.00     0.123 A 
HETATM    5  N   UNL     1       6.806  30.616  58.127  1.00  0.00    -0.366 N 
HETATM    6  C   UNL     1       7.802  31.573  58.598  1.00  0.00     0.118 C 
HETATM    7  C   UNL     1       9.153  31.315  57.917  1.00  0.00     0.066 C 
HETATM    8  C   UNL     1       9.581  29.837  57.977  1.00  0.00     0.221 C 
HETATM    9  C   UNL     1       6.399  28.238  57.526  1.00  0.00     0.089 A 
HETATM   10  H   UNL     1       5.846  30.828  58.396  1.00  0.00     0.161 HD
ENDROOT
BRANCH   1  11
HETATM   11  C   UNL     1       7.039  25.790  56.995  1.00  0.00     0.276 C 
HETATM   12  N   UNL     1       7.966  25.238  56.132  1.00  0.00    -0.322 N 
HETATM   13  H   UNL     1       8.682  25.897  55.835  1.00  0.00     0.169 HD
HETATM   14  O   UNL     1       6.057  25.234  57.474  1.00  0.00    -0.266 OA
BRANCH  12  15
HETATM   15  C   UNL     1       8.009  23.932  55.616  1.00  0.00     0.037 A 
HETATM   16  C   UNL     1       8.388  22.812  56.357  1.00  0.00     0.066 A 
HETATM   17  C   UNL     1       8.402  21.553  55.760  1.00  0.00     0.067 A 
HETATM   18  C   UNL     1       8.037  21.383  54.429  1.00  0.00     0.036 A 
HETATM   19  C   UNL     1       7.658  22.497  53.683  1.00  0.00     0.005 A 
HETATM   20  C   UNL     1       7.649  23.764  54.271  1.00  0.00     0.029 A 
BRANCH  17  21
HETATM   21  O   UNL     1       8.789  20.490  56.526  1.00  0.00    -0.361 OA
HETATM   22  H   UNL     1       8.389  19.683  56.165  1.00  0.00     0.217 HD
ENDBRANCH  17  21
ENDBRANCH  12  15
ENDBRANCH   1  11
BRANCH   8  23
HETATM   23  C   UNL     1      10.746  29.610  57.037  1.00  0.00     0.409 C 
HETATM   24  F   UNL     1      10.984  28.297  56.816  1.00  0.00    -0.169 F 
HETATM   25  F   UNL     1      10.472  30.162  55.825  1.00  0.00    -0.169 F 
HETATM   26  F   UNL     1      11.895  30.181  57.456  1.00  0.00    -0.169 F 
ENDBRANCH   8  23
BRANCH   6  27
HETATM   27  C   UNL     1       7.886  31.631  60.117  1.00  0.00    -0.035 A 
HETATM   28  C   UNL     1       8.689  30.761  60.876  1.00  0.00     0.012 A 
HETATM   29  C   UNL     1       8.719  30.848  62.271  1.00  0.00     0.043 A 
HETATM   30  C   UNL     1       7.952  31.808  62.916  1.00  0.00     0.116 A 
HETATM   31  F   UNL     1       7.976  31.885  64.253  1.00  0.00    -0.206 F 
HETATM   32  C   UNL     1       7.158  32.688  62.194  1.00  0.00     0.043 A 
HETATM   33  C   UNL     1       7.128  32.603  60.799  1.00  0.00     0.012 A 
ENDBRANCH   6  27
TORSDOF 5
ENDMDL
MODEL 3
REMARK VINA RESULT:      -9.8      1.664      2.297
REMARK  5 active torsions:
REMARK  status: ('A' for Active; 'I' for Inactive)
REMARK    1  A    between atoms: C_3  and  O_4 
REMARK    2  A    between atoms: C_6  and  N_7 
REMARK       I    between atoms: N_7  and  C_8 
REMARK    3  A    between atoms: C_8  and  C_9 
REMARK    4  A    between atoms: C_14  and  C_15 
REMARK    5  A    between atoms: C_23  and  C_24 
ROOT
HETATM    1  C   UNL     1       8.145  29.717  57.028  1.00  0.00     0.148 A 
HETATM    2  N   UNL     1       6.842  29.400  56.851  1.00  0.00    -0.165 NA
HETATM    3  N   UNL     1       6.827  28.751  55.672  1.00  0.00    -0.240 N 
HETATM    4  C   UNL     1       8.072  28.587  55.124  1.00  0.00     0.123 A 
HETATM    5  N   UNL     1       8.262  27.881  53.987  1.00  0.00    -0.366 N 
HETATM    6  C   UNL     1       7.191  27.079  53.404  1.00  0.00     0.118 C 
HETATM    7  C   UNL     1       5.828  27.732  53.670  1.00  0.00     0.066 C 
HETATM    8  C   UNL     1       5.629  28.120  55.147  1.00  0.00     0.221 C 
HETATM    9  C   UNL     1       8.945  29.225  55.964  1.00  0.00     0.089 A 
HETATM   10  H   UNL     1       9.202  27.611  53.706  1.00  0.00     0.161 HD
ENDROOT
BRANCH   1  11
HETATM   11  C   UNL     1       8.618  30.468  58.208  1.00  0.00     0.276 C 
HETATM   12  N   UNL     1       7.620  30.626  59.150  1.00  0.00    -0.322 N 
HETATM   13  H   UNL     1       6.730  30.222  58.867  1.00  0.00     0.169 HD
HETATM   14  O   UNL     1       9.768  30.885  58.275  1.00  0.00    -0.266 OA
BRANCH  12  15
HETATM   15  C   UNL     1       7.688  31.282  60.391  1.00  0.00     0.037 A 
HETATM   16  C   UNL     1       7.003  32.461  60.688  1.00  0.00     0.066 A 
HETATM   17  C   UNL     1       7.131  33.043  61.948  1.00  0.00     0.067 A 
HETATM   18  C   UNL     1       7.930  32.466  62.929  1.00  0.00     0.036 A 
HETATM   19  C   UNL     1       8.617  31.290  62.639  1.00  0.00     0.005 A 
HETATM   20  C   UNL     1       8.501  30.705  61.376  1.00  0.00     0.029 A 
BRANCH  17  21
HETATM   21  O   UNL     1       6.447  34.201  62.186  1.00  0.00    -0.361 OA
HETATM   22  H   UNL     1       5.682  34.001  62.750  1.00  0.00     0.217 HD
ENDBRANCH  17  21
ENDBRANCH  12  15
ENDBRANCH   1  11
BRANCH   8  23
HETATM   23  C   UNL     1       4.417  29.019  55.274  1.00  0.00     0.409 C 
HETATM   24  F   UNL     1       4.707  30.316  55.018  1.00  0.00    -0.169 F 
HETATM   25  F   UNL     1       3.474  28.647  54.368  1.00  0.00    -0.169 F 
HETATM   26  F   UNL     1       3.821  28.951  56.483  1.00  0.00    -0.169 F 
ENDBRANCH   8  23
BRANCH   6  27
HETATM   27  C   UNL     1       7.259  25.617  53.824  1.00  0.00    -0.035 A 
HETATM   28  C   UNL     1       7.026  25.185  55.142  1.00  0.00     0.012 A 
HETATM   29  C   UNL     1       7.115  23.831  55.478  1.00  0.00     0.043 A 
HETATM   30  C   UNL     1       7.432  22.900  54.499  1.00  0.00     0.116 A 
HETATM   31  F   UNL     1       7.524  21.604  54.824  1.00  0.00    -0.206 F 
HETATM   32  C   UNL     1       7.657  23.294  53.188  1.00  0.00     0.043 A 
HETATM   33  C   UNL     1       7.568  24.647  52.850  1.00  0.00     0.012 A 
ENDBRANCH   6  27
TORSDOF 5
ENDMDL
MODEL 4
REMARK VINA RESULT:      -9.7      4.687      9.029
REMARK  5 active torsions:
REMARK  status: ('A' for Active; 'I' for Inactive)
REMARK    1  A    between atoms: C_3  and  O_4 
REMARK    2  A    between atoms: C_6  and  N_7 
REMARK       I    between atoms: N_7  and  C_8 
REMARK    3  A    between atoms: C_8  and  C_9 
REMARK    4  A    between atoms: C_14  and  C_15 
REMARK    5  A    between atoms: C_23  and  C_24 
ROOT
HETATM    1  C   UNL     1       5.917  25.738  55.072  1.00  0.00     0.148 A 
HETATM    2  N   UNL     1       5.847  26.882  54.354  1.00  0.00    -0.165 NA
HETATM    3  N   UNL     1       5.425  27.796  55.248  1.00  0.00    -0.240 N 
HETATM    4  C   UNL     1       5.286  27.295  56.516  1.00  0.00     0.123 A 
HETATM    5  N   UNL     1       4.958  28.087  57.562  1.00  0.00    -0.366 N 
HETATM    6  C   UNL     1       4.947  29.541  57.439  1.00  0.00     0.118 C 
HETATM    7  C   UNL     1       4.536  29.955  56.020  1.00  0.00     0.066 C 
HETATM    8  C   UNL     1       5.325  29.209  54.927  1.00  0.00     0.221 C 
HETATM    9  C   UNL     1       5.571  25.959  56.431  1.00  0.00     0.089 A 
HETATM   10  H   UNL     1       5.048  27.736  58.514  1.00  0.00     0.161 HD
ENDROOT
BRANCH   1  11
HETATM   11  C   UNL     1       6.326  24.455  54.467  1.00  0.00     0.276 C 
HETATM   12  N   UNL     1       7.081  23.694  55.337  1.00  0.00    -0.322 N 
HETATM   13  H   UNL     1       7.247  24.148  56.232  1.00  0.00     0.169 HD
HETATM   14  O   UNL     1       6.010  24.166  53.319  1.00  0.00    -0.266 OA
BRANCH  12  15
HETATM   15  C   UNL     1       7.648  22.426  55.120  1.00  0.00     0.037 A 
HETATM   16  C   UNL     1       7.702  21.798  53.875  1.00  0.00     0.066 A 
HETATM   17  C   UNL     1       8.284  20.537  53.755  1.00  0.00     0.067 A 
HETATM   18  C   UNL     1       8.825  19.886  54.858  1.00  0.00     0.036 A 
HETATM   19  C   UNL     1       8.775  20.507  56.104  1.00  0.00     0.005 A 
HETATM   20  C   UNL     1       8.185  21.767  56.234  1.00  0.00     0.029 A 
BRANCH  17  21
HETATM   21  O   UNL     1       8.304  19.961  52.517  1.00  0.00    -0.361 OA
HETATM   22  H   UNL     1       8.955  20.425  51.967  1.00  0.00     0.217 HD
ENDBRANCH  17  21
ENDBRANCH  12  15
ENDBRANCH   1  11
BRANCH   8  23
HETATM   23  C   UNL     1       4.666  29.437  53.584  1.00  0.00     0.409 C 
HETATM   24  F   UNL     1       3.555  28.682  53.419  1.00  0.00    -0.169 F 
HETATM   25  F   UNL     1       4.271  30.734  53.481  1.00  0.00    -0.169 F 
HETATM   26  F   UNL     1       5.487  29.212  52.536  1.00  0.00    -0.169 F 
ENDBRANCH   8  23
BRANCH   6  27
HETATM   27  C   UNL     1       6.247  30.178  57.908  1.00  0.00    -0.035 A 
HETATM   28  C   UNL     1       7.511  29.603  57.679  1.00  0.00     0.012 A 
HETATM   29  C   UNL     1       8.675  30.223  58.143  1.00  0.00     0.043 A 
HETATM   30  C   UNL     1       8.585  31.422  58.835  1.00  0.00     0.116 A 
HETATM   31  F   UNL     1       9.700  32.011  59.286  1.00  0.00    -0.206 F 
HETATM   32  C   UNL     1       7.354  32.019  59.068  1.00  0.00     0.043 A 
HETATM   33  C   UNL     1       6.189  31.401  58.604  1.00  0.00     0.012 A 
ENDBRANCH   6  27
TORSDOF 5
ENDMDL
MODEL 5
REMARK VINA RESULT:      -9.7      6.091      9.703
REMARK  5 active torsions:
REMARK  status: ('A' for Active; 'I' for Inactive)
REMARK    1  A    between atoms: C_3  and  O_4 
REMARK    2  A    between atoms: C_6  and  N_7 
REMARK       I    between atoms: N_7  and  C_8 
REMARK    3  A    between atoms: C_8  and  C_9 
REMARK    4  A    between atoms: C_14  and  C_15 
REMARK    5  A    between atoms: C_23  and  C_24 
ROOT
HETATM    1  C   UNL     1       5.325  27.422  52.378  1.00  0.00     0.148 A 
HETATM    2  N   UNL     1       6.486  27.776  52.976  1.00  0.00    -0.165 NA
HETATM    3  N   UNL     1       6.468  27.096  54.138  1.00  0.00    -0.240 N 
HETATM    4  C   UNL     1       5.378  26.277  54.274  1.00  0.00     0.123 A 
HETATM    5  N   UNL     1       5.237  25.451  55.335  1.00  0.00    -0.366 N 
HETATM    6  C   UNL     1       6.331  25.228  56.274  1.00  0.00     0.118 C 
HETATM    7  C   UNL     1       7.185  26.495  56.412  1.00  0.00     0.066 C 
HETATM    8  C   UNL     1       7.597  27.089  55.051  1.00  0.00     0.221 C 
HETATM    9  C   UNL     1       4.605  26.485  53.164  1.00  0.00     0.089 A 
HETATM   10  H   UNL     1       4.527  24.722  55.321  1.00  0.00     0.161 HD
ENDROOT
BRANCH   1  11
HETATM   11  C   UNL     1       4.922  27.963  51.065  1.00  0.00     0.276 C 
HETATM   12  N   UNL     1       3.889  27.237  50.506  1.00  0.00    -0.322 N 
HETATM   13  H   UNL     1       3.596  26.446  51.075  1.00  0.00     0.169 HD
HETATM   14  O   UNL     1       5.486  28.936  50.580  1.00  0.00    -0.266 OA
BRANCH  12  15
HETATM   15  C   UNL     1       3.244  27.443  49.274  1.00  0.00     0.037 A 
HETATM   16  C   UNL     1       3.169  26.483  48.263  1.00  0.00     0.066 A 
HETATM   17  C   UNL     1       2.509  26.777  47.071  1.00  0.00     0.067 A 
HETATM   18  C   UNL     1       1.912  28.016  46.865  1.00  0.00     0.036 A 
HETATM   19  C   UNL     1       1.984  28.978  47.870  1.00  0.00     0.005 A 
HETATM   20  C   UNL     1       2.651  28.695  49.064  1.00  0.00     0.029 A 
BRANCH  17  21
HETATM   21  O   UNL     1       2.470  25.807  46.110  1.00  0.00    -0.361 OA
HETATM   22  H   UNL     1       2.125  26.194  45.290  1.00  0.00     0.217 HD
ENDBRANCH  17  21
ENDBRANCH  12  15
ENDBRANCH   1  11
BRANCH   8  23
HETATM   23  C   UNL     1       8.163  28.478  55.258  1.00  0.00     0.409 C 
HETATM   24  F   UNL     1       7.197  29.407  55.449  1.00  0.00    -0.169 F 
HETATM   25  F   UNL     1       8.941  28.495  56.373  1.00  0.00    -0.169 F 
HETATM   26  F   UNL     1       8.952  28.894  54.245  1.00  0.00    -0.169 F 
ENDBRANCH   8  23
BRANCH   6  27
HETATM   27  C   UNL     1       7.139  23.981  55.946  1.00  0.00    -0.035 A 
HETATM   28  C   UNL     1       7.124  23.367  54.680  1.00  0.00     0.012 A 
HETATM   29  C   UNL     1       7.875  22.214  54.434  1.00  0.00     0.043 A 
HETATM   30  C   UNL     1       8.649  21.669  55.449  1.00  0.00     0.116 A 
HETATM   31  F   UNL     1       9.362  20.559  55.215  1.00  0.00    -0.206 F 
HETATM   32  C   UNL     1       8.693  22.258  56.705  1.00  0.00     0.043 A 
HETATM   33  C   UNL     1       7.944  23.411  56.952  1.00  0.00     0.012 A 
ENDBRANCH   6  27
TORSDOF 5
ENDMDL
MODEL 6
REMARK VINA RESULT:      -9.6      6.066      9.577
REMARK  5 active torsions:
REMARK  status: ('A' for Active; 'I' for Inactive)
REMARK    1  A    between atoms: C_3  and  O_4 
REMARK    2  A    between atoms: C_6  and  N_7 
REMARK       I    between atoms: N_7  and  C_8 
REMARK    3  A    between atoms: C_8  and  C_9 
REMARK    4  A    between atoms: C_14  and  C_15 
REMARK    5  A    between atoms: C_23  and  C_24 
ROOT
HETATM    1  C   UNL     1       4.947  27.988  52.414  1.00  0.00     0.148 A 
HETATM    2  N   UNL     1       6.162  28.220  52.962  1.00  0.00    -0.165 NA
HETATM    3  N   UNL     1       6.264  27.284  53.923  1.00  0.00    -0.240 N 
HETATM    4  C   UNL     1       5.196  26.427  53.967  1.00  0.00     0.123 A 
HETATM    5  N   UNL     1       5.165  25.369  54.808  1.00  0.00    -0.366 N 
HETATM    6  C   UNL     1       6.350  24.959  55.554  1.00  0.00     0.118 C 
HETATM    7  C   UNL     1       7.210  26.180  55.906  1.00  0.00     0.066 C 
HETATM    8  C   UNL     1       7.480  27.091  54.693  1.00  0.00     0.221 C 
HETATM    9  C   UNL     1       4.312  26.872  53.020  1.00  0.00     0.089 A 
HETATM   10  H   UNL     1       4.459  24.645  54.690  1.00  0.00     0.161 HD
ENDROOT
BRANCH   1  11
HETATM   11  C   UNL     1       4.410  28.814  51.315  1.00  0.00     0.276 C 
HETATM   12  N   UNL     1       3.796  28.045  50.346  1.00  0.00    -0.322 N 
HETATM   13  H   UNL     1       3.836  27.046  50.538  1.00  0.00     0.169 HD
HETATM   14  O   UNL     1       4.539  30.033  51.316  1.00  0.00    -0.266 OA
BRANCH  12  15
HETATM   15  C   UNL     1       3.177  28.469  49.158  1.00  0.00     0.037 A 
HETATM   16  C   UNL     1       3.786  29.295  48.213  1.00  0.00     0.066 A 
HETATM   17  C   UNL     1       3.093  29.667  47.061  1.00  0.00     0.067 A 
HETATM   18  C   UNL     1       1.796  29.222  46.827  1.00  0.00     0.036 A 
HETATM   19  C   UNL     1       1.182  28.398  47.767  1.00  0.00     0.005 A 
HETATM   20  C   UNL     1       1.867  28.028  48.928  1.00  0.00     0.029 A 
BRANCH  17  21
HETATM   21  O   UNL     1       3.730  30.483  46.171  1.00  0.00    -0.361 OA
HETATM   22  H   UNL     1       4.039  31.275  46.640  1.00  0.00     0.217 HD
ENDBRANCH  17  21
ENDBRANCH  12  15
ENDBRANCH   1  11
BRANCH   8  23
HETATM   23  C   UNL     1       8.061  28.405  55.169  1.00  0.00     0.409 C 
HETATM   24  F   UNL     1       7.105  29.323  55.444  1.00  0.00    -0.169 F 
HETATM   25  F   UNL     1       8.752  28.210  56.324  1.00  0.00    -0.169 F 
HETATM   26  F   UNL     1       8.934  28.954  54.299  1.00  0.00    -0.169 F 
ENDBRANCH   8  23
BRANCH   6  27
HETATM   27  C   UNL     1       7.124  23.847  54.859  1.00  0.00    -0.035 A 
HETATM   28  C   UNL     1       7.079  23.633  53.470  1.00  0.00     0.012 A 
HETATM   29  C   UNL     1       7.798  22.588  52.882  1.00  0.00     0.043 A 
HETATM   30  C   UNL     1       8.571  21.754  53.678  1.00  0.00     0.116 A 
HETATM   31  F   UNL     1       9.254  20.749  53.115  1.00  0.00    -0.206 F 
HETATM   32  C   UNL     1       8.644  21.947  55.050  1.00  0.00     0.043 A 
HETATM   33  C   UNL     1       7.926  22.991  55.639  1.00  0.00     0.012 A 
ENDBRANCH   6  27
TORSDOF 5
ENDMDL
MODEL 7
REMARK VINA RESULT:      -9.5      3.725      6.295
REMARK  5 active torsions:
REMARK  status: ('A' for Active; 'I' for Inactive)
REMARK    1  A    between atoms: C_3  and  O_4 
REMARK    2  A    between atoms: C_6  and  N_7 
REMARK       I    between atoms: N_7  and  C_8 
REMARK    3  A    between atoms: C_8  and  C_9 
REMARK    4  A    between atoms: C_14  and  C_15 
REMARK    5  A    between atoms: C_23  and  C_24 
ROOT
HETATM    1  C   UNL     1       6.811  27.253  56.102  1.00  0.00     0.148 A 
HETATM    2  N   UNL     1       7.389  26.296  55.339  1.00  0.00    -0.165 NA
HETATM    3  N   UNL     1       6.432  25.976  54.447  1.00  0.00    -0.240 N 
HETATM    4  C   UNL     1       5.296  26.732  54.571  1.00  0.00     0.123 A 
HETATM    5  N   UNL     1       4.265  26.612  53.705  1.00  0.00    -0.366 N 
HETATM    6  C   UNL     1       4.391  25.836  52.476  1.00  0.00     0.118 C 
HETATM    7  C   UNL     1       5.341  24.650  52.688  1.00  0.00     0.066 C 
HETATM    8  C   UNL     1       6.672  25.059  53.346  1.00  0.00     0.221 C 
HETATM    9  C   UNL     1       5.498  27.550  55.650  1.00  0.00     0.089 A 
HETATM   10  H   UNL     1       3.522  27.309  53.699  1.00  0.00     0.161 HD
ENDROOT
BRANCH   1  11
HETATM   11  C   UNL     1       7.513  27.883  57.236  1.00  0.00     0.276 C 
HETATM   12  N   UNL     1       7.548  29.258  57.120  1.00  0.00    -0.322 N 
HETATM   13  H   UNL     1       7.109  29.603  56.269  1.00  0.00     0.169 HD
HETATM   14  O   UNL     1       7.996  27.207  58.137  1.00  0.00    -0.266 OA
BRANCH  12  15
HETATM   15  C   UNL     1       8.128  30.194  57.994  1.00  0.00     0.037 A 
HETATM   16  C   UNL     1       7.418  30.888  58.975  1.00  0.00     0.066 A 
HETATM   17  C   UNL     1       8.077  31.801  59.798  1.00  0.00     0.067 A 
HETATM   18  C   UNL     1       9.442  32.032  59.666  1.00  0.00     0.036 A 
HETATM   19  C   UNL     1      10.156  31.343  58.689  1.00  0.00     0.005 A 
HETATM   20  C   UNL     1       9.501  30.433  57.854  1.00  0.00     0.029 A 
BRANCH  17  21
HETATM   21  O   UNL     1       7.337  32.460  60.736  1.00  0.00    -0.361 OA
HETATM   22  H   UNL     1       6.412  32.483  60.445  1.00  0.00     0.217 HD
ENDBRANCH  17  21
ENDBRANCH  12  15
ENDBRANCH   1  11
BRANCH   8  23
HETATM   23  C   UNL     1       7.415  23.820  53.797  1.00  0.00     0.409 C 
HETATM   24  F   UNL     1       6.907  23.299  54.938  1.00  0.00    -0.169 F 
HETATM   25  F   UNL     1       7.307  22.851  52.848  1.00  0.00    -0.169 F 
HETATM   26  F   UNL     1       8.737  24.021  53.977  1.00  0.00    -0.169 F 
ENDBRANCH   8  23
BRANCH   6  27
HETATM   27  C   UNL     1       4.750  26.698  51.274  1.00  0.00    -0.035 A 
HETATM   28  C   UNL     1       5.228  28.016  51.388  1.00  0.00     0.012 A 
HETATM   29  C   UNL     1       5.531  28.770  50.250  1.00  0.00     0.043 A 
HETATM   30  C   UNL     1       5.362  28.211  48.991  1.00  0.00     0.116 A 
HETATM   31  F   UNL     1       5.645  28.937  47.902  1.00  0.00    -0.206 F 
HETATM   32  C   UNL     1       4.903  26.909  48.846  1.00  0.00     0.043 A 
HETATM   33  C   UNL     1       4.601  26.154  49.983  1.00  0.00     0.012 A 
ENDBRANCH   6  27
TORSDOF 5
ENDMDL
MODEL 8
REMARK VINA RESULT:      -9.5      7.112     10.134
REMARK  5 active torsions:
REMARK  status: ('A' for Active; 'I' for Inactive)
REMARK    1  A    between atoms: C_3  and  O_4 
REMARK    2  A    between atoms: C_6  and  N_7 
REMARK       I    between atoms: N_7  and  C_8 
REMARK    3  A    between atoms: C_8  and  C_9 
REMARK    4  A    between atoms: C_14  and  C_15 
REMARK    5  A    between atoms: C_23  and  C_24 
ROOT
HETATM    1  C   UNL     1       5.795  25.700  52.906  1.00  0.00     0.148 A 
HETATM    2  N   UNL     1       5.037  26.765  53.255  1.00  0.00    -0.165 NA
HETATM    3  N   UNL     1       5.004  27.515  52.137  1.00  0.00    -0.240 N 
HETATM    4  C   UNL     1       5.652  26.942  51.076  1.00  0.00     0.123 A 
HETATM    5  N   UNL     1       5.646  27.508  49.848  1.00  0.00    -0.366 N 
HETATM    6  C   UNL     1       4.775  28.636  49.537  1.00  0.00     0.118 C 
HETATM    7  C   UNL     1       4.579  29.518  50.777  1.00  0.00     0.066 C 
HETATM    8  C   UNL     1       4.187  28.712  52.029  1.00  0.00     0.221 C 
HETATM    9  C   UNL     1       6.199  25.778  51.547  1.00  0.00     0.089 A 
HETATM   10  H   UNL     1       5.966  26.976  49.041  1.00  0.00     0.161 HD
ENDROOT
BRANCH   1  11
HETATM   11  C   UNL     1       6.113  24.617  53.856  1.00  0.00     0.276 C 
HETATM   12  N   UNL     1       7.000  23.705  53.319  1.00  0.00    -0.322 N 
HETATM   13  H   UNL     1       7.266  23.918  52.360  1.00  0.00     0.169 HD
HETATM   14  O   UNL     1       5.605  24.582  54.971  1.00  0.00    -0.266 OA
BRANCH  12  15
HETATM   15  C   UNL     1       7.529  22.547  53.914  1.00  0.00     0.037 A 
HETATM   16  C   UNL     1       7.679  22.377  55.291  1.00  0.00     0.066 A 
HETATM   17  C   UNL     1       8.216  21.192  55.792  1.00  0.00     0.067 A 
HETATM   18  C   UNL     1       8.603  20.162  54.943  1.00  0.00     0.036 A 
HETATM   19  C   UNL     1       8.457  20.325  53.567  1.00  0.00     0.005 A 
HETATM   20  C   UNL     1       7.928  21.513  53.056  1.00  0.00     0.029 A 
BRANCH  17  21
HETATM   21  O   UNL     1       8.350  21.078  57.146  1.00  0.00    -0.361 OA
HETATM   22  H   UNL     1       8.657  21.927  57.503  1.00  0.00     0.217 HD
ENDBRANCH  17  21
ENDBRANCH  12  15
ENDBRANCH   1  11
BRANCH   8  23
HETATM   23  C   UNL     1       4.311  29.591  53.255  1.00  0.00     0.409 C 
HETATM   24  F   UNL     1       5.489  29.419  53.898  1.00  0.00    -0.169 F 
HETATM   25  F   UNL     1       4.258  30.899  52.888  1.00  0.00    -0.169 F 
HETATM   26  F   UNL     1       3.314  29.413  54.148  1.00  0.00    -0.169 F 
ENDBRANCH   8  23
BRANCH   6  27
HETATM   27  C   UNL     1       3.470  28.205  48.882  1.00  0.00    -0.035 A 
HETATM   28  C   UNL     1       3.245  26.902  48.401  1.00  0.00     0.012 A 
HETATM   29  C   UNL     1       2.032  26.561  47.796  1.00  0.00     0.043 A 
HETATM   30  C   UNL     1       1.035  27.518  47.670  1.00  0.00     0.116 A 
HETATM   31  F   UNL     1      -0.124  27.192  47.083  1.00  0.00    -0.206 F 
HETATM   32  C   UNL     1       1.223  28.809  48.144  1.00  0.00     0.043 A 
HETATM   33  C   UNL     1       2.434  29.151  48.751  1.00  0.00     0.012 A 
ENDBRANCH   6  27
TORSDOF 5
ENDMDL
MODEL 9
REMARK VINA RESULT:      -9.5      8.408     10.819
REMARK  5 active torsions:
REMARK  status: ('A' for Active; 'I' for Inactive)
REMARK    1  A    between atoms: C_3  and  O_4 
REMARK    2  A    between atoms: C_6  and  N_7 
REMARK       I    between atoms: N_7  and  C_8 
REMARK    3  A    between atoms: C_8  and  C_9 
REMARK    4  A    between atoms: C_14  and  C_15 
REMARK    5  A    between atoms: C_23  and  C_24 
ROOT
HETATM    1  C   UNL     1       6.165  26.104  51.779  1.00  0.00     0.148 A 
HETATM    2  N   UNL     1       5.669  25.971  50.527  1.00  0.00    -0.165 NA
HETATM    3  N   UNL     1       4.789  26.985  50.422  1.00  0.00    -0.240 N 
HETATM    4  C   UNL     1       4.751  27.792  51.527  1.00  0.00     0.123 A 
HETATM    5  N   UNL     1       3.992  28.910  51.567  1.00  0.00    -0.366 N 
HETATM    6  C   UNL     1       3.347  29.432  50.367  1.00  0.00     0.118 C 
HETATM    7  C   UNL     1       2.951  28.283  49.430  1.00  0.00     0.066 C 
HETATM    8  C   UNL     1       4.104  27.293  49.178  1.00  0.00     0.221 C 
HETATM    9  C   UNL     1       5.611  27.234  52.436  1.00  0.00     0.089 A 
HETATM   10  H   UNL     1       4.126  29.590  52.313  1.00  0.00     0.161 HD
ENDROOT
BRANCH   1  11
HETATM   11  C   UNL     1       7.166  25.171  52.330  1.00  0.00     0.276 C 
HETATM   12  N   UNL     1       6.577  24.157  53.060  1.00  0.00    -0.322 N 
HETATM   13  H   UNL     1       5.564  24.235  53.114  1.00  0.00     0.169 HD
HETATM   14  O   UNL     1       8.364  25.339  52.136  1.00  0.00    -0.266 OA
BRANCH  12  15
HETATM   15  C   UNL     1       7.199  23.093  53.735  1.00  0.00     0.037 A 
HETATM   16  C   UNL     1       7.708  21.959  53.100  1.00  0.00     0.066 A 
HETATM   17  C   UNL     1       8.308  20.950  53.852  1.00  0.00     0.067 A 
HETATM   18  C   UNL     1       8.419  21.052  55.235  1.00  0.00     0.036 A 
HETATM   19  C   UNL     1       7.912  22.181  55.874  1.00  0.00     0.005 A 
HETATM   20  C   UNL     1       7.301  23.192  55.129  1.00  0.00     0.029 A 
BRANCH  17  21
HETATM   21  O   UNL     1       8.783  19.857  53.186  1.00  0.00    -0.361 OA
HETATM   22  H   UNL     1       9.502  20.138  52.597  1.00  0.00     0.217 HD
ENDBRANCH  17  21
ENDBRANCH  12  15
ENDBRANCH   1  11
BRANCH   8  23
HETATM   23  C   UNL     1       3.563  26.047  48.509  1.00  0.00     0.409 C 
HETATM   24  F   UNL     1       3.569  24.974  49.333  1.00  0.00    -0.169 F 
HETATM   25  F   UNL     1       2.268  26.248  48.145  1.00  0.00    -0.169 F 
HETATM   26  F   UNL     1       4.221  25.714  47.379  1.00  0.00    -0.169 F 
ENDBRANCH   8  23
BRANCH   6  27
HETATM   27  C   UNL     1       4.166  30.519  49.687  1.00  0.00    -0.035 A 
HETATM   28  C   UNL     1       3.865  31.021  48.407  1.00  0.00     0.012 A 
HETATM   29  C   UNL     1       4.659  32.012  47.822  1.00  0.00     0.043 A 
HETATM   30  C   UNL     1       5.756  32.510  48.511  1.00  0.00     0.116 A 
HETATM   31  F   UNL     1       6.520  33.453  47.945  1.00  0.00    -0.206 F 
HETATM   32  C   UNL     1       6.072  32.043  49.779  1.00  0.00     0.043 A 
HETATM   33  C   UNL     1       5.279  31.053  50.366  1.00  0.00     0.012 A 
ENDBRANCH   6  27
TORSDOF 5
ENDMDL
MODEL 10
REMARK VINA RESULT:      -9.4      4.408      9.857
REMARK  5 active torsions:
REMARK  status: ('A' for Active; 'I' for Inactive)
REMARK    1  A    between atoms: C_3  and  O_4 
REMARK    2  A    between atoms: C_6  and  N_7 
REMARK       I    between atoms: N_7  and  C_8 
REMARK    3  A    between atoms: C_8  and  C_9 
REMARK    4  A    between atoms: C_14  and  C_15 
REMARK    5  A    between atoms: C_23  and  C_24 
ROOT
HETATM    1  C   UNL     1       7.015  32.728  61.361  1.00  0.00     0.148 A 
HETATM    2  N   UNL     1       6.725  34.038  61.536  1.00  0.00    -0.165 NA
HETATM    3  N   UNL     1       5.807  34.034  62.520  1.00  0.00    -0.240 N 
HETATM    4  C   UNL     1       5.549  32.786  63.021  1.00  0.00     0.123 A 
HETATM    5  N   UNL     1       4.722  32.599  64.074  1.00  0.00    -0.366 N 
HETATM    6  C   UNL     1       4.233  33.723  64.865  1.00  0.00     0.118 C 
HETATM    7  C   UNL     1       4.061  34.965  63.980  1.00  0.00     0.066 C 
HETATM    8  C   UNL     1       5.301  35.259  63.115  1.00  0.00     0.221 C 
HETATM    9  C   UNL     1       6.295  31.914  62.274  1.00  0.00     0.089 A 
HETATM   10  H   UNL     1       4.695  31.697  64.547  1.00  0.00     0.161 HD
ENDROOT
BRANCH   1  11
HETATM   11  C   UNL     1       7.980  32.266  60.345  1.00  0.00     0.276 C 
HETATM   12  N   UNL     1       7.641  31.026  59.840  1.00  0.00    -0.322 N 
HETATM   13  H   UNL     1       6.804  30.632  60.264  1.00  0.00     0.169 HD
HETATM   14  O   UNL     1       8.953  32.945  60.039  1.00  0.00    -0.266 OA
BRANCH  12  15
HETATM   15  C   UNL     1       8.313  30.266  58.867  1.00  0.00     0.037 A 
HETATM   16  C   UNL     1       9.626  30.506  58.460  1.00  0.00     0.066 A 
HETATM   17  C   UNL     1      10.213  29.700  57.486  1.00  0.00     0.067 A 
HETATM   18  C   UNL     1       9.514  28.645  56.909  1.00  0.00     0.036 A 
HETATM   19  C   UNL     1       8.203  28.400  57.311  1.00  0.00     0.005 A 
HETATM   20  C   UNL     1       7.605  29.209  58.280  1.00  0.00     0.029 A 
BRANCH  17  21
HETATM   21  O   UNL     1      11.497  29.981  57.116  1.00  0.00    -0.361 OA
HETATM   22  H   UNL     1      11.747  29.395  56.384  1.00  0.00     0.217 HD
ENDBRANCH  17  21
ENDBRANCH  12  15
ENDBRANCH   1  11
BRANCH   8  23
HETATM   23  C   UNL     1       4.950  36.292  62.065  1.00  0.00     0.409 C 
HETATM   24  F   UNL     1       4.451  35.734  60.938  1.00  0.00    -0.169 F 
HETATM   25  F   UNL     1       3.987  37.124  62.544  1.00  0.00    -0.169 F 
HETATM   26  F   UNL     1       5.988  37.082  61.719  1.00  0.00    -0.169 F 
ENDBRANCH   8  23
BRANCH   6  27
HETATM   27  C   UNL     1       5.074  33.973  66.109  1.00  0.00    -0.035 A 
HETATM   28  C   UNL     1       6.480  33.987  66.096  1.00  0.00     0.012 A 
HETATM   29  C   UNL     1       7.206  34.208  67.271  1.00  0.00     0.043 A 
HETATM   30  C   UNL     1       6.531  34.421  68.465  1.00  0.00     0.116 A 
HETATM   31  F   UNL     1       7.227  34.624  69.590  1.00  0.00    -0.206 F 
HETATM   32  C   UNL     1       5.144  34.423  68.508  1.00  0.00     0.043 A 
HETATM   33  C   UNL     1       4.418  34.204  67.334  1.00  0.00     0.012 A 
ENDBRANCH   6  27
TORSDOF 5
ENDMDL
