MODEL 1
REMARK VINA RESULT:      -9.7      0.000      0.000
REMARK  3 active torsions:
REMARK  status: ('A' for Active; 'I' for Inactive)
REMARK    1  A    between atoms: O_2  and  C_3 
REMARK    2  A    between atoms: C_5  and  N_15 
REMARK    3  A    between atoms: C_8  and  C_9 
ROOT
HETATM    1  C   UNL     1       4.189  26.679  49.097  1.00  0.00     0.177 A 
HETATM    2  N   UNL     1       5.002  26.059  49.983  1.00  0.00    -0.206 NA
HETATM    3  C   UNL     1       5.274  26.638  51.163  1.00  0.00     0.135 A 
HETATM    4  C   UNL     1       4.735  27.880  51.478  1.00  0.00     0.052 A 
HETATM    5  C   UNL     1       3.887  28.516  50.565  1.00  0.00     0.020 A 
HETATM    6  C   UNL     1       3.588  27.915  49.339  1.00  0.00     0.030 A 
ENDROOT
BRANCH   3   7
HETATM    7  N   UNL     1       6.125  25.957  52.061  1.00  0.00    -0.302 N 
HETATM    8  C   UNL     1       7.521  26.259  52.236  1.00  0.00     0.135 C 
HETATM    9  C   UNL     1       7.893  25.537  53.520  1.00  0.00     0.040 C 
HETATM   10  C   UNL     1       6.975  24.309  53.518  1.00  0.00     0.051 C 
HETATM   11  C   UNL     1       7.537  23.148  52.656  1.00  0.00     0.058 C 
HETATM   12  C   UNL     1       6.690  23.760  54.931  1.00  0.00     0.058 C 
HETATM   13  C   UNL     1       5.727  24.859  52.841  1.00  0.00     0.234 C 
HETATM   14  C   UNL     1       7.909  22.124  53.680  1.00  0.00    -0.051 A 
HETATM   15  C   UNL     1       8.584  20.932  53.468  1.00  0.00     0.007 A 
HETATM   16  C   UNL     1       7.437  22.465  54.946  1.00  0.00    -0.051 A 
HETATM   17  C   UNL     1       8.785  20.078  54.555  1.00  0.00     0.001 A 
HETATM   18  C   UNL     1       8.310  20.421  55.829  1.00  0.00     0.001 A 
HETATM   19  C   UNL     1       7.628  21.622  56.030  1.00  0.00     0.007 A 
HETATM   20  O   UNL     1       4.624  24.348  52.950  1.00  0.00    -0.272 OA
ENDBRANCH   3   7
BRANCH   1  21
HETATM   21  O   UNL     1       3.933  26.037  47.901  1.00  0.00    -0.339 OA
HETATM   22  C   UNL     1       3.050  24.924  48.035  1.00  0.00     0.211 C 
ENDBRANCH   1  21
BRANCH   6  23
HETATM   23  C   UNL     1       2.708  28.573  48.384  1.00  0.00     0.015 A 
HETATM   24  C   UNL     1       2.992  29.339  47.227  1.00  0.00     0.152 A 
HETATM   25  N   UNL     1       1.890  29.776  46.610  1.00  0.00    -0.187 NA
HETATM   26  N   UNL     1       0.894  29.274  47.355  1.00  0.00    -0.289 N 
HETATM   27  H   UNL     1      -0.061  29.462  47.068  1.00  0.00     0.188 HD
HETATM   28  C   UNL     1       1.328  28.555  48.431  1.00  0.00     0.123 A 
ENDBRANCH   6  23
TORSDOF 3
ENDMDL
MODEL 2
REMARK VINA RESULT:      -9.0      1.701      2.430
REMARK  3 active torsions:
REMARK  status: ('A' for Active; 'I' for Inactive)
REMARK    1  A    between atoms: O_2  and  C_3 
REMARK    2  A    between atoms: C_5  and  N_15 
REMARK    3  A    between atoms: C_8  and  C_9 
ROOT
HETATM    1  C   UNL     1       4.063  29.029  51.714  1.00  0.00     0.177 A 
HETATM    2  N   UNL     1       4.880  28.216  52.423  1.00  0.00    -0.206 NA
HETATM    3  C   UNL     1       5.353  27.090  51.866  1.00  0.00     0.135 A 
HETATM    4  C   UNL     1       4.998  26.745  50.566  1.00  0.00     0.052 A 
HETATM    5  C   UNL     1       4.160  27.592  49.832  1.00  0.00     0.020 A 
HETATM    6  C   UNL     1       3.673  28.773  50.399  1.00  0.00     0.030 A 
ENDROOT
BRANCH   3   7
HETATM    7  N   UNL     1       6.205  26.270  52.637  1.00  0.00    -0.302 N 
HETATM    8  C   UNL     1       7.610  26.519  52.824  1.00  0.00     0.135 C 
HETATM    9  C   UNL     1       7.991  25.611  53.981  1.00  0.00     0.040 C 
HETATM   10  C   UNL     1       7.049  24.413  53.820  1.00  0.00     0.051 C 
HETATM   11  C   UNL     1       7.571  23.381  52.785  1.00  0.00     0.058 C 
HETATM   12  C   UNL     1       6.779  23.668  55.142  1.00  0.00     0.058 C 
HETATM   13  C   UNL     1       5.800  25.077  53.256  1.00  0.00     0.234 C 
HETATM   14  C   UNL     1       7.941  22.212  53.640  1.00  0.00    -0.051 A 
HETATM   15  C   UNL     1       8.588  21.052  53.243  1.00  0.00     0.007 A 
HETATM   16  C   UNL     1       7.500  22.371  54.953  1.00  0.00    -0.051 A 
HETATM   17  C   UNL     1       8.792  20.044  54.189  1.00  0.00     0.001 A 
HETATM   18  C   UNL     1       8.348  20.206  55.509  1.00  0.00     0.001 A 
HETATM   19  C   UNL     1       7.694  21.376  55.898  1.00  0.00     0.007 A 
HETATM   20  O   UNL     1       4.689  24.575  53.313  1.00  0.00    -0.272 OA
ENDBRANCH   3   7
BRANCH   1  21
HETATM   21  O   UNL     1       3.612  30.181  52.329  1.00  0.00    -0.339 OA
HETATM   22  C   UNL     1       3.539  30.071  53.750  1.00  0.00     0.211 C 
ENDBRANCH   1  21
BRANCH   6  23
HETATM   23  C   UNL     1       2.799  29.656  49.641  1.00  0.00     0.015 A 
HETATM   24  C   UNL     1       1.387  29.742  49.576  1.00  0.00     0.152 A 
HETATM   25  N   UNL     1       0.963  30.702  48.749  1.00  0.00    -0.187 NA
HETATM   26  N   UNL     1       2.100  31.251  48.296  1.00  0.00    -0.289 N 
HETATM   27  H   UNL     1       2.032  32.031  47.651  1.00  0.00     0.188 HD
HETATM   28  C   UNL     1       3.225  30.658  48.791  1.00  0.00     0.123 A 
ENDBRANCH   6  23
TORSDOF 3
ENDMDL
MODEL 3
REMARK VINA RESULT:      -8.9      5.974      7.331
REMARK  3 active torsions:
REMARK  status: ('A' for Active; 'I' for Inactive)
REMARK    1  A    between atoms: O_2  and  C_3 
REMARK    2  A    between atoms: C_5  and  N_15 
REMARK    3  A    between atoms: C_8  and  C_9 
ROOT
HETATM    1  C   UNL     1       6.327  30.142  58.017  1.00  0.00     0.177 A 
HETATM    2  N   UNL     1       6.974  28.978  57.773  1.00  0.00    -0.206 NA
HETATM    3  C   UNL     1       6.357  27.997  57.097  1.00  0.00     0.135 A 
HETATM    4  C   UNL     1       5.050  28.163  56.652  1.00  0.00     0.052 A 
HETATM    5  C   UNL     1       4.386  29.370  56.896  1.00  0.00     0.020 A 
HETATM    6  C   UNL     1       5.024  30.402  57.590  1.00  0.00     0.030 A 
ENDROOT
BRANCH   3   7
HETATM    7  N   UNL     1       7.067  26.800  56.861  1.00  0.00    -0.302 N 
HETATM    8  C   UNL     1       8.503  26.706  56.836  1.00  0.00     0.135 C 
HETATM    9  C   UNL     1       8.772  25.212  56.912  1.00  0.00     0.040 C 
HETATM   10  C   UNL     1       7.568  24.595  56.192  1.00  0.00     0.051 C 
HETATM   11  C   UNL     1       7.739  24.587  54.650  1.00  0.00     0.058 C 
HETATM   12  C   UNL     1       7.261  23.153  56.645  1.00  0.00     0.058 C 
HETATM   13  C   UNL     1       6.459  25.572  56.554  1.00  0.00     0.234 C 
HETATM   14  C   UNL     1       7.909  23.134  54.342  1.00  0.00    -0.051 A 
HETATM   15  C   UNL     1       8.230  22.567  53.118  1.00  0.00     0.007 A 
HETATM   16  C   UNL     1       7.642  22.336  55.453  1.00  0.00    -0.051 A 
HETATM   17  C   UNL     1       8.286  21.174  53.023  1.00  0.00     0.001 A 
HETATM   18  C   UNL     1       8.018  20.372  54.141  1.00  0.00     0.001 A 
HETATM   19  C   UNL     1       7.691  20.953  55.367  1.00  0.00     0.007 A 
HETATM   20  O   UNL     1       5.272  25.289  56.504  1.00  0.00    -0.272 OA
ENDBRANCH   3   7
BRANCH   1  21
HETATM   21  O   UNL     1       7.009  31.124  58.709  1.00  0.00    -0.339 OA
HETATM   22  C   UNL     1       8.182  30.643  59.363  1.00  0.00     0.211 C 
ENDBRANCH   1  21
BRANCH   6  23
HETATM   23  C   UNL     1       4.337  31.659  57.849  1.00  0.00     0.015 A 
HETATM   24  C   UNL     1       3.645  32.126  58.992  1.00  0.00     0.152 A 
HETATM   25  N   UNL     1       3.147  33.355  58.831  1.00  0.00    -0.187 NA
HETATM   26  N   UNL     1       3.536  33.692  57.592  1.00  0.00    -0.289 N 
HETATM   27  H   UNL     1       3.284  34.611  57.243  1.00  0.00     0.188 HD
HETATM   28  C   UNL     1       4.242  32.711  56.958  1.00  0.00     0.123 A 
ENDBRANCH   6  23
TORSDOF 3
ENDMDL
MODEL 4
REMARK VINA RESULT:      -8.9      5.496      9.219
REMARK  3 active torsions:
REMARK  status: ('A' for Active; 'I' for Inactive)
REMARK    1  A    between atoms: O_2  and  C_3 
REMARK    2  A    between atoms: C_5  and  N_15 
REMARK    3  A    between atoms: C_8  and  C_9 
ROOT
HETATM    1  C   UNL     1       7.865  24.111  54.066  1.00  0.00     0.177 A 
HETATM    2  N   UNL     1       7.703  25.400  54.444  1.00  0.00    -0.206 NA
HETATM    3  C   UNL     1       8.009  25.775  55.696  1.00  0.00     0.135 A 
HETATM    4  C   UNL     1       8.483  24.843  56.614  1.00  0.00     0.052 A 
HETATM    5  C   UNL     1       8.659  23.513  56.218  1.00  0.00     0.020 A 
HETATM    6  C   UNL     1       8.354  23.116  54.913  1.00  0.00     0.030 A 
ENDROOT
BRANCH   3   7
HETATM    7  N   UNL     1       7.829  27.129  56.051  1.00  0.00    -0.302 N 
HETATM    8  C   UNL     1       7.917  28.225  55.123  1.00  0.00     0.135 C 
HETATM    9  C   UNL     1       7.306  29.393  55.877  1.00  0.00     0.040 C 
HETATM   10  C   UNL     1       7.656  29.097  57.340  1.00  0.00     0.051 C 
HETATM   11  C   UNL     1       9.091  29.556  57.712  1.00  0.00     0.058 C 
HETATM   12  C   UNL     1       6.675  29.737  58.342  1.00  0.00     0.058 C 
HETATM   13  C   UNL     1       7.609  27.575  57.364  1.00  0.00     0.234 C 
HETATM   14  C   UNL     1       8.843  30.709  58.630  1.00  0.00    -0.051 A 
HETATM   15  C   UNL     1       9.784  31.579  59.159  1.00  0.00     0.007 A 
HETATM   16  C   UNL     1       7.498  30.810  58.982  1.00  0.00    -0.051 A 
HETATM   17  C   UNL     1       9.355  32.564  60.051  1.00  0.00     0.001 A 
HETATM   18  C   UNL     1       8.002  32.665  60.404  1.00  0.00     0.001 A 
HETATM   19  C   UNL     1       7.063  31.782  59.870  1.00  0.00     0.007 A 
HETATM   20  O   UNL     1       7.467  26.925  58.388  1.00  0.00    -0.272 OA
ENDBRANCH   3   7
BRANCH   1  21
HETATM   21  O   UNL     1       7.544  23.779  52.764  1.00  0.00    -0.339 OA
HETATM   22  C   UNL     1       7.642  24.878  51.859  1.00  0.00     0.211 C 
ENDBRANCH   1  21
BRANCH   6  23
HETATM   23  C   UNL     1       8.533  21.733  54.496  1.00  0.00     0.015 A 
HETATM   24  C   UNL     1       8.340  21.102  53.243  1.00  0.00     0.152 A 
HETATM   25  N   UNL     1       8.618  19.796  53.270  1.00  0.00    -0.187 NA
HETATM   26  N   UNL     1       9.013  19.585  54.534  1.00  0.00    -0.289 N 
HETATM   27  H   UNL     1       9.299  18.648  54.798  1.00  0.00     0.188 HD
HETATM   28  C   UNL     1       8.973  20.707  55.311  1.00  0.00     0.123 A 
ENDBRANCH   6  23
TORSDOF 3
ENDMDL
MODEL 5
REMARK VINA RESULT:      -8.7      4.436      5.602
REMARK  3 active torsions:
REMARK  status: ('A' for Active; 'I' for Inactive)
REMARK    1  A    between atoms: O_2  and  C_3 
REMARK    2  A    between atoms: C_5  and  N_15 
REMARK    3  A    between atoms: C_8  and  C_9 
ROOT
HETATM    1  C   UNL     1       4.799  29.576  54.979  1.00  0.00     0.177 A 
HETATM    2  N   UNL     1       5.551  28.454  55.062  1.00  0.00    -0.206 NA
HETATM    3  C   UNL     1       5.963  28.009  56.260  1.00  0.00     0.135 A 
HETATM    4  C   UNL     1       5.630  28.702  57.419  1.00  0.00     0.052 A 
HETATM    5  C   UNL     1       4.845  29.856  57.332  1.00  0.00     0.020 A 
HETATM    6  C   UNL     1       4.402  30.320  56.090  1.00  0.00     0.030 A 
ENDROOT
BRANCH   3   7
HETATM    7  N   UNL     1       6.743  26.834  56.304  1.00  0.00    -0.302 N 
HETATM    8  C   UNL     1       8.159  26.815  56.558  1.00  0.00     0.135 C 
HETATM    9  C   UNL     1       8.457  25.356  56.860  1.00  0.00     0.040 C 
HETATM   10  C   UNL     1       7.433  24.598  56.007  1.00  0.00     0.051 C 
HETATM   11  C   UNL     1       7.895  24.429  54.536  1.00  0.00     0.058 C 
HETATM   12  C   UNL     1       7.092  23.202  56.564  1.00  0.00     0.058 C 
HETATM   13  C   UNL     1       6.244  25.549  56.038  1.00  0.00     0.234 C 
HETATM   14  C   UNL     1       8.167  22.962  54.440  1.00  0.00    -0.051 A 
HETATM   15  C   UNL     1       8.735  22.281  53.374  1.00  0.00     0.007 A 
HETATM   16  C   UNL     1       7.720  22.279  55.569  1.00  0.00    -0.051 A 
HETATM   17  C   UNL     1       8.852  20.891  53.457  1.00  0.00     0.001 A 
HETATM   18  C   UNL     1       8.401  20.204  54.593  1.00  0.00     0.001 A 
HETATM   19  C   UNL     1       7.828  20.899  55.659  1.00  0.00     0.007 A 
HETATM   20  O   UNL     1       5.099  25.198  55.802  1.00  0.00    -0.272 OA
ENDBRANCH   3   7
BRANCH   1  21
HETATM   21  O   UNL     1       4.394  29.986  53.724  1.00  0.00    -0.339 OA
HETATM   22  C   UNL     1       3.678  28.983  53.005  1.00  0.00     0.211 C 
ENDBRANCH   1  21
BRANCH   6  23
HETATM   23  C   UNL     1       3.586  31.522  55.994  1.00  0.00     0.015 A 
HETATM   24  C   UNL     1       2.244  31.709  55.587  1.00  0.00     0.152 A 
HETATM   25  N   UNL     1       1.858  32.987  55.640  1.00  0.00    -0.187 NA
HETATM   26  N   UNL     1       2.944  33.624  56.103  1.00  0.00    -0.289 N 
HETATM   27  H   UNL     1       2.888  34.626  56.247  1.00  0.00     0.188 HD
HETATM   28  C   UNL     1       4.007  32.796  56.322  1.00  0.00     0.123 A 
ENDBRANCH   6  23
TORSDOF 3
ENDMDL
MODEL 6
REMARK VINA RESULT:      -8.6      4.965      9.180
REMARK  3 active torsions:
REMARK  status: ('A' for Active; 'I' for Inactive)
REMARK    1  A    between atoms: O_2  and  C_3 
REMARK    2  A    between atoms: C_5  and  N_15 
REMARK    3  A    between atoms: C_8  and  C_9 
ROOT
HETATM    1  C   UNL     1       7.975  23.935  55.428  1.00  0.00     0.177 A 
HETATM    2  N   UNL     1       7.505  25.196  55.571  1.00  0.00    -0.206 NA
HETATM    3  C   UNL     1       6.605  25.678  54.700  1.00  0.00     0.135 A 
HETATM    4  C   UNL     1       6.158  24.894  53.642  1.00  0.00     0.052 A 
HETATM    5  C   UNL     1       6.638  23.587  53.501  1.00  0.00     0.020 A 
HETATM    6  C   UNL     1       7.567  23.072  54.410  1.00  0.00     0.030 A 
ENDROOT
BRANCH   3   7
HETATM    7  N   UNL     1       6.137  26.997  54.886  1.00  0.00    -0.302 N 
HETATM    8  C   UNL     1       6.402  28.082  53.978  1.00  0.00     0.135 C 
HETATM    9  C   UNL     1       5.418  29.160  54.400  1.00  0.00     0.040 C 
HETATM   10  C   UNL     1       5.268  28.936  55.910  1.00  0.00     0.051 C 
HETATM   11  C   UNL     1       6.409  29.601  56.725  1.00  0.00     0.058 C 
HETATM   12  C   UNL     1       3.924  29.442  56.469  1.00  0.00     0.058 C 
HETATM   13  C   UNL     1       5.415  27.424  56.012  1.00  0.00     0.234 C 
HETATM   14  C   UNL     1       5.707  30.719  57.427  1.00  0.00    -0.051 A 
HETATM   15  C   UNL     1       6.281  31.721  58.193  1.00  0.00     0.007 A 
HETATM   16  C   UNL     1       4.323  30.630  57.285  1.00  0.00    -0.051 A 
HETATM   17  C   UNL     1       5.441  32.647  58.818  1.00  0.00     0.001 A 
HETATM   18  C   UNL     1       4.049  32.557  58.675  1.00  0.00     0.001 A 
HETATM   19  C   UNL     1       3.481  31.540  57.906  1.00  0.00     0.007 A 
HETATM   20  O   UNL     1       5.008  26.773  56.961  1.00  0.00    -0.272 OA
ENDBRANCH   3   7
BRANCH   1  21
HETATM   21  O   UNL     1       8.894  23.482  56.355  1.00  0.00    -0.339 OA
HETATM   22  C   UNL     1       8.987  24.314  57.511  1.00  0.00     0.211 C 
ENDBRANCH   1  21
BRANCH   6  23
HETATM   23  C   UNL     1       8.072  21.714  54.267  1.00  0.00     0.015 A 
HETATM   24  C   UNL     1       8.495  20.991  53.126  1.00  0.00     0.152 A 
HETATM   25  N   UNL     1       8.896  19.750  53.417  1.00  0.00    -0.187 NA
HETATM   26  N   UNL     1       8.754  19.678  54.748  1.00  0.00    -0.289 N 
HETATM   27  H   UNL     1       9.018  18.816  55.213  1.00  0.00     0.188 HD
HETATM   28  C   UNL     1       8.257  20.821  55.305  1.00  0.00     0.123 A 
ENDBRANCH   6  23
TORSDOF 3
ENDMDL
MODEL 7
REMARK VINA RESULT:      -8.5      6.461      7.989
REMARK  3 active torsions:
REMARK  status: ('A' for Active; 'I' for Inactive)
REMARK    1  A    between atoms: O_2  and  C_3 
REMARK    2  A    between atoms: C_5  and  N_15 
REMARK    3  A    between atoms: C_8  and  C_9 
ROOT
HETATM    1  C   UNL     1       4.296  31.033  57.695  1.00  0.00     0.177 A 
HETATM    2  N   UNL     1       4.972  29.918  57.334  1.00  0.00    -0.206 NA
HETATM    3  C   UNL     1       6.256  29.767  57.696  1.00  0.00     0.135 A 
HETATM    4  C   UNL     1       6.902  30.755  58.430  1.00  0.00     0.052 A 
HETATM    5  C   UNL     1       6.198  31.903  58.810  1.00  0.00     0.020 A 
HETATM    6  C   UNL     1       4.857  32.064  58.449  1.00  0.00     0.030 A 
ENDROOT
BRANCH   3   7
HETATM    7  N   UNL     1       6.926  28.588  57.302  1.00  0.00    -0.302 N 
HETATM    8  C   UNL     1       8.356  28.472  57.191  1.00  0.00     0.135 C 
HETATM    9  C   UNL     1       8.596  26.975  57.102  1.00  0.00     0.040 C 
HETATM   10  C   UNL     1       7.342  26.454  56.390  1.00  0.00     0.051 C 
HETATM   11  C   UNL     1       7.432  26.599  54.847  1.00  0.00     0.058 C 
HETATM   12  C   UNL     1       7.028  24.979  56.712  1.00  0.00     0.058 C 
HETATM   13  C   UNL     1       6.275  27.408  56.908  1.00  0.00     0.234 C 
HETATM   14  C   UNL     1       7.553  25.182  54.387  1.00  0.00    -0.051 A 
HETATM   15  C   UNL     1       7.797  24.737  53.097  1.00  0.00     0.007 A 
HETATM   16  C   UNL     1       7.327  24.280  55.425  1.00  0.00    -0.051 A 
HETATM   17  C   UNL     1       7.817  23.360  52.859  1.00  0.00     0.001 A 
HETATM   18  C   UNL     1       7.590  22.453  53.904  1.00  0.00     0.001 A 
HETATM   19  C   UNL     1       7.340  22.912  55.198  1.00  0.00     0.007 A 
HETATM   20  O   UNL     1       5.081  27.151  56.894  1.00  0.00    -0.272 OA
ENDBRANCH   3   7
BRANCH   1  21
HETATM   21  O   UNL     1       2.974  31.136  57.306  1.00  0.00    -0.339 OA
HETATM   22  C   UNL     1       2.803  31.190  55.891  1.00  0.00     0.211 C 
ENDBRANCH   1  21
BRANCH   6  23
HETATM   23  C   UNL     1       4.121  33.257  58.839  1.00  0.00     0.015 A 
HETATM   24  C   UNL     1       3.263  33.508  59.937  1.00  0.00     0.152 A 
HETATM   25  N   UNL     1       2.774  34.752  59.941  1.00  0.00    -0.187 NA
HETATM   26  N   UNL     1       3.334  35.313  58.860  1.00  0.00    -0.289 N 
HETATM   27  H   UNL     1       3.122  36.284  58.659  1.00  0.00     0.188 HD
HETATM   28  C   UNL     1       4.140  34.461  58.161  1.00  0.00     0.123 A 
ENDBRANCH   6  23
TORSDOF 3
ENDMDL
MODEL 8
REMARK VINA RESULT:      -8.5      5.532      7.217
REMARK  3 active torsions:
REMARK  status: ('A' for Active; 'I' for Inactive)
REMARK    1  A    between atoms: O_2  and  C_3 
REMARK    2  A    between atoms: C_5  and  N_15 
REMARK    3  A    between atoms: C_8  and  C_9 
ROOT
HETATM    1  C   UNL     1       6.050  30.606  57.416  1.00  0.00     0.177 A 
HETATM    2  N   UNL     1       6.181  29.283  57.164  1.00  0.00    -0.206 NA
HETATM    3  C   UNL     1       5.281  28.656  56.391  1.00  0.00     0.135 A 
HETATM    4  C   UNL     1       4.204  29.355  55.856  1.00  0.00     0.052 A 
HETATM    5  C   UNL     1       4.076  30.725  56.110  1.00  0.00     0.020 A 
HETATM    6  C   UNL     1       5.016  31.389  56.904  1.00  0.00     0.030 A 
ENDROOT
BRANCH   3   7
HETATM    7  N   UNL     1       5.454  27.276  56.149  1.00  0.00    -0.302 N 
HETATM    8  C   UNL     1       5.036  26.240  57.056  1.00  0.00     0.135 C 
HETATM    9  C   UNL     1       5.100  24.974  56.219  1.00  0.00     0.040 C 
HETATM   10  C   UNL     1       6.248  25.250  55.241  1.00  0.00     0.051 C 
HETATM   11  C   UNL     1       7.640  24.958  55.861  1.00  0.00     0.058 C 
HETATM   12  C   UNL     1       6.134  24.452  53.927  1.00  0.00     0.058 C 
HETATM   13  C   UNL     1       6.116  26.752  55.028  1.00  0.00     0.234 C 
HETATM   14  C   UNL     1       8.090  23.745  55.112  1.00  0.00    -0.051 A 
HETATM   15  C   UNL     1       9.218  22.978  55.355  1.00  0.00     0.007 A 
HETATM   16  C   UNL     1       7.252  23.464  54.034  1.00  0.00    -0.051 A 
HETATM   17  C   UNL     1       9.496  21.910  54.499  1.00  0.00     0.001 A 
HETATM   18  C   UNL     1       8.653  21.627  53.415  1.00  0.00     0.001 A 
HETATM   19  C   UNL     1       7.522  22.409  53.175  1.00  0.00     0.007 A 
HETATM   20  O   UNL     1       6.581  27.336  54.062  1.00  0.00    -0.272 OA
ENDBRANCH   3   7
BRANCH   1  21
HETATM   21  O   UNL     1       7.009  31.207  58.209  1.00  0.00    -0.339 OA
HETATM   22  C   UNL     1       8.053  30.319  58.604  1.00  0.00     0.211 C 
ENDBRANCH   1  21
BRANCH   6  23
HETATM   23  C   UNL     1       4.886  32.814  57.174  1.00  0.00     0.015 A 
HETATM   24  C   UNL     1       5.080  33.943  56.343  1.00  0.00     0.152 A 
HETATM   25  N   UNL     1       4.857  35.099  56.976  1.00  0.00    -0.187 NA
HETATM   26  N   UNL     1       4.495  34.716  58.209  1.00  0.00    -0.289 N 
HETATM   27  H   UNL     1       4.253  35.435  58.883  1.00  0.00     0.188 HD
HETATM   28  C   UNL     1       4.505  33.362  58.383  1.00  0.00     0.123 A 
ENDBRANCH   6  23
TORSDOF 3
ENDMDL
MODEL 9
REMARK VINA RESULT:      -8.3      2.648      9.105
REMARK  3 active torsions:
REMARK  status: ('A' for Active; 'I' for Inactive)
REMARK    1  A    between atoms: O_2  and  C_3 
REMARK    2  A    between atoms: C_5  and  N_15 
REMARK    3  A    between atoms: C_8  and  C_9 
ROOT
HETATM    1  C   UNL     1       6.738  24.338  54.703  1.00  0.00     0.177 A 
HETATM    2  N   UNL     1       6.272  25.455  54.098  1.00  0.00    -0.206 NA
HETATM    3  C   UNL     1       6.601  25.715  52.823  1.00  0.00     0.135 A 
HETATM    4  C   UNL     1       7.430  24.847  52.120  1.00  0.00     0.052 A 
HETATM    5  C   UNL     1       7.903  23.688  52.744  1.00  0.00     0.020 A 
HETATM    6  C   UNL     1       7.556  23.403  54.067  1.00  0.00     0.030 A 
ENDROOT
BRANCH   3   7
HETATM    7  N   UNL     1       6.091  26.889  52.227  1.00  0.00    -0.302 N 
HETATM    8  C   UNL     1       6.157  28.193  52.831  1.00  0.00     0.135 C 
HETATM    9  C   UNL     1       5.826  29.141  51.691  1.00  0.00     0.040 C 
HETATM   10  C   UNL     1       4.864  28.327  50.818  1.00  0.00     0.051 C 
HETATM   11  C   UNL     1       3.403  28.377  51.337  1.00  0.00     0.058 C 
HETATM   12  C   UNL     1       4.861  28.769  49.341  1.00  0.00     0.058 C 
HETATM   13  C   UNL     1       5.399  26.914  51.006  1.00  0.00     0.234 C 
HETATM   14  C   UNL     1       2.708  29.193  50.295  1.00  0.00    -0.051 A 
HETATM   15  C   UNL     1       1.403  29.662  50.326  1.00  0.00     0.007 A 
HETATM   16  C   UNL     1       3.519  29.410  49.183  1.00  0.00    -0.051 A 
HETATM   17  C   UNL     1       0.919  30.363  49.219  1.00  0.00     0.001 A 
HETATM   18  C   UNL     1       1.737  30.581  48.101  1.00  0.00     0.001 A 
HETATM   19  C   UNL     1       3.047  30.101  48.077  1.00  0.00     0.007 A 
HETATM   20  O   UNL     1       5.174  26.002  50.226  1.00  0.00    -0.272 OA
ENDBRANCH   3   7
BRANCH   1  21
HETATM   21  O   UNL     1       6.363  24.113  56.013  1.00  0.00    -0.339 OA
HETATM   22  C   UNL     1       5.658  25.208  56.596  1.00  0.00     0.211 C 
ENDBRANCH   1  21
BRANCH   6  23
HETATM   23  C   UNL     1       8.048  22.200  54.722  1.00  0.00     0.015 A 
HETATM   24  C   UNL     1       8.713  22.015  55.958  1.00  0.00     0.152 A 
HETATM   25  N   UNL     1       9.003  20.734  56.206  1.00  0.00    -0.187 NA
HETATM   26  N   UNL     1       8.506  20.089  55.141  1.00  0.00    -0.289 N 
HETATM   27  H   UNL     1       8.592  19.078  55.109  1.00  0.00     0.188 HD
HETATM   28  C   UNL     1       7.932  20.918  54.221  1.00  0.00     0.123 A 
ENDBRANCH   6  23
TORSDOF 3
ENDMDL
MODEL 10
REMARK VINA RESULT:      -8.3      7.047      9.077
REMARK  3 active torsions:
REMARK  status: ('A' for Active; 'I' for Inactive)
REMARK    1  A    between atoms: O_2  and  C_3 
REMARK    2  A    between atoms: C_5  and  N_15 
REMARK    3  A    between atoms: C_8  and  C_9 
ROOT
HETATM    1  C   UNL     1       6.262  31.652  58.555  1.00  0.00     0.177 A 
HETATM    2  N   UNL     1       6.291  30.715  57.580  1.00  0.00    -0.206 NA
HETATM    3  C   UNL     1       5.153  30.121  57.187  1.00  0.00     0.135 A 
HETATM    4  C   UNL     1       3.942  30.455  57.785  1.00  0.00     0.052 A 
HETATM    5  C   UNL     1       3.913  31.432  58.786  1.00  0.00     0.020 A 
HETATM    6  C   UNL     1       5.092  32.064  59.193  1.00  0.00     0.030 A 
ENDROOT
BRANCH   3   7
HETATM    7  N   UNL     1       5.224  29.150  56.165  1.00  0.00    -0.302 N 
HETATM    8  C   UNL     1       4.075  28.565  55.526  1.00  0.00     0.135 C 
HETATM    9  C   UNL     1       4.648  27.884  54.295  1.00  0.00     0.040 C 
HETATM   10  C   UNL     1       6.052  27.462  54.742  1.00  0.00     0.051 C 
HETATM   11  C   UNL     1       6.048  26.124  55.528  1.00  0.00     0.058 C 
HETATM   12  C   UNL     1       7.047  27.324  53.572  1.00  0.00     0.058 C 
HETATM   13  C   UNL     1       6.423  28.588  55.697  1.00  0.00     0.234 C 
HETATM   14  C   UNL     1       6.716  25.180  54.582  1.00  0.00    -0.051 A 
HETATM   15  C   UNL     1       6.860  23.809  54.725  1.00  0.00     0.007 A 
HETATM   16  C   UNL     1       7.273  25.848  53.492  1.00  0.00    -0.051 A 
HETATM   17  C   UNL     1       7.572  23.107  53.749  1.00  0.00     0.001 A 
HETATM   18  C   UNL     1       8.132  23.780  52.653  1.00  0.00     0.001 A 
HETATM   19  C   UNL     1       7.986  25.161  52.521  1.00  0.00     0.007 A 
HETATM   20  O   UNL     1       7.574  28.856  56.004  1.00  0.00    -0.272 OA
ENDBRANCH   3   7
BRANCH   1  21
HETATM   21  O   UNL     1       7.459  32.240  58.916  1.00  0.00    -0.339 OA
HETATM   22  C   UNL     1       8.402  31.316  59.458  1.00  0.00     0.211 C 
ENDBRANCH   1  21
BRANCH   6  23
HETATM   23  C   UNL     1       5.068  33.079  60.236  1.00  0.00     0.015 A 
HETATM   24  C   UNL     1       4.550  34.397  60.245  1.00  0.00     0.152 A 
HETATM   25  N   UNL     1       4.728  35.017  61.415  1.00  0.00    -0.187 NA
HETATM   26  N   UNL     1       5.341  34.093  62.170  1.00  0.00    -0.289 N 
HETATM   27  H   UNL     1       5.569  34.332  63.129  1.00  0.00     0.188 HD
HETATM   28  C   UNL     1       5.575  32.921  61.511  1.00  0.00     0.123 A 
ENDBRANCH   6  23
TORSDOF 3
ENDMDL
