MODEL 1
REMARK VINA RESULT:     -10.4      0.000      0.000
REMARK  6 active torsions:
REMARK  status: ('A' for Active; 'I' for Inactive)
REMARK    1  A    between atoms: C_4  and  N_5 
REMARK       I    between atoms: N_5  and  C_6 
REMARK    2  A    between atoms: C_6  and  C_7 
REMARK       I    between atoms: C_7  and  N_8 
REMARK    3  A    between atoms: N_8  and  C_9 
REMARK    4  A    between atoms: C_9  and  C_10 
REMARK    5  A    between atoms: C_10  and  C_11 
REMARK    6  A    between atoms: C_11  and  C_12 
ROOT
HETATM    1  C   UNL     1       9.787  30.132  57.940  1.00  0.00     0.309 C 
HETATM    2  N   UNL     1       8.763  29.236  57.724  1.00  0.00    -0.353 N 
HETATM    3  O   UNL     1      10.927  30.043  57.510  1.00  0.00    -0.262 OA
HETATM    4  H   UNL     1       7.888  29.433  58.203  1.00  0.00     0.162 HD
ENDROOT
BRANCH   1   5
HETATM    5  C   UNL     1       9.379  31.321  58.841  1.00  0.00     0.314 C 
HETATM    6  N   UNL     1       8.286  31.036  59.621  1.00  0.00    -0.317 N 
HETATM    7  H   UNL     1       7.888  30.097  59.528  1.00  0.00     0.169 HD
HETATM    8  O   UNL     1      10.028  32.356  58.771  1.00  0.00    -0.262 OA
BRANCH   6   9
HETATM    9  C   UNL     1       7.616  31.869  60.545  1.00  0.00     0.065 A 
HETATM   10  C   UNL     1       8.035  32.023  61.873  1.00  0.00     0.038 A 
HETATM   11  C   UNL     1       7.336  32.862  62.746  1.00  0.00    -0.059 A 
HETATM   12  C   UNL     1       7.783  33.040  64.168  1.00  0.00     0.048 C 
HETATM   13  C   UNL     1       6.213  33.548  62.275  1.00  0.00     0.020 A 
HETATM   14  C   UNL     1       5.786  33.397  60.946  1.00  0.00    -0.005 A 
HETATM   15  C   UNL     1       6.488  32.551  60.061  1.00  0.00     0.093 A 
HETATM   16  C   UNL     1       4.660  34.077  60.461  1.00  0.00     0.015 A 
HETATM   17  N   UNL     1       6.099  32.391  58.774  1.00  0.00    -0.258 NA
HETATM   18  C   UNL     1       5.008  33.063  58.344  1.00  0.00     0.117 A 
HETATM   19  C   UNL     1       4.264  33.909  59.140  1.00  0.00     0.020 A 
ENDBRANCH   6   9
ENDBRANCH   1   5
BRANCH   2  20
HETATM   20  C   UNL     1       8.954  27.984  57.029  1.00  0.00     0.123 C 
BRANCH  20  21
HETATM   21  C   UNL     1       7.761  27.042  57.176  1.00  0.00     0.024 C 
BRANCH  21  22
HETATM   22  C   UNL     1       7.477  26.259  55.892  1.00  0.00     0.042 C 
BRANCH  22  23
HETATM   23  C   UNL     1       7.849  24.816  56.015  1.00  0.00    -0.030 A 
HETATM   24  C   UNL     1       7.876  23.849  54.959  1.00  0.00    -0.002 A 
HETATM   25  C   UNL     1       8.279  22.634  55.514  1.00  0.00     0.042 A 
HETATM   26  C   UNL     1       7.588  23.895  53.578  1.00  0.00     0.014 A 
HETATM   27  C   UNL     1       8.413  21.463  54.758  1.00  0.00     0.030 A 
HETATM   28  N   UNL     1       8.492  22.854  56.855  1.00  0.00    -0.365 N 
HETATM   29  C   UNL     1       8.123  21.536  53.392  1.00  0.00     0.002 A 
HETATM   30  C   UNL     1       7.716  22.734  52.809  1.00  0.00     0.001 A 
HETATM   31  H   UNL     1       8.793  22.145  57.508  1.00  0.00     0.165 HD
HETATM   32  C   UNL     1       8.236  24.162  57.168  1.00  0.00     0.096 A 
ENDBRANCH  22  23
ENDBRANCH  21  22
ENDBRANCH  20  21
ENDBRANCH   2  20
TORSDOF 6
ENDMDL
MODEL 2
REMARK VINA RESULT:     -10.1      2.746      4.687
REMARK  6 active torsions:
REMARK  status: ('A' for Active; 'I' for Inactive)
REMARK    1  A    between atoms: C_4  and  N_5 
REMARK       I    between atoms: N_5  and  C_6 
REMARK    2  A    between atoms: C_6  and  C_7 
REMARK       I    between atoms: C_7  and  N_8 
REMARK    3  A    between atoms: N_8  and  C_9 
REMARK    4  A    between atoms: C_9  and  C_10 
REMARK    5  A    between atoms: C_10  and  C_11 
REMARK    6  A    between atoms: C_11  and  C_12 
ROOT
HETATM    1  C   UNL     1       4.865  28.106  54.761  1.00  0.00     0.309 C 
HETATM    2  N   UNL     1       4.986  26.769  54.451  1.00  0.00    -0.353 N 
HETATM    3  O   UNL     1       4.378  28.971  54.048  1.00  0.00    -0.262 OA
HETATM    4  H   UNL     1       5.469  26.193  55.138  1.00  0.00     0.162 HD
ENDROOT
BRANCH   1   5
HETATM    5  C   UNL     1       5.446  28.468  56.147  1.00  0.00     0.314 C 
HETATM    6  N   UNL     1       6.171  29.633  56.124  1.00  0.00    -0.317 N 
HETATM    7  H   UNL     1       6.230  30.119  55.225  1.00  0.00     0.169 HD
HETATM    8  O   UNL     1       5.227  27.714  57.086  1.00  0.00    -0.262 OA
BRANCH   6   9
HETATM    9  C   UNL     1       6.863  30.268  57.180  1.00  0.00     0.065 A 
HETATM   10  C   UNL     1       6.213  30.982  58.195  1.00  0.00     0.038 A 
HETATM   11  C   UNL     1       6.946  31.590  59.219  1.00  0.00    -0.059 A 
HETATM   12  C   UNL     1       6.257  32.351  60.314  1.00  0.00     0.048 C 
HETATM   13  C   UNL     1       8.339  31.472  59.217  1.00  0.00     0.020 A 
HETATM   14  C   UNL     1       8.997  30.759  58.203  1.00  0.00    -0.005 A 
HETATM   15  C   UNL     1       8.261  30.144  57.168  1.00  0.00     0.093 A 
HETATM   16  C   UNL     1      10.394  30.634  58.189  1.00  0.00     0.015 A 
HETATM   17  N   UNL     1       8.872  29.447  56.180  1.00  0.00    -0.258 NA
HETATM   18  C   UNL     1      10.220  29.351  56.201  1.00  0.00     0.117 A 
HETATM   19  C   UNL     1      11.016  29.920  57.173  1.00  0.00     0.020 A 
ENDBRANCH   6   9
ENDBRANCH   1   5
BRANCH   2  20
HETATM   20  C   UNL     1       4.638  26.232  53.156  1.00  0.00     0.123 C 
BRANCH  20  21
HETATM   21  C   UNL     1       5.193  24.826  52.935  1.00  0.00     0.024 C 
BRANCH  21  22
HETATM   22  C   UNL     1       6.717  24.774  53.068  1.00  0.00     0.042 C 
BRANCH  22  23
HETATM   23  C   UNL     1       7.158  23.885  54.185  1.00  0.00    -0.030 A 
HETATM   24  C   UNL     1       7.675  22.555  54.065  1.00  0.00    -0.002 A 
HETATM   25  C   UNL     1       7.960  22.098  55.351  1.00  0.00     0.042 A 
HETATM   26  C   UNL     1       7.924  21.694  52.975  1.00  0.00     0.014 A 
HETATM   27  C   UNL     1       8.484  20.824  55.604  1.00  0.00     0.030 A 
HETATM   28  N   UNL     1       7.631  23.110  56.222  1.00  0.00    -0.365 N 
HETATM   29  C   UNL     1       8.723  19.991  54.507  1.00  0.00     0.002 A 
HETATM   30  C   UNL     1       8.447  20.418  53.210  1.00  0.00     0.001 A 
HETATM   31  H   UNL     1       7.734  23.057  57.225  1.00  0.00     0.165 HD
HETATM   32  C   UNL     1       7.147  24.190  55.532  1.00  0.00     0.096 A 
ENDBRANCH  22  23
ENDBRANCH  21  22
ENDBRANCH  20  21
ENDBRANCH   2  20
TORSDOF 6
ENDMDL
MODEL 3
REMARK VINA RESULT:     -10.0      1.939      3.309
REMARK  6 active torsions:
REMARK  status: ('A' for Active; 'I' for Inactive)
REMARK    1  A    between atoms: C_4  and  N_5 
REMARK       I    between atoms: N_5  and  C_6 
REMARK    2  A    between atoms: C_6  and  C_7 
REMARK       I    between atoms: C_7  and  N_8 
REMARK    3  A    between atoms: N_8  and  C_9 
REMARK    4  A    between atoms: C_9  and  C_10 
REMARK    5  A    between atoms: C_10  and  C_11 
REMARK    6  A    between atoms: C_11  and  C_12 
ROOT
HETATM    1  C   UNL     1       7.376  28.830  56.089  1.00  0.00     0.309 C 
HETATM    2  N   UNL     1       6.774  28.843  54.849  1.00  0.00    -0.353 N 
HETATM    3  O   UNL     1       8.458  28.331  56.360  1.00  0.00    -0.262 OA
HETATM    4  H   UNL     1       5.844  29.253  54.808  1.00  0.00     0.162 HD
ENDROOT
BRANCH   1   5
HETATM    5  C   UNL     1       6.527  29.509  57.187  1.00  0.00     0.314 C 
HETATM    6  N   UNL     1       7.153  30.600  57.735  1.00  0.00    -0.317 N 
HETATM    7  H   UNL     1       8.074  30.838  57.356  1.00  0.00     0.169 HD
HETATM    8  O   UNL     1       5.435  29.028  57.461  1.00  0.00    -0.262 OA
BRANCH   6   9
HETATM    9  C   UNL     1       6.705  31.455  58.767  1.00  0.00     0.065 A 
HETATM   10  C   UNL     1       5.584  32.285  58.635  1.00  0.00     0.038 A 
HETATM   11  C   UNL     1       5.182  33.109  59.689  1.00  0.00    -0.059 A 
HETATM   12  C   UNL     1       3.978  33.996  59.559  1.00  0.00     0.048 C 
HETATM   13  C   UNL     1       5.913  33.093  60.881  1.00  0.00     0.020 A 
HETATM   14  C   UNL     1       7.038  32.264  61.021  1.00  0.00    -0.005 A 
HETATM   15  C   UNL     1       7.447  31.430  59.959  1.00  0.00     0.093 A 
HETATM   16  C   UNL     1       7.781  32.239  62.209  1.00  0.00     0.015 A 
HETATM   17  N   UNL     1       8.527  30.620  60.069  1.00  0.00    -0.258 NA
HETATM   18  C   UNL     1       9.218  30.624  61.230  1.00  0.00     0.117 A 
HETATM   19  C   UNL     1       8.888  31.407  62.317  1.00  0.00     0.020 A 
ENDBRANCH   6   9
ENDBRANCH   1   5
BRANCH   2  20
HETATM   20  C   UNL     1       7.321  28.147  53.707  1.00  0.00     0.123 C 
BRANCH  20  21
HETATM   21  C   UNL     1       6.649  26.797  53.464  1.00  0.00     0.024 C 
BRANCH  21  22
HETATM   22  C   UNL     1       7.664  25.681  53.204  1.00  0.00     0.042 C 
BRANCH  22  23
HETATM   23  C   UNL     1       7.648  24.641  54.278  1.00  0.00    -0.030 A 
HETATM   24  C   UNL     1       7.770  23.225  54.098  1.00  0.00    -0.002 A 
HETATM   25  C   UNL     1       7.706  22.634  55.359  1.00  0.00     0.042 A 
HETATM   26  C   UNL     1       7.926  22.390  52.971  1.00  0.00     0.014 A 
HETATM   27  C   UNL     1       7.793  21.250  55.554  1.00  0.00     0.030 A 
HETATM   28  N   UNL     1       7.552  23.651  56.273  1.00  0.00    -0.365 N 
HETATM   29  C   UNL     1       7.948  20.445  54.422  1.00  0.00     0.002 A 
HETATM   30  C   UNL     1       8.013  21.005  53.147  1.00  0.00     0.001 A 
HETATM   31  H   UNL     1       7.478  23.514  57.271  1.00  0.00     0.165 HD
HETATM   32  C   UNL     1       7.516  24.861  55.635  1.00  0.00     0.096 A 
ENDBRANCH  22  23
ENDBRANCH  21  22
ENDBRANCH  20  21
ENDBRANCH   2  20
TORSDOF 6
ENDMDL
MODEL 4
REMARK VINA RESULT:     -10.0      1.099      1.474
REMARK  6 active torsions:
REMARK  status: ('A' for Active; 'I' for Inactive)
REMARK    1  A    between atoms: C_4  and  N_5 
REMARK       I    between atoms: N_5  and  C_6 
REMARK    2  A    between atoms: C_6  and  C_7 
REMARK       I    between atoms: C_7  and  N_8 
REMARK    3  A    between atoms: N_8  and  C_9 
REMARK    4  A    between atoms: C_9  and  C_10 
REMARK    5  A    between atoms: C_10  and  C_11 
REMARK    6  A    between atoms: C_11  and  C_12 
ROOT
HETATM    1  C   UNL     1       9.213  30.423  58.108  1.00  0.00     0.309 C 
HETATM    2  N   UNL     1       8.343  29.354  58.132  1.00  0.00    -0.353 N 
HETATM    3  O   UNL     1      10.192  30.540  57.386  1.00  0.00    -0.262 OA
HETATM    4  H   UNL     1       7.609  29.391  58.836  1.00  0.00     0.162 HD
ENDROOT
BRANCH   1   5
HETATM    5  C   UNL     1       8.862  31.520  59.138  1.00  0.00     0.314 C 
HETATM    6  N   UNL     1       7.735  31.219  59.861  1.00  0.00    -0.317 N 
HETATM    7  H   UNL     1       7.280  30.327  59.651  1.00  0.00     0.169 HD
HETATM    8  O   UNL     1       9.578  32.511  59.202  1.00  0.00    -0.262 OA
BRANCH   6   9
HETATM    9  C   UNL     1       7.099  31.980  60.869  1.00  0.00     0.065 A 
HETATM   10  C   UNL     1       7.677  32.218  62.122  1.00  0.00     0.038 A 
HETATM   11  C   UNL     1       7.005  32.980  63.082  1.00  0.00    -0.059 A 
HETATM   12  C   UNL     1       7.621  33.246  64.425  1.00  0.00     0.048 C 
HETATM   13  C   UNL     1       5.746  33.503  62.774  1.00  0.00     0.020 A 
HETATM   14  C   UNL     1       5.159  33.267  61.519  1.00  0.00    -0.005 A 
HETATM   15  C   UNL     1       5.834  32.499  60.548  1.00  0.00     0.093 A 
HETATM   16  C   UNL     1       3.897  33.785  61.198  1.00  0.00     0.015 A 
HETATM   17  N   UNL     1       5.292  32.260  59.330  1.00  0.00    -0.258 NA
HETATM   18  C   UNL     1       4.073  32.775  59.057  1.00  0.00     0.117 A 
HETATM   19  C   UNL     1       3.344  33.536  59.948  1.00  0.00     0.020 A 
ENDBRANCH   6   9
ENDBRANCH   1   5
BRANCH   2  20
HETATM   20  C   UNL     1       8.556  28.155  57.355  1.00  0.00     0.123 C 
BRANCH  20  21
HETATM   21  C   UNL     1       7.465  27.110  57.577  1.00  0.00     0.024 C 
BRANCH  21  22
HETATM   22  C   UNL     1       7.957  25.688  57.297  1.00  0.00     0.042 C 
BRANCH  22  23
HETATM   23  C   UNL     1       7.449  25.159  55.994  1.00  0.00    -0.030 A 
HETATM   24  C   UNL     1       7.952  24.025  55.279  1.00  0.00    -0.002 A 
HETATM   25  C   UNL     1       7.187  23.887  54.120  1.00  0.00     0.042 A 
HETATM   26  C   UNL     1       8.995  23.103  55.509  1.00  0.00     0.014 A 
HETATM   27  C   UNL     1       7.410  22.873  53.181  1.00  0.00     0.030 A 
HETATM   28  N   UNL     1       6.254  24.897  54.131  1.00  0.00    -0.365 N 
HETATM   29  C   UNL     1       8.448  21.972  53.434  1.00  0.00     0.002 A 
HETATM   30  C   UNL     1       9.231  22.083  54.581  1.00  0.00     0.001 A 
HETATM   31  H   UNL     1       5.562  25.042  53.409  1.00  0.00     0.165 HD
HETATM   32  C   UNL     1       6.401  25.668  55.252  1.00  0.00     0.096 A 
ENDBRANCH  22  23
ENDBRANCH  21  22
ENDBRANCH  20  21
ENDBRANCH   2  20
TORSDOF 6
ENDMDL
MODEL 5
REMARK VINA RESULT:      -9.8      2.199     10.179
REMARK  6 active torsions:
REMARK  status: ('A' for Active; 'I' for Inactive)
REMARK    1  A    between atoms: C_4  and  N_5 
REMARK       I    between atoms: N_5  and  C_6 
REMARK    2  A    between atoms: C_6  and  C_7 
REMARK       I    between atoms: C_7  and  N_8 
REMARK    3  A    between atoms: N_8  and  C_9 
REMARK    4  A    between atoms: C_9  and  C_10 
REMARK    5  A    between atoms: C_10  and  C_11 
REMARK    6  A    between atoms: C_11  and  C_12 
ROOT
HETATM    1  C   UNL     1       7.123  28.153  57.681  1.00  0.00     0.309 C 
HETATM    2  N   UNL     1       6.261  29.155  57.289  1.00  0.00    -0.353 N 
HETATM    3  O   UNL     1       8.097  28.283  58.407  1.00  0.00    -0.262 OA
HETATM    4  H   UNL     1       5.530  28.884  56.634  1.00  0.00     0.162 HD
ENDROOT
BRANCH   1   5
HETATM    5  C   UNL     1       6.768  26.772  57.083  1.00  0.00     0.314 C 
HETATM    6  N   UNL     1       7.879  26.070  56.689  1.00  0.00    -0.317 N 
HETATM    7  H   UNL     1       8.785  26.521  56.843  1.00  0.00     0.169 HD
HETATM    8  O   UNL     1       5.588  26.454  57.011  1.00  0.00    -0.262 OA
BRANCH   6   9
HETATM    9  C   UNL     1       7.953  24.794  56.087  1.00  0.00     0.065 A 
HETATM   10  C   UNL     1       8.128  23.614  56.823  1.00  0.00     0.038 A 
HETATM   11  C   UNL     1       8.193  22.376  56.177  1.00  0.00    -0.059 A 
HETATM   12  C   UNL     1       8.372  21.107  56.958  1.00  0.00     0.048 C 
HETATM   13  C   UNL     1       8.079  22.331  54.785  1.00  0.00     0.020 A 
HETATM   14  C   UNL     1       7.905  23.509  54.040  1.00  0.00    -0.005 A 
HETATM   15  C   UNL     1       7.838  24.760  54.688  1.00  0.00     0.093 A 
HETATM   16  C   UNL     1       7.790  23.477  52.644  1.00  0.00     0.015 A 
HETATM   17  N   UNL     1       7.668  25.911  53.994  1.00  0.00    -0.258 NA
HETATM   18  C   UNL     1       7.563  25.840  52.649  1.00  0.00     0.117 A 
HETATM   19  C   UNL     1       7.616  24.660  51.935  1.00  0.00     0.020 A 
ENDBRANCH   6   9
ENDBRANCH   1   5
BRANCH   2  20
HETATM   20  C   UNL     1       6.480  30.545  57.612  1.00  0.00     0.123 C 
BRANCH  20  21
HETATM   21  C   UNL     1       5.228  31.224  58.165  1.00  0.00     0.024 C 
BRANCH  21  22
HETATM   22  C   UNL     1       5.484  32.678  58.567  1.00  0.00     0.042 C 
BRANCH  22  23
HETATM   23  C   UNL     1       5.462  32.868  60.050  1.00  0.00    -0.030 A 
HETATM   24  C   UNL     1       6.543  32.626  60.958  1.00  0.00    -0.002 A 
HETATM   25  C   UNL     1       6.090  32.934  62.240  1.00  0.00     0.042 A 
HETATM   26  C   UNL     1       7.868  32.167  60.805  1.00  0.00     0.014 A 
HETATM   27  C   UNL     1       6.896  32.810  63.379  1.00  0.00     0.030 A 
HETATM   28  N   UNL     1       4.784  33.349  62.118  1.00  0.00    -0.365 N 
HETATM   29  C   UNL     1       8.205  32.355  63.200  1.00  0.00     0.002 A 
HETATM   30  C   UNL     1       8.687  32.037  61.932  1.00  0.00     0.001 A 
HETATM   31  H   UNL     1       4.202  33.637  62.892  1.00  0.00     0.165 HD
HETATM   32  C   UNL     1       4.396  33.313  60.806  1.00  0.00     0.096 A 
ENDBRANCH  22  23
ENDBRANCH  21  22
ENDBRANCH  20  21
ENDBRANCH   2  20
TORSDOF 6
ENDMDL
MODEL 6
REMARK VINA RESULT:      -9.7      2.069     10.328
REMARK  6 active torsions:
REMARK  status: ('A' for Active; 'I' for Inactive)
REMARK    1  A    between atoms: C_4  and  N_5 
REMARK       I    between atoms: N_5  and  C_6 
REMARK    2  A    between atoms: C_6  and  C_7 
REMARK       I    between atoms: C_7  and  N_8 
REMARK    3  A    between atoms: N_8  and  C_9 
REMARK    4  A    between atoms: C_9  and  C_10 
REMARK    5  A    between atoms: C_10  and  C_11 
REMARK    6  A    between atoms: C_11  and  C_12 
ROOT
HETATM    1  C   UNL     1       7.142  29.583  57.488  1.00  0.00     0.309 C 
HETATM    2  N   UNL     1       8.381  29.365  58.050  1.00  0.00    -0.353 N 
HETATM    3  O   UNL     1       6.565  30.658  57.410  1.00  0.00    -0.262 OA
HETATM    4  H   UNL     1       8.692  28.397  58.082  1.00  0.00     0.162 HD
ENDROOT
BRANCH   1   5
HETATM    5  C   UNL     1       6.477  28.295  56.952  1.00  0.00     0.314 C 
HETATM    6  N   UNL     1       7.241  27.668  55.999  1.00  0.00    -0.317 N 
HETATM    7  H   UNL     1       8.138  28.105  55.771  1.00  0.00     0.169 HD
HETATM    8  O   UNL     1       5.383  27.975  57.396  1.00  0.00    -0.262 OA
BRANCH   6   9
HETATM    9  C   UNL     1       6.960  26.489  55.273  1.00  0.00     0.065 A 
HETATM   10  C   UNL     1       6.196  26.483  54.099  1.00  0.00     0.038 A 
HETATM   11  C   UNL     1       5.950  25.287  53.417  1.00  0.00    -0.059 A 
HETATM   12  C   UNL     1       5.139  25.272  52.154  1.00  0.00     0.048 C 
HETATM   13  C   UNL     1       6.479  24.096  53.923  1.00  0.00     0.020 A 
HETATM   14  C   UNL     1       7.245  24.095  55.100  1.00  0.00    -0.005 A 
HETATM   15  C   UNL     1       7.496  25.299  55.791  1.00  0.00     0.093 A 
HETATM   16  C   UNL     1       7.781  22.908  55.619  1.00  0.00     0.015 A 
HETATM   17  N   UNL     1       8.234  25.325  56.927  1.00  0.00    -0.258 NA
HETATM   18  C   UNL     1       8.732  24.160  57.396  1.00  0.00     0.117 A 
HETATM   19  C   UNL     1       8.536  22.939  56.785  1.00  0.00     0.020 A 
ENDBRANCH   6   9
ENDBRANCH   1   5
BRANCH   2  20
HETATM   20  C   UNL     1       9.122  30.398  58.735  1.00  0.00     0.123 C 
BRANCH  20  21
HETATM   21  C   UNL     1       8.773  30.486  60.219  1.00  0.00     0.024 C 
BRANCH  21  22
HETATM   22  C   UNL     1       8.773  31.928  60.733  1.00  0.00     0.042 C 
BRANCH  22  23
HETATM   23  C   UNL     1       7.440  32.337  61.271  1.00  0.00    -0.030 A 
HETATM   24  C   UNL     1       7.151  32.753  62.610  1.00  0.00    -0.002 A 
HETATM   25  C   UNL     1       5.788  33.044  62.675  1.00  0.00     0.042 A 
HETATM   26  C   UNL     1       7.927  32.904  63.780  1.00  0.00     0.014 A 
HETATM   27  C   UNL     1       5.161  33.482  63.847  1.00  0.00     0.030 A 
HETATM   28  N   UNL     1       5.268  32.815  61.422  1.00  0.00    -0.365 N 
HETATM   29  C   UNL     1       5.952  33.624  64.991  1.00  0.00     0.002 A 
HETATM   30  C   UNL     1       7.315  33.340  64.960  1.00  0.00     0.001 A 
HETATM   31  H   UNL     1       4.297  32.945  61.175  1.00  0.00     0.165 HD
HETATM   32  C   UNL     1       6.251  32.390  60.570  1.00  0.00     0.096 A 
ENDBRANCH  22  23
ENDBRANCH  21  22
ENDBRANCH  20  21
ENDBRANCH   2  20
TORSDOF 6
ENDMDL
MODEL 7
REMARK VINA RESULT:      -9.7      5.670      9.026
REMARK  6 active torsions:
REMARK  status: ('A' for Active; 'I' for Inactive)
REMARK    1  A    between atoms: C_4  and  N_5 
REMARK       I    between atoms: N_5  and  C_6 
REMARK    2  A    between atoms: C_6  and  C_7 
REMARK       I    between atoms: C_7  and  N_8 
REMARK    3  A    between atoms: N_8  and  C_9 
REMARK    4  A    between atoms: C_9  and  C_10 
REMARK    5  A    between atoms: C_10  and  C_11 
REMARK    6  A    between atoms: C_11  and  C_12 
ROOT
HETATM    1  C   UNL     1       6.272  27.623  53.862  1.00  0.00     0.309 C 
HETATM    2  N   UNL     1       5.756  27.052  55.005  1.00  0.00    -0.353 N 
HETATM    3  O   UNL     1       7.411  28.038  53.715  1.00  0.00    -0.262 OA
HETATM    4  H   UNL     1       4.768  26.810  54.977  1.00  0.00     0.162 HD
ENDROOT
BRANCH   1   5
HETATM    5  C   UNL     1       5.242  27.732  52.714  1.00  0.00     0.314 C 
HETATM    6  N   UNL     1       5.822  27.612  51.476  1.00  0.00    -0.317 N 
HETATM    7  H   UNL     1       6.833  27.457  51.457  1.00  0.00     0.169 HD
HETATM    8  O   UNL     1       4.066  27.917  53.001  1.00  0.00    -0.262 OA
BRANCH   6   9
HETATM    9  C   UNL     1       5.213  27.678  50.202  1.00  0.00     0.065 A 
HETATM   10  C   UNL     1       4.609  26.573  49.589  1.00  0.00     0.038 A 
HETATM   11  C   UNL     1       4.019  26.694  48.328  1.00  0.00    -0.059 A 
HETATM   12  C   UNL     1       3.363  25.517  47.667  1.00  0.00     0.048 C 
HETATM   13  C   UNL     1       4.039  27.936  47.686  1.00  0.00     0.020 A 
HETATM   14  C   UNL     1       4.644  29.048  48.294  1.00  0.00    -0.005 A 
HETATM   15  C   UNL     1       5.240  28.930  49.567  1.00  0.00     0.093 A 
HETATM   16  C   UNL     1       4.672  30.299  47.660  1.00  0.00     0.015 A 
HETATM   17  N   UNL     1       5.828  29.988  50.176  1.00  0.00    -0.258 NA
HETATM   18  C   UNL     1       5.835  31.176  49.533  1.00  0.00     0.117 A 
HETATM   19  C   UNL     1       5.277  31.380  48.288  1.00  0.00     0.020 A 
ENDBRANCH   6   9
ENDBRANCH   1   5
BRANCH   2  20
HETATM   20  C   UNL     1       6.495  26.975  56.243  1.00  0.00     0.123 C 
BRANCH  20  21
HETATM   21  C   UNL     1       7.398  25.745  56.314  1.00  0.00     0.024 C 
BRANCH  21  22
HETATM   22  C   UNL     1       6.626  24.443  56.088  1.00  0.00     0.042 C 
BRANCH  22  23
HETATM   23  C   UNL     1       7.131  23.684  54.903  1.00  0.00    -0.030 A 
HETATM   24  C   UNL     1       7.673  22.358  54.907  1.00  0.00    -0.002 A 
HETATM   25  C   UNL     1       8.016  22.042  53.592  1.00  0.00     0.042 A 
HETATM   26  C   UNL     1       7.906  21.396  55.913  1.00  0.00     0.014 A 
HETATM   27  C   UNL     1       8.579  20.812  53.231  1.00  0.00     0.030 A 
HETATM   28  N   UNL     1       7.696  23.133  52.818  1.00  0.00    -0.365 N 
HETATM   29  C   UNL     1       8.800  19.876  54.246  1.00  0.00     0.002 A 
HETATM   30  C   UNL     1       8.469  20.163  55.569  1.00  0.00     0.001 A 
HETATM   31  H   UNL     1       7.837  23.185  51.819  1.00  0.00     0.165 HD
HETATM   32  C   UNL     1       7.163  24.126  53.595  1.00  0.00     0.096 A 
ENDBRANCH  22  23
ENDBRANCH  21  22
ENDBRANCH  20  21
ENDBRANCH   2  20
TORSDOF 6
ENDMDL
MODEL 8
REMARK VINA RESULT:      -9.6      1.392      2.791
REMARK  6 active torsions:
REMARK  status: ('A' for Active; 'I' for Inactive)
REMARK    1  A    between atoms: C_4  and  N_5 
REMARK       I    between atoms: N_5  and  C_6 
REMARK    2  A    between atoms: C_6  and  C_7 
REMARK       I    between atoms: C_7  and  N_8 
REMARK    3  A    between atoms: N_8  and  C_9 
REMARK    4  A    between atoms: C_9  and  C_10 
REMARK    5  A    between atoms: C_10  and  C_11 
REMARK    6  A    between atoms: C_11  and  C_12 
ROOT
HETATM    1  C   UNL     1       7.702  29.888  58.471  1.00  0.00     0.309 C 
HETATM    2  N   UNL     1       6.538  29.415  57.907  1.00  0.00    -0.353 N 
HETATM    3  O   UNL     1       8.767  29.291  58.536  1.00  0.00    -0.262 OA
HETATM    4  H   UNL     1       5.724  30.020  57.987  1.00  0.00     0.162 HD
ENDROOT
BRANCH   1   5
HETATM    5  C   UNL     1       7.557  31.302  59.078  1.00  0.00     0.314 C 
HETATM    6  N   UNL     1       6.401  31.446  59.802  1.00  0.00    -0.317 N 
HETATM    7  H   UNL     1       5.794  30.624  59.866  1.00  0.00     0.169 HD
HETATM    8  O   UNL     1       8.437  32.124  58.858  1.00  0.00    -0.262 OA
BRANCH   6   9
HETATM    9  C   UNL     1       5.916  32.587  60.481  1.00  0.00     0.065 A 
HETATM   10  C   UNL     1       4.947  33.441  59.938  1.00  0.00     0.038 A 
HETATM   11  C   UNL     1       4.500  34.555  60.653  1.00  0.00    -0.059 A 
HETATM   12  C   UNL     1       3.457  35.471  60.082  1.00  0.00     0.048 C 
HETATM   13  C   UNL     1       5.033  34.806  61.921  1.00  0.00     0.020 A 
HETATM   14  C   UNL     1       6.006  33.955  62.471  1.00  0.00    -0.005 A 
HETATM   15  C   UNL     1       6.459  32.829  61.753  1.00  0.00     0.093 A 
HETATM   16  C   UNL     1       6.549  34.196  63.741  1.00  0.00     0.015 A 
HETATM   17  N   UNL     1       7.394  31.992  62.262  1.00  0.00    -0.258 NA
HETATM   18  C   UNL     1       7.895  32.258  63.489  1.00  0.00     0.117 A 
HETATM   19  C   UNL     1       7.508  33.335  64.259  1.00  0.00     0.020 A 
ENDBRANCH   6   9
ENDBRANCH   1   5
BRANCH   2  20
HETATM   20  C   UNL     1       6.404  28.067  57.405  1.00  0.00     0.123 C 
BRANCH  20  21
HETATM   21  C   UNL     1       7.216  27.829  56.133  1.00  0.00     0.024 C 
BRANCH  21  22
HETATM   22  C   UNL     1       6.751  26.587  55.370  1.00  0.00     0.042 C 
BRANCH  22  23
HETATM   23  C   UNL     1       7.599  25.392  55.664  1.00  0.00    -0.030 A 
HETATM   24  C   UNL     1       7.850  24.287  54.788  1.00  0.00    -0.002 A 
HETATM   25  C   UNL     1       8.693  23.401  55.461  1.00  0.00     0.042 A 
HETATM   26  C   UNL     1       7.433  23.956  53.481  1.00  0.00     0.014 A 
HETATM   27  C   UNL     1       9.142  22.203  54.893  1.00  0.00     0.030 A 
HETATM   28  N   UNL     1       8.946  23.947  56.698  1.00  0.00    -0.365 N 
HETATM   29  C   UNL     1       8.715  21.899  53.597  1.00  0.00     0.002 A 
HETATM   30  C   UNL     1       7.872  22.762  52.899  1.00  0.00     0.001 A 
HETATM   31  H   UNL     1       9.531  23.519  57.401  1.00  0.00     0.165 HD
HETATM   32  C   UNL     1       8.294  25.143  56.831  1.00  0.00     0.096 A 
ENDBRANCH  22  23
ENDBRANCH  21  22
ENDBRANCH  20  21
ENDBRANCH   2  20
TORSDOF 6
ENDMDL
MODEL 9
REMARK VINA RESULT:      -9.6      1.917      2.881
REMARK  6 active torsions:
REMARK  status: ('A' for Active; 'I' for Inactive)
REMARK    1  A    between atoms: C_4  and  N_5 
REMARK       I    between atoms: N_5  and  C_6 
REMARK    2  A    between atoms: C_6  and  C_7 
REMARK       I    between atoms: C_7  and  N_8 
REMARK    3  A    between atoms: N_8  and  C_9 
REMARK    4  A    between atoms: C_9  and  C_10 
REMARK    5  A    between atoms: C_10  and  C_11 
REMARK    6  A    between atoms: C_11  and  C_12 
ROOT
HETATM    1  C   UNL     1       7.910  28.631  55.649  1.00  0.00     0.309 C 
HETATM    2  N   UNL     1       6.878  27.912  55.086  1.00  0.00    -0.353 N 
HETATM    3  O   UNL     1       8.882  29.079  55.059  1.00  0.00    -0.262 OA
HETATM    4  H   UNL     1       6.172  27.564  55.731  1.00  0.00     0.162 HD
ENDROOT
BRANCH   1   5
HETATM    5  C   UNL     1       7.760  28.824  57.175  1.00  0.00     0.314 C 
HETATM    6  N   UNL     1       7.806  30.145  57.543  1.00  0.00    -0.317 N 
HETATM    7  H   UNL     1       7.918  30.828  56.789  1.00  0.00     0.169 HD
HETATM    8  O   UNL     1       7.631  27.831  57.879  1.00  0.00    -0.262 OA
BRANCH   6   9
HETATM    9  C   UNL     1       7.725  30.708  58.837  1.00  0.00     0.065 A 
HETATM   10  C   UNL     1       8.575  30.333  59.885  1.00  0.00     0.038 A 
HETATM   11  C   UNL     1       8.453  30.924  61.146  1.00  0.00    -0.059 A 
HETATM   12  C   UNL     1       9.365  30.534  62.272  1.00  0.00     0.048 C 
HETATM   13  C   UNL     1       7.470  31.897  61.347  1.00  0.00     0.020 A 
HETATM   14  C   UNL     1       6.613  32.278  60.301  1.00  0.00    -0.005 A 
HETATM   15  C   UNL     1       6.733  31.684  59.027  1.00  0.00     0.093 A 
HETATM   16  C   UNL     1       5.622  33.252  60.489  1.00  0.00     0.015 A 
HETATM   17  N   UNL     1       5.921  32.035  58.001  1.00  0.00    -0.258 NA
HETATM   18  C   UNL     1       4.978  32.977  58.222  1.00  0.00     0.117 A 
HETATM   19  C   UNL     1       4.791  33.608  59.435  1.00  0.00     0.020 A 
ENDBRANCH   6   9
ENDBRANCH   1   5
BRANCH   2  20
HETATM   20  C   UNL     1       6.879  27.493  53.703  1.00  0.00     0.123 C 
BRANCH  20  21
HETATM   21  C   UNL     1       7.680  26.213  53.477  1.00  0.00     0.024 C 
BRANCH  21  22
HETATM   22  C   UNL     1       7.471  25.190  54.597  1.00  0.00     0.042 C 
BRANCH  22  23
HETATM   23  C   UNL     1       7.676  23.786  54.126  1.00  0.00    -0.030 A 
HETATM   24  C   UNL     1       7.959  22.645  54.943  1.00  0.00    -0.002 A 
HETATM   25  C   UNL     1       8.071  21.541  54.098  1.00  0.00     0.042 A 
HETATM   26  C   UNL     1       8.136  22.450  56.330  1.00  0.00     0.014 A 
HETATM   27  C   UNL     1       8.348  20.251  54.567  1.00  0.00     0.030 A 
HETATM   28  N   UNL     1       7.863  21.993  52.815  1.00  0.00    -0.365 N 
HETATM   29  C   UNL     1       8.517  20.085  55.945  1.00  0.00     0.002 A 
HETATM   30  C   UNL     1       8.413  21.168  56.815  1.00  0.00     0.001 A 
HETATM   31  H   UNL     1       7.884  21.406  51.993  1.00  0.00     0.165 HD
HETATM   32  C   UNL     1       7.624  23.341  52.820  1.00  0.00     0.096 A 
ENDBRANCH  22  23
ENDBRANCH  21  22
ENDBRANCH  20  21
ENDBRANCH   2  20
TORSDOF 6
ENDMDL
MODEL 10
REMARK VINA RESULT:      -9.5      6.793     10.818
REMARK  6 active torsions:
REMARK  status: ('A' for Active; 'I' for Inactive)
REMARK    1  A    between atoms: C_4  and  N_5 
REMARK       I    between atoms: N_5  and  C_6 
REMARK    2  A    between atoms: C_6  and  C_7 
REMARK       I    between atoms: C_7  and  N_8 
REMARK    3  A    between atoms: N_8  and  C_9 
REMARK    4  A    between atoms: C_9  and  C_10 
REMARK    5  A    between atoms: C_10  and  C_11 
REMARK    6  A    between atoms: C_11  and  C_12 
ROOT
HETATM    1  C   UNL     1       5.110  27.003  52.052  1.00  0.00     0.309 C 
HETATM    2  N   UNL     1       4.435  26.927  50.852  1.00  0.00    -0.353 N 
HETATM    3  O   UNL     1       5.502  28.024  52.595  1.00  0.00    -0.262 OA
HETATM    4  H   UNL     1       4.230  25.989  50.514  1.00  0.00     0.162 HD
ENDROOT
BRANCH   1   5
HETATM    5  C   UNL     1       5.376  25.621  52.692  1.00  0.00     0.314 C 
HETATM    6  N   UNL     1       6.683  25.466  53.080  1.00  0.00    -0.317 N 
HETATM    7  H   UNL     1       7.307  26.261  52.917  1.00  0.00     0.169 HD
HETATM    8  O   UNL     1       4.446  24.830  52.780  1.00  0.00    -0.262 OA
BRANCH   6   9
HETATM    9  C   UNL     1       7.304  24.346  53.677  1.00  0.00     0.065 A 
HETATM   10  C   UNL     1       7.493  23.132  53.004  1.00  0.00     0.038 A 
HETATM   11  C   UNL     1       8.115  22.055  53.642  1.00  0.00    -0.059 A 
HETATM   12  C   UNL     1       8.329  20.753  52.926  1.00  0.00     0.048 C 
HETATM   13  C   UNL     1       8.549  22.207  54.962  1.00  0.00     0.020 A 
HETATM   14  C   UNL     1       8.362  23.420  55.644  1.00  0.00    -0.005 A 
HETATM   15  C   UNL     1       7.734  24.510  55.004  1.00  0.00     0.093 A 
HETATM   16  C   UNL     1       8.791  23.585  56.968  1.00  0.00     0.015 A 
HETATM   17  N   UNL     1       7.544  25.692  55.638  1.00  0.00    -0.258 NA
HETATM   18  C   UNL     1       7.971  25.812  56.914  1.00  0.00     0.117 A 
HETATM   19  C   UNL     1       8.593  24.799  57.615  1.00  0.00     0.020 A 
ENDBRANCH   6   9
ENDBRANCH   1   5
BRANCH   2  20
HETATM   20  C   UNL     1       4.201  28.078  50.013  1.00  0.00     0.123 C 
BRANCH  20  21
HETATM   21  C   UNL     1       5.273  28.250  48.939  1.00  0.00     0.024 C 
BRANCH  21  22
HETATM   22  C   UNL     1       5.043  27.334  47.735  1.00  0.00     0.042 C 
BRANCH  22  23
HETATM   23  C   UNL     1       3.599  26.990  47.553  1.00  0.00    -0.030 A 
HETATM   24  C   UNL     1       2.553  27.882  47.153  1.00  0.00    -0.002 A 
HETATM   25  C   UNL     1       1.368  27.146  47.109  1.00  0.00     0.042 A 
HETATM   26  C   UNL     1       2.504  29.254  46.827  1.00  0.00     0.014 A 
HETATM   27  C   UNL     1       0.138  27.711  46.753  1.00  0.00     0.030 A 
HETATM   28  N   UNL     1       1.682  25.856  47.468  1.00  0.00    -0.365 N 
HETATM   29  C   UNL     1       0.117  29.072  46.433  1.00  0.00     0.002 A 
HETATM   30  C   UNL     1       1.283  29.834  46.469  1.00  0.00     0.001 A 
HETATM   31  H   UNL     1       1.013  25.100  47.522  1.00  0.00     0.165 HD
HETATM   32  C   UNL     1       3.020  25.750  47.738  1.00  0.00     0.096 A 
ENDBRANCH  22  23
ENDBRANCH  21  22
ENDBRANCH  20  21
ENDBRANCH   2  20
TORSDOF 6
ENDMDL
