MODEL 1
REMARK VINA RESULT:     -10.3      0.000      0.000
REMARK  11 active torsions:
REMARK  status: ('A' for Active; 'I' for Inactive)
REMARK    1  A    between atoms: C_2  and  N_3 
REMARK    2  A    between atoms: N_3  and  C_5 
REMARK    3  A    between atoms: N_3  and  C_12 
REMARK    4  A    between atoms: C_5  and  C_6 
REMARK    5  A    between atoms: C_12  and  C_13 
REMARK    6  A    between atoms: C_13  and  N_14 
REMARK       I    between atoms: N_14  and  C_15 
REMARK    7  A    between atoms: C_15  and  C_16 
REMARK    8  A    between atoms: C_24  and  N_25 
REMARK    9  A    between atoms: N_25  and  C_26 
REMARK   10  A    between atoms: C_27  and  O_28 
REMARK   11  A    between atoms: C_31  and  O_32 
ROOT
HETATM    1  C   UNL     1       6.887  30.069  57.427  1.00  0.00     0.048 A 
HETATM    2  C   UNL     1       8.288  30.035  57.341  1.00  0.00     0.009 A 
HETATM    3  C   UNL     1       8.968  30.946  58.168  1.00  0.00     0.070 A 
HETATM    4  C   UNL     1      10.355  30.978  58.123  1.00  0.00     0.032 A 
HETATM    5  C   UNL     1      11.086  30.136  57.281  1.00  0.00     0.002 A 
HETATM    6  C   UNL     1      10.422  29.231  56.465  1.00  0.00     0.001 A 
HETATM    7  C   UNL     1       9.030  29.174  56.494  1.00  0.00     0.015 A 
HETATM    8  N   UNL     1       8.331  31.787  59.000  1.00  0.00    -0.231 NA
HETATM    9  C   UNL     1       6.985  31.803  59.057  1.00  0.00     0.129 A 
HETATM   10  C   UNL     1       6.227  30.958  58.271  1.00  0.00     0.068 A 
ENDROOT
BRANCH   1  11
HETATM   11  C   UNL     1       6.041  29.125  56.682  1.00  0.00     0.252 C 
HETATM   12  N   UNL     1       5.653  28.006  57.372  1.00  0.00    -0.355 N 
HETATM   13  H   UNL     1       5.982  27.927  58.332  1.00  0.00     0.162 HD
HETATM   14  O   UNL     1       5.768  29.342  55.508  1.00  0.00    -0.268 OA
BRANCH  12  15
HETATM   15  C   UNL     1       5.077  26.797  56.787  1.00  0.00     0.150 C 
BRANCH  15  16
HETATM   16  C   UNL     1       5.938  25.513  56.755  1.00  0.00     0.255 C 
BRANCH  16  17
HETATM   17  N   UNL     1       6.339  25.033  55.365  1.00  0.00    -0.062 N 
HETATM   18  H   UNL     1       5.711  24.217  55.210  1.00  0.00     0.280 HD
BRANCH  17  19
HETATM   19  C   UNL     1       6.017  25.972  54.212  1.00  0.00     0.180 C 
HETATM   20  C   UNL     1       5.160  25.270  53.158  1.00  0.00     0.039 C 
HETATM   21  C   UNL     1       7.279  26.573  53.609  1.00  0.00     0.039 C 
ENDBRANCH  17  19
BRANCH  17  22
HETATM   22  C   UNL     1       7.741  24.456  55.349  1.00  0.00     0.273 C 
BRANCH  22  23
HETATM   23  C   UNL     1       7.827  23.053  54.810  1.00  0.00    -0.033 A 
HETATM   24  C   UNL     1       7.952  22.825  53.431  1.00  0.00     0.009 A 
HETATM   25  C   UNL     1       8.028  21.524  52.932  1.00  0.00     0.001 A 
HETATM   26  C   UNL     1       7.981  20.438  53.804  1.00  0.00     0.000 A 
HETATM   27  C   UNL     1       7.861  20.651  55.175  1.00  0.00     0.001 A 
HETATM   28  C   UNL     1       7.786  21.950  55.679  1.00  0.00     0.009 A 
ENDBRANCH  22  23
ENDBRANCH  17  22
ENDBRANCH  16  17
ENDBRANCH  15  16
ENDBRANCH  12  15
ENDBRANCH   1  11
BRANCH   9  29
HETATM   29  N   UNL     1       6.304  32.672  59.928  1.00  0.00    -0.339 N 
HETATM   30  H   UNL     1       6.032  33.536  59.467  1.00  0.00     0.167 HD
BRANCH  29  31
HETATM   31  C   UNL     1       6.594  32.925  61.287  1.00  0.00     0.067 A 
HETATM   32  C   UNL     1       5.790  33.819  62.013  1.00  0.00     0.097 A 
HETATM   33  C   UNL     1       5.951  34.006  63.389  1.00  0.00     0.075 A 
HETATM   34  C   UNL     1       6.964  33.323  64.058  1.00  0.00     0.070 A 
HETATM   35  C   UNL     1       7.804  32.467  63.338  1.00  0.00     0.039 A 
HETATM   36  C   UNL     1       7.618  32.265  61.966  1.00  0.00     0.035 A 
BRANCH  32  37
HETATM   37  O   UNL     1       4.791  34.505  61.358  1.00  0.00    -0.354 OA
HETATM   38  C   UNL     1       3.650  34.611  62.216  1.00  0.00     0.210 C 
ENDBRANCH  32  37
BRANCH  34  39
HETATM   39  O   UNL     1       7.241  33.403  65.394  1.00  0.00    -0.356 OA
HETATM   40  C   UNL     1       6.289  34.080  66.208  1.00  0.00     0.210 C 
ENDBRANCH  34  39
ENDBRANCH  29  31
ENDBRANCH   9  29
TORSDOF 11
ENDMDL
MODEL 2
REMARK VINA RESULT:      -9.9      3.236     10.511
REMARK  11 active torsions:
REMARK  status: ('A' for Active; 'I' for Inactive)
REMARK    1  A    between atoms: C_2  and  N_3 
REMARK    2  A    between atoms: N_3  and  C_5 
REMARK    3  A    between atoms: N_3  and  C_12 
REMARK    4  A    between atoms: C_5  and  C_6 
REMARK    5  A    between atoms: C_12  and  C_13 
REMARK    6  A    between atoms: C_13  and  N_14 
REMARK       I    between atoms: N_14  and  C_15 
REMARK    7  A    between atoms: C_15  and  C_16 
REMARK    8  A    between atoms: C_24  and  N_25 
REMARK    9  A    between atoms: N_25  and  C_26 
REMARK   10  A    between atoms: C_27  and  O_28 
REMARK   11  A    between atoms: C_31  and  O_32 
ROOT
HETATM    1  C   UNL     1       6.246  25.214  55.080  1.00  0.00     0.048 A 
HETATM    2  C   UNL     1       7.069  24.141  54.703  1.00  0.00     0.009 A 
HETATM    3  C   UNL     1       6.995  23.765  53.351  1.00  0.00     0.070 A 
HETATM    4  C   UNL     1       7.770  22.701  52.912  1.00  0.00     0.032 A 
HETATM    5  C   UNL     1       8.613  21.998  53.775  1.00  0.00     0.002 A 
HETATM    6  C   UNL     1       8.696  22.365  55.111  1.00  0.00     0.001 A 
HETATM    7  C   UNL     1       7.933  23.433  55.577  1.00  0.00     0.015 A 
HETATM    8  N   UNL     1       6.203  24.394  52.465  1.00  0.00    -0.231 NA
HETATM    9  C   UNL     1       5.418  25.416  52.855  1.00  0.00     0.129 A 
HETATM   10  C   UNL     1       5.408  25.849  54.166  1.00  0.00     0.068 A 
ENDROOT
BRANCH   1  11
HETATM   11  C   UNL     1       6.270  25.771  56.440  1.00  0.00     0.252 C 
HETATM   12  N   UNL     1       6.942  26.958  56.583  1.00  0.00    -0.355 N 
HETATM   13  H   UNL     1       7.361  27.346  55.740  1.00  0.00     0.162 HD
HETATM   14  O   UNL     1       5.753  25.154  57.364  1.00  0.00    -0.268 OA
BRANCH  12  15
HETATM   15  C   UNL     1       7.363  27.555  57.847  1.00  0.00     0.150 C 
BRANCH  15  16
HETATM   16  C   UNL     1       7.498  29.094  57.926  1.00  0.00     0.255 C 
BRANCH  16  17
HETATM   17  N   UNL     1       8.920  29.615  58.094  1.00  0.00    -0.062 N 
HETATM   18  H   UNL     1       9.238  29.146  58.968  1.00  0.00     0.280 HD
BRANCH  17  19
HETATM   19  C   UNL     1       9.927  29.167  57.045  1.00  0.00     0.180 C 
HETATM   20  C   UNL     1      11.284  29.837  57.269  1.00  0.00     0.039 C 
HETATM   21  C   UNL     1       9.407  29.397  55.633  1.00  0.00     0.039 C 
ENDBRANCH  17  19
BRANCH  17  22
HETATM   22  C   UNL     1       8.944  31.097  58.414  1.00  0.00     0.273 C 
BRANCH  22  23
HETATM   23  C   UNL     1       8.608  31.427  59.844  1.00  0.00    -0.033 A 
HETATM   24  C   UNL     1       7.551  32.301  60.144  1.00  0.00     0.009 A 
HETATM   25  C   UNL     1       7.242  32.609  61.470  1.00  0.00     0.001 A 
HETATM   26  C   UNL     1       7.985  32.050  62.508  1.00  0.00     0.000 A 
HETATM   27  C   UNL     1       9.034  31.179  62.223  1.00  0.00     0.001 A 
HETATM   28  C   UNL     1       9.345  30.866  60.900  1.00  0.00     0.009 A 
ENDBRANCH  22  23
ENDBRANCH  17  22
ENDBRANCH  16  17
ENDBRANCH  15  16
ENDBRANCH  12  15
ENDBRANCH   1  11
BRANCH   9  29
HETATM   29  N   UNL     1       4.591  26.089  51.939  1.00  0.00    -0.339 N 
HETATM   30  H   UNL     1       4.027  25.445  51.391  1.00  0.00     0.167 HD
BRANCH  29  31
HETATM   31  C   UNL     1       4.918  27.221  51.158  1.00  0.00     0.067 A 
HETATM   32  C   UNL     1       4.760  27.170  49.763  1.00  0.00     0.097 A 
HETATM   33  C   UNL     1       4.942  28.299  48.959  1.00  0.00     0.075 A 
HETATM   34  C   UNL     1       5.336  29.500  49.545  1.00  0.00     0.070 A 
HETATM   35  C   UNL     1       5.544  29.551  50.926  1.00  0.00     0.039 A 
HETATM   36  C   UNL     1       5.333  28.425  51.728  1.00  0.00     0.035 A 
BRANCH  32  37
HETATM   37  O   UNL     1       4.378  25.985  49.174  1.00  0.00    -0.354 OA
HETATM   38  C   UNL     1       3.254  26.222  48.321  1.00  0.00     0.210 C 
ENDBRANCH  32  37
BRANCH  34  39
HETATM   39  O   UNL     1       5.551  30.680  48.890  1.00  0.00    -0.356 OA
HETATM   40  C   UNL     1       5.982  31.783  49.679  1.00  0.00     0.210 C 
ENDBRANCH  34  39
ENDBRANCH  29  31
ENDBRANCH   9  29
TORSDOF 11
ENDMDL
MODEL 3
REMARK VINA RESULT:      -9.6      4.442      8.092
REMARK  11 active torsions:
REMARK  status: ('A' for Active; 'I' for Inactive)
REMARK    1  A    between atoms: C_2  and  N_3 
REMARK    2  A    between atoms: N_3  and  C_5 
REMARK    3  A    between atoms: N_3  and  C_12 
REMARK    4  A    between atoms: C_5  and  C_6 
REMARK    5  A    between atoms: C_12  and  C_13 
REMARK    6  A    between atoms: C_13  and  N_14 
REMARK       I    between atoms: N_14  and  C_15 
REMARK    7  A    between atoms: C_15  and  C_16 
REMARK    8  A    between atoms: C_24  and  N_25 
REMARK    9  A    between atoms: N_25  and  C_26 
REMARK   10  A    between atoms: C_27  and  O_28 
REMARK   11  A    between atoms: C_31  and  O_32 
ROOT
HETATM    1  C   UNL     1       7.568  24.142  54.453  1.00  0.00     0.048 A 
HETATM    2  C   UNL     1       7.835  22.829  54.872  1.00  0.00     0.009 A 
HETATM    3  C   UNL     1       8.180  22.684  56.227  1.00  0.00     0.070 A 
HETATM    4  C   UNL     1       8.472  21.415  56.707  1.00  0.00     0.032 A 
HETATM    5  C   UNL     1       8.436  20.288  55.882  1.00  0.00     0.002 A 
HETATM    6  C   UNL     1       8.092  20.423  54.545  1.00  0.00     0.001 A 
HETATM    7  C   UNL     1       7.788  21.684  54.038  1.00  0.00     0.015 A 
HETATM    8  N   UNL     1       8.238  23.724  57.077  1.00  0.00    -0.231 NA
HETATM    9  C   UNL     1       7.984  24.974  56.646  1.00  0.00     0.129 A 
HETATM   10  C   UNL     1       7.652  25.222  55.329  1.00  0.00     0.068 A 
ENDROOT
BRANCH   1  11
HETATM   11  C   UNL     1       7.120  24.445  53.085  1.00  0.00     0.252 C 
HETATM   12  N   UNL     1       5.815  24.850  52.966  1.00  0.00    -0.355 N 
HETATM   13  H   UNL     1       5.276  24.906  53.827  1.00  0.00     0.162 HD
HETATM   14  O   UNL     1       7.882  24.282  52.141  1.00  0.00    -0.268 OA
BRANCH  12  15
HETATM   15  C   UNL     1       5.052  24.919  51.722  1.00  0.00     0.150 C 
BRANCH  15  16
HETATM   16  C   UNL     1       5.226  26.163  50.819  1.00  0.00     0.255 C 
BRANCH  16  17
HETATM   17  N   UNL     1       4.191  27.263  51.022  1.00  0.00    -0.062 N 
HETATM   18  H   UNL     1       3.294  26.734  51.068  1.00  0.00     0.280 HD
BRANCH  17  19
HETATM   19  C   UNL     1       4.252  28.007  52.347  1.00  0.00     0.180 C 
HETATM   20  C   UNL     1       3.261  29.172  52.366  1.00  0.00     0.039 C 
HETATM   21  C   UNL     1       5.669  28.460  52.671  1.00  0.00     0.039 C 
ENDBRANCH  17  19
BRANCH  17  22
HETATM   22  C   UNL     1       4.059  28.147  49.796  1.00  0.00     0.273 C 
BRANCH  22  23
HETATM   23  C   UNL     1       3.094  27.632  48.762  1.00  0.00    -0.033 A 
HETATM   24  C   UNL     1       1.780  28.122  48.707  1.00  0.00     0.009 A 
HETATM   25  C   UNL     1       0.884  27.642  47.751  1.00  0.00     0.001 A 
HETATM   26  C   UNL     1       1.291  26.669  46.840  1.00  0.00     0.000 A 
HETATM   27  C   UNL     1       2.593  26.177  46.882  1.00  0.00     0.001 A 
HETATM   28  C   UNL     1       3.493  26.655  47.835  1.00  0.00     0.009 A 
ENDBRANCH  22  23
ENDBRANCH  17  22
ENDBRANCH  16  17
ENDBRANCH  15  16
ENDBRANCH  12  15
ENDBRANCH   1  11
BRANCH   9  29
HETATM   29  N   UNL     1       8.033  26.071  57.525  1.00  0.00    -0.339 N 
HETATM   30  H   UNL     1       7.969  25.781  58.497  1.00  0.00     0.167 HD
BRANCH  29  31
HETATM   31  C   UNL     1       7.417  27.331  57.359  1.00  0.00     0.067 A 
HETATM   32  C   UNL     1       8.206  28.457  57.074  1.00  0.00     0.097 A 
HETATM   33  C   UNL     1       7.639  29.699  56.773  1.00  0.00     0.075 A 
HETATM   34  C   UNL     1       6.254  29.842  56.797  1.00  0.00     0.070 A 
HETATM   35  C   UNL     1       5.458  28.741  57.128  1.00  0.00     0.039 A 
HETATM   36  C   UNL     1       6.032  27.495  57.401  1.00  0.00     0.035 A 
BRANCH  32  37
HETATM   37  O   UNL     1       9.578  28.327  57.055  1.00  0.00    -0.354 OA
HETATM   38  C   UNL     1      10.167  29.587  56.719  1.00  0.00     0.210 C 
ENDBRANCH  32  37
BRANCH  34  39
HETATM   39  O   UNL     1       5.559  30.987  56.525  1.00  0.00    -0.356 OA
HETATM   40  C   UNL     1       4.714  30.970  55.380  1.00  0.00     0.210 C 
ENDBRANCH  34  39
ENDBRANCH  29  31
ENDBRANCH   9  29
TORSDOF 11
ENDMDL
MODEL 4
REMARK VINA RESULT:      -9.5      1.679      3.127
REMARK  11 active torsions:
REMARK  status: ('A' for Active; 'I' for Inactive)
REMARK    1  A    between atoms: C_2  and  N_3 
REMARK    2  A    between atoms: N_3  and  C_5 
REMARK    3  A    between atoms: N_3  and  C_12 
REMARK    4  A    between atoms: C_5  and  C_6 
REMARK    5  A    between atoms: C_12  and  C_13 
REMARK    6  A    between atoms: C_13  and  N_14 
REMARK       I    between atoms: N_14  and  C_15 
REMARK    7  A    between atoms: C_15  and  C_16 
REMARK    8  A    between atoms: C_24  and  N_25 
REMARK    9  A    between atoms: N_25  and  C_26 
REMARK   10  A    between atoms: C_27  and  O_28 
REMARK   11  A    between atoms: C_31  and  O_32 
ROOT
HETATM    1  C   UNL     1       6.508  29.850  57.010  1.00  0.00     0.048 A 
HETATM    2  C   UNL     1       5.509  30.605  56.375  1.00  0.00     0.009 A 
HETATM    3  C   UNL     1       5.286  31.886  56.910  1.00  0.00     0.070 A 
HETATM    4  C   UNL     1       4.301  32.682  56.341  1.00  0.00     0.032 A 
HETATM    5  C   UNL     1       3.532  32.244  55.261  1.00  0.00     0.002 A 
HETATM    6  C   UNL     1       3.750  30.983  54.724  1.00  0.00     0.001 A 
HETATM    7  C   UNL     1       4.735  30.165  55.272  1.00  0.00     0.015 A 
HETATM    8  N   UNL     1       5.985  32.371  57.950  1.00  0.00    -0.231 NA
HETATM    9  C   UNL     1       6.933  31.622  58.545  1.00  0.00     0.129 A 
HETATM   10  C   UNL     1       7.216  30.344  58.103  1.00  0.00     0.068 A 
ENDROOT
BRANCH   1  11
HETATM   11  C   UNL     1       6.910  28.524  56.518  1.00  0.00     0.252 C 
HETATM   12  N   UNL     1       6.355  27.456  57.176  1.00  0.00    -0.355 N 
HETATM   13  H   UNL     1       5.720  27.673  57.941  1.00  0.00     0.162 HD
HETATM   14  O   UNL     1       7.727  28.428  55.612  1.00  0.00    -0.268 OA
BRANCH  12  15
HETATM   15  C   UNL     1       6.807  26.070  57.089  1.00  0.00     0.150 C 
BRANCH  15  16
HETATM   16  C   UNL     1       5.919  25.052  56.336  1.00  0.00     0.255 C 
BRANCH  16  17
HETATM   17  N   UNL     1       6.390  24.692  54.932  1.00  0.00    -0.062 N 
HETATM   18  H   UNL     1       5.874  23.809  54.732  1.00  0.00     0.280 HD
BRANCH  17  19
HETATM   19  C   UNL     1       5.959  25.634  53.817  1.00  0.00     0.180 C 
HETATM   20  C   UNL     1       4.886  24.987  52.940  1.00  0.00     0.039 C 
HETATM   21  C   UNL     1       7.149  26.114  52.997  1.00  0.00     0.039 C 
ENDBRANCH  17  19
BRANCH  17  22
HETATM   22  C   UNL     1       7.855  24.301  54.910  1.00  0.00     0.273 C 
BRANCH  22  23
HETATM   23  C   UNL     1       8.104  22.846  54.610  1.00  0.00    -0.033 A 
HETATM   24  C   UNL     1       8.524  21.971  55.623  1.00  0.00     0.009 A 
HETATM   25  C   UNL     1       8.758  20.624  55.344  1.00  0.00     0.001 A 
HETATM   26  C   UNL     1       8.574  20.138  54.051  1.00  0.00     0.000 A 
HETATM   27  C   UNL     1       8.154  20.995  53.037  1.00  0.00     0.001 A 
HETATM   28  C   UNL     1       7.918  22.342  53.312  1.00  0.00     0.009 A 
ENDBRANCH  22  23
ENDBRANCH  17  22
ENDBRANCH  16  17
ENDBRANCH  15  16
ENDBRANCH  12  15
ENDBRANCH   1  11
BRANCH   9  29
HETATM   29  N   UNL     1       7.679  32.118  59.629  1.00  0.00    -0.339 N 
HETATM   30  H   UNL     1       8.626  31.747  59.640  1.00  0.00     0.167 HD
BRANCH  29  31
HETATM   31  C   UNL     1       7.233  32.331  60.952  1.00  0.00     0.067 A 
HETATM   32  C   UNL     1       8.126  32.153  62.022  1.00  0.00     0.097 A 
HETATM   33  C   UNL     1       7.776  32.476  63.336  1.00  0.00     0.075 A 
HETATM   34  C   UNL     1       6.492  32.946  63.606  1.00  0.00     0.070 A 
HETATM   35  C   UNL     1       5.578  33.082  62.557  1.00  0.00     0.039 A 
HETATM   36  C   UNL     1       5.945  32.783  61.241  1.00  0.00     0.035 A 
BRANCH  32  37
HETATM   37  O   UNL     1       9.394  31.681  61.765  1.00  0.00    -0.354 OA
HETATM   38  C   UNL     1       9.451  30.285  62.078  1.00  0.00     0.210 C 
ENDBRANCH  32  37
BRANCH  34  39
HETATM   39  O   UNL     1       6.009  33.302  64.835  1.00  0.00    -0.356 OA
HETATM   40  C   UNL     1       6.954  33.788  65.781  1.00  0.00     0.210 C 
ENDBRANCH  34  39
ENDBRANCH  29  31
ENDBRANCH   9  29
TORSDOF 11
ENDMDL
MODEL 5
REMARK VINA RESULT:      -9.5      3.926     11.144
REMARK  11 active torsions:
REMARK  status: ('A' for Active; 'I' for Inactive)
REMARK    1  A    between atoms: C_2  and  N_3 
REMARK    2  A    between atoms: N_3  and  C_5 
REMARK    3  A    between atoms: N_3  and  C_12 
REMARK    4  A    between atoms: C_5  and  C_6 
REMARK    5  A    between atoms: C_12  and  C_13 
REMARK    6  A    between atoms: C_13  and  N_14 
REMARK       I    between atoms: N_14  and  C_15 
REMARK    7  A    between atoms: C_15  and  C_16 
REMARK    8  A    between atoms: C_24  and  N_25 
REMARK    9  A    between atoms: N_25  and  C_26 
REMARK   10  A    between atoms: C_27  and  O_28 
REMARK   11  A    between atoms: C_31  and  O_32 
ROOT
HETATM    1  C   UNL     1       5.383  27.393  53.695  1.00  0.00     0.048 A 
HETATM    2  C   UNL     1       5.947  26.150  54.023  1.00  0.00     0.009 A 
HETATM    3  C   UNL     1       6.305  25.339  52.931  1.00  0.00     0.070 A 
HETATM    4  C   UNL     1       6.854  24.090  53.183  1.00  0.00     0.032 A 
HETATM    5  C   UNL     1       7.056  23.620  54.483  1.00  0.00     0.002 A 
HETATM    6  C   UNL     1       6.710  24.416  55.565  1.00  0.00     0.001 A 
HETATM    7  C   UNL     1       6.161  25.677  55.342  1.00  0.00     0.015 A 
HETATM    8  N   UNL     1       6.136  25.724  51.655  1.00  0.00    -0.231 NA
HETATM    9  C   UNL     1       5.585  26.919  51.369  1.00  0.00     0.129 A 
HETATM   10  C   UNL     1       5.186  27.780  52.372  1.00  0.00     0.068 A 
ENDROOT
BRANCH   1  11
HETATM   11  C   UNL     1       5.029  28.381  54.724  1.00  0.00     0.252 C 
HETATM   12  N   UNL     1       5.992  29.318  55.001  1.00  0.00    -0.355 N 
HETATM   13  H   UNL     1       6.860  29.247  54.474  1.00  0.00     0.162 HD
HETATM   14  O   UNL     1       3.954  28.303  55.305  1.00  0.00    -0.268 OA
BRANCH  12  15
HETATM   15  C   UNL     1       6.014  30.203  56.163  1.00  0.00     0.150 C 
BRANCH  15  16
HETATM   16  C   UNL     1       6.357  29.597  57.544  1.00  0.00     0.255 C 
BRANCH  16  17
HETATM   17  N   UNL     1       7.818  29.719  57.962  1.00  0.00    -0.062 N 
HETATM   18  H   UNL     1       7.861  29.142  58.828  1.00  0.00     0.280 HD
BRANCH  17  19
HETATM   19  C   UNL     1       8.838  29.075  57.036  1.00  0.00     0.180 C 
HETATM   20  C   UNL     1       8.752  27.550  57.104  1.00  0.00     0.039 C 
HETATM   21  C   UNL     1      10.248  29.578  57.318  1.00  0.00     0.039 C 
ENDBRANCH  17  19
BRANCH  17  22
HETATM   22  C   UNL     1       8.160  31.126  58.414  1.00  0.00     0.273 C 
BRANCH  22  23
HETATM   23  C   UNL     1       8.146  31.318  59.907  1.00  0.00    -0.033 A 
HETATM   24  C   UNL     1       7.290  32.262  60.497  1.00  0.00     0.009 A 
HETATM   25  C   UNL     1       7.281  32.442  61.880  1.00  0.00     0.001 A 
HETATM   26  C   UNL     1       8.125  31.683  62.689  1.00  0.00     0.000 A 
HETATM   27  C   UNL     1       8.976  30.741  62.116  1.00  0.00     0.001 A 
HETATM   28  C   UNL     1       8.988  30.556  60.734  1.00  0.00     0.009 A 
ENDBRANCH  22  23
ENDBRANCH  17  22
ENDBRANCH  16  17
ENDBRANCH  15  16
ENDBRANCH  12  15
ENDBRANCH   1  11
BRANCH   9  29
HETATM   29  N   UNL     1       5.410  27.340  50.039  1.00  0.00    -0.339 N 
HETATM   30  H   UNL     1       5.800  28.265  49.878  1.00  0.00     0.167 HD
BRANCH  29  31
HETATM   31  C   UNL     1       4.273  27.152  49.222  1.00  0.00     0.067 A 
HETATM   32  C   UNL     1       3.384  28.220  49.015  1.00  0.00     0.097 A 
HETATM   33  C   UNL     1       2.318  28.129  48.115  1.00  0.00     0.075 A 
HETATM   34  C   UNL     1       2.099  26.934  47.433  1.00  0.00     0.070 A 
HETATM   35  C   UNL     1       2.948  25.847  47.667  1.00  0.00     0.039 A 
HETATM   36  C   UNL     1       4.028  25.955  48.549  1.00  0.00     0.035 A 
BRANCH  32  37
HETATM   37  O   UNL     1       3.588  29.403  49.690  1.00  0.00    -0.354 OA
HETATM   38  C   UNL     1       2.525  29.602  50.627  1.00  0.00     0.210 C 
ENDBRANCH  32  37
BRANCH  34  39
HETATM   39  O   UNL     1       1.104  26.697  46.527  1.00  0.00    -0.356 OA
HETATM   40  C   UNL     1       0.211  27.771  46.256  1.00  0.00     0.210 C 
ENDBRANCH  34  39
ENDBRANCH  29  31
ENDBRANCH   9  29
TORSDOF 11
ENDMDL
MODEL 6
REMARK VINA RESULT:      -9.3      2.432     10.554
REMARK  11 active torsions:
REMARK  status: ('A' for Active; 'I' for Inactive)
REMARK    1  A    between atoms: C_2  and  N_3 
REMARK    2  A    between atoms: N_3  and  C_5 
REMARK    3  A    between atoms: N_3  and  C_12 
REMARK    4  A    between atoms: C_5  and  C_6 
REMARK    5  A    between atoms: C_12  and  C_13 
REMARK    6  A    between atoms: C_13  and  N_14 
REMARK       I    between atoms: N_14  and  C_15 
REMARK    7  A    between atoms: C_15  and  C_16 
REMARK    8  A    between atoms: C_24  and  N_25 
REMARK    9  A    between atoms: N_25  and  C_26 
REMARK   10  A    between atoms: C_27  and  O_28 
REMARK   11  A    between atoms: C_31  and  O_32 
ROOT
HETATM    1  C   UNL     1       5.310  29.291  57.301  1.00  0.00     0.048 A 
HETATM    2  C   UNL     1       6.679  29.511  57.527  1.00  0.00     0.009 A 
HETATM    3  C   UNL     1       7.536  28.484  57.095  1.00  0.00     0.070 A 
HETATM    4  C   UNL     1       8.901  28.627  57.301  1.00  0.00     0.032 A 
HETATM    5  C   UNL     1       9.439  29.755  57.925  1.00  0.00     0.002 A 
HETATM    6  C   UNL     1       8.600  30.774  58.350  1.00  0.00     0.001 A 
HETATM    7  C   UNL     1       7.225  30.660  58.151  1.00  0.00     0.015 A 
HETATM    8  N   UNL     1       7.089  27.370  56.491  1.00  0.00    -0.231 NA
HETATM    9  C   UNL     1       5.770  27.183  56.293  1.00  0.00     0.129 A 
HETATM   10  C   UNL     1       4.846  28.126  56.697  1.00  0.00     0.068 A 
ENDROOT
BRANCH   1  11
HETATM   11  C   UNL     1       4.297  30.306  57.627  1.00  0.00     0.252 C 
HETATM   12  N   UNL     1       4.342  30.797  58.907  1.00  0.00    -0.355 N 
HETATM   13  H   UNL     1       5.066  30.419  59.513  1.00  0.00     0.162 HD
HETATM   14  O   UNL     1       3.457  30.623  56.794  1.00  0.00    -0.268 OA
BRANCH  12  15
HETATM   15  C   UNL     1       3.290  31.569  59.563  1.00  0.00     0.150 C 
BRANCH  15  16
HETATM   16  C   UNL     1       3.494  33.092  59.739  1.00  0.00     0.255 C 
BRANCH  16  17
HETATM   17  N   UNL     1       3.680  33.561  61.177  1.00  0.00    -0.062 N 
HETATM   18  H   UNL     1       4.520  34.173  61.116  1.00  0.00     0.280 HD
BRANCH  17  19
HETATM   19  C   UNL     1       2.596  34.475  61.730  1.00  0.00     0.180 C 
HETATM   20  C   UNL     1       2.162  34.025  63.126  1.00  0.00     0.039 C 
HETATM   21  C   UNL     1       1.414  34.585  60.776  1.00  0.00     0.039 C 
ENDBRANCH  17  19
BRANCH  17  22
HETATM   22  C   UNL     1       4.089  32.425  62.094  1.00  0.00     0.273 C 
BRANCH  22  23
HETATM   23  C   UNL     1       5.488  32.542  62.639  1.00  0.00    -0.033 A 
HETATM   24  C   UNL     1       6.591  32.155  61.862  1.00  0.00     0.009 A 
HETATM   25  C   UNL     1       7.886  32.261  62.370  1.00  0.00     0.001 A 
HETATM   26  C   UNL     1       8.094  32.752  63.657  1.00  0.00     0.000 A 
HETATM   27  C   UNL     1       7.008  33.142  64.437  1.00  0.00     0.001 A 
HETATM   28  C   UNL     1       5.711  33.041  63.933  1.00  0.00     0.009 A 
ENDBRANCH  22  23
ENDBRANCH  17  22
ENDBRANCH  16  17
ENDBRANCH  15  16
ENDBRANCH  12  15
ENDBRANCH   1  11
BRANCH   9  29
HETATM   29  N   UNL     1       5.287  26.026  55.655  1.00  0.00    -0.339 N 
HETATM   30  H   UNL     1       4.523  25.598  56.172  1.00  0.00     0.167 HD
BRANCH  29  31
HETATM   31  C   UNL     1       6.043  25.027  55.002  1.00  0.00     0.067 A 
HETATM   32  C   UNL     1       6.261  25.117  53.617  1.00  0.00     0.097 A 
HETATM   33  C   UNL     1       7.108  24.231  52.945  1.00  0.00     0.075 A 
HETATM   34  C   UNL     1       7.721  23.200  53.654  1.00  0.00     0.070 A 
HETATM   35  C   UNL     1       7.473  23.070  55.024  1.00  0.00     0.039 A 
HETATM   36  C   UNL     1       6.646  23.978  55.694  1.00  0.00     0.035 A 
BRANCH  32  37
HETATM   37  O   UNL     1       5.653  26.128  52.906  1.00  0.00    -0.354 OA
HETATM   38  C   UNL     1       5.203  25.616  51.648  1.00  0.00     0.210 C 
ENDBRANCH  32  37
BRANCH  34  39
HETATM   39  O   UNL     1       8.570  22.263  53.135  1.00  0.00    -0.356 OA
HETATM   40  C   UNL     1       8.147  20.906  53.200  1.00  0.00     0.210 C 
ENDBRANCH  34  39
ENDBRANCH  29  31
ENDBRANCH   9  29
TORSDOF 11
ENDMDL
MODEL 7
REMARK VINA RESULT:      -9.3      2.117      9.846
REMARK  11 active torsions:
REMARK  status: ('A' for Active; 'I' for Inactive)
REMARK    1  A    between atoms: C_2  and  N_3 
REMARK    2  A    between atoms: N_3  and  C_5 
REMARK    3  A    between atoms: N_3  and  C_12 
REMARK    4  A    between atoms: C_5  and  C_6 
REMARK    5  A    between atoms: C_12  and  C_13 
REMARK    6  A    between atoms: C_13  and  N_14 
REMARK       I    between atoms: N_14  and  C_15 
REMARK    7  A    between atoms: C_15  and  C_16 
REMARK    8  A    between atoms: C_24  and  N_25 
REMARK    9  A    between atoms: N_25  and  C_26 
REMARK   10  A    between atoms: C_27  and  O_28 
REMARK   11  A    between atoms: C_31  and  O_32 
ROOT
HETATM    1  C   UNL     1       6.725  30.234  57.738  1.00  0.00     0.048 A 
HETATM    2  C   UNL     1       8.126  30.208  57.644  1.00  0.00     0.009 A 
HETATM    3  C   UNL     1       8.677  29.014  57.146  1.00  0.00     0.070 A 
HETATM    4  C   UNL     1      10.057  28.912  57.041  1.00  0.00     0.032 A 
HETATM    5  C   UNL     1      10.905  29.956  57.417  1.00  0.00     0.002 A 
HETATM    6  C   UNL     1      10.368  31.139  57.904  1.00  0.00     0.001 A 
HETATM    7  C   UNL     1       8.986  31.271  58.016  1.00  0.00     0.015 A 
HETATM    8  N   UNL     1       7.923  27.967  56.769  1.00  0.00    -0.231 NA
HETATM    9  C   UNL     1       6.581  28.017  56.877  1.00  0.00     0.129 A 
HETATM   10  C   UNL     1       5.946  29.140  57.370  1.00  0.00     0.068 A 
ENDROOT
BRANCH   1  11
HETATM   11  C   UNL     1       5.998  31.438  58.167  1.00  0.00     0.252 C 
HETATM   12  N   UNL     1       5.344  31.338  59.369  1.00  0.00    -0.355 N 
HETATM   13  H   UNL     1       5.419  30.447  59.854  1.00  0.00     0.162 HD
HETATM   14  O   UNL     1       5.965  32.424  57.442  1.00  0.00    -0.268 OA
BRANCH  12  15
HETATM   15  C   UNL     1       4.327  32.259  59.867  1.00  0.00     0.150 C 
BRANCH  15  16
HETATM   16  C   UNL     1       3.998  32.246  61.378  1.00  0.00     0.255 C 
BRANCH  16  17
HETATM   17  N   UNL     1       5.094  32.787  62.287  1.00  0.00    -0.062 N 
HETATM   18  H   UNL     1       5.736  33.264  61.620  1.00  0.00     0.280 HD
BRANCH  17  19
HETATM   19  C   UNL     1       4.683  33.885  63.256  1.00  0.00     0.180 C 
HETATM   20  C   UNL     1       5.352  35.212  62.895  1.00  0.00     0.039 C 
HETATM   21  C   UNL     1       4.951  33.488  64.701  1.00  0.00     0.039 C 
ENDBRANCH  17  19
BRANCH  17  22
HETATM   22  C   UNL     1       5.923  31.672  62.897  1.00  0.00     0.273 C 
BRANCH  22  23
HETATM   23  C   UNL     1       7.335  31.596  62.379  1.00  0.00    -0.033 A 
HETATM   24  C   UNL     1       7.887  32.664  61.654  1.00  0.00     0.009 A 
HETATM   25  C   UNL     1       9.194  32.591  61.171  1.00  0.00     0.001 A 
HETATM   26  C   UNL     1       9.963  31.452  61.406  1.00  0.00     0.000 A 
HETATM   27  C   UNL     1       9.427  30.388  62.126  1.00  0.00     0.001 A 
HETATM   28  C   UNL     1       8.121  30.456  62.613  1.00  0.00     0.009 A 
ENDBRANCH  22  23
ENDBRANCH  17  22
ENDBRANCH  16  17
ENDBRANCH  15  16
ENDBRANCH  12  15
ENDBRANCH   1  11
BRANCH   9  29
HETATM   29  N   UNL     1       5.779  26.934  56.479  1.00  0.00    -0.339 N 
HETATM   30  H   UNL     1       4.983  26.802  57.098  1.00  0.00     0.167 HD
BRANCH  29  31
HETATM   31  C   UNL     1       6.209  25.684  55.981  1.00  0.00     0.067 A 
HETATM   32  C   UNL     1       6.139  25.425  54.602  1.00  0.00     0.097 A 
HETATM   33  C   UNL     1       6.671  24.259  54.043  1.00  0.00     0.075 A 
HETATM   34  C   UNL     1       7.249  23.304  54.874  1.00  0.00     0.070 A 
HETATM   35  C   UNL     1       7.282  23.527  56.254  1.00  0.00     0.039 A 
HETATM   36  C   UNL     1       6.772  24.708  56.804  1.00  0.00     0.035 A 
BRANCH  32  37
HETATM   37  O   UNL     1       5.562  26.361  53.773  1.00  0.00    -0.354 OA
HETATM   38  C   UNL     1       4.853  25.691  52.725  1.00  0.00     0.210 C 
ENDBRANCH  32  37
BRANCH  34  39
HETATM   39  O   UNL     1       7.809  22.122  54.473  1.00  0.00    -0.356 OA
HETATM   40  C   UNL     1       7.862  21.880  53.072  1.00  0.00     0.210 C 
ENDBRANCH  34  39
ENDBRANCH  29  31
ENDBRANCH   9  29
TORSDOF 11
ENDMDL
MODEL 8
REMARK VINA RESULT:      -9.3      3.990      7.771
REMARK  11 active torsions:
REMARK  status: ('A' for Active; 'I' for Inactive)
REMARK    1  A    between atoms: C_2  and  N_3 
REMARK    2  A    between atoms: N_3  and  C_5 
REMARK    3  A    between atoms: N_3  and  C_12 
REMARK    4  A    between atoms: C_5  and  C_6 
REMARK    5  A    between atoms: C_12  and  C_13 
REMARK    6  A    between atoms: C_13  and  N_14 
REMARK       I    between atoms: N_14  and  C_15 
REMARK    7  A    between atoms: C_15  and  C_16 
REMARK    8  A    between atoms: C_24  and  N_25 
REMARK    9  A    between atoms: N_25  and  C_26 
REMARK   10  A    between atoms: C_27  and  O_28 
REMARK   11  A    between atoms: C_31  and  O_32 
ROOT
HETATM    1  C   UNL     1       6.203  25.041  53.762  1.00  0.00     0.048 A 
HETATM    2  C   UNL     1       7.170  24.049  53.993  1.00  0.00     0.009 A 
HETATM    3  C   UNL     1       7.713  24.022  55.289  1.00  0.00     0.070 A 
HETATM    4  C   UNL     1       8.686  23.078  55.583  1.00  0.00     0.032 A 
HETATM    5  C   UNL     1       9.138  22.162  54.629  1.00  0.00     0.002 A 
HETATM    6  C   UNL     1       8.603  22.179  53.349  1.00  0.00     0.001 A 
HETATM    7  C   UNL     1       7.621  23.114  53.028  1.00  0.00     0.015 A 
HETATM    8  N   UNL     1       7.329  24.874  56.255  1.00  0.00    -0.231 NA
HETATM    9  C   UNL     1       6.404  25.820  56.004  1.00  0.00     0.129 A 
HETATM   10  C   UNL     1       5.823  25.938  54.757  1.00  0.00     0.068 A 
ENDROOT
BRANCH   1  11
HETATM   11  C   UNL     1       5.488  25.146  52.481  1.00  0.00     0.252 C 
HETATM   12  N   UNL     1       5.983  26.075  51.602  1.00  0.00    -0.355 N 
HETATM   13  H   UNL     1       6.795  26.606  51.911  1.00  0.00     0.162 HD
HETATM   14  O   UNL     1       4.492  24.464  52.277  1.00  0.00    -0.268 OA
BRANCH  12  15
HETATM   15  C   UNL     1       5.297  26.580  50.416  1.00  0.00     0.150 C 
BRANCH  15  16
HETATM   16  C   UNL     1       5.217  28.110  50.207  1.00  0.00     0.255 C 
BRANCH  16  17
HETATM   17  N   UNL     1       3.965  28.778  50.765  1.00  0.00    -0.062 N 
HETATM   18  H   UNL     1       3.283  27.993  50.811  1.00  0.00     0.280 HD
BRANCH  17  19
HETATM   19  C   UNL     1       4.053  29.277  52.200  1.00  0.00     0.180 C 
HETATM   20  C   UNL     1       3.452  28.259  53.170  1.00  0.00     0.039 C 
HETATM   21  C   UNL     1       3.420  30.653  52.355  1.00  0.00     0.039 C 
ENDBRANCH  17  19
BRANCH  17  22
HETATM   22  C   UNL     1       3.364  29.762  49.780  1.00  0.00     0.273 C 
BRANCH  22  23
HETATM   23  C   UNL     1       2.468  29.134  48.746  1.00  0.00    -0.033 A 
HETATM   24  C   UNL     1       1.818  27.917  49.010  1.00  0.00     0.009 A 
HETATM   25  C   UNL     1       0.991  27.334  48.050  1.00  0.00     0.001 A 
HETATM   26  C   UNL     1       0.804  27.958  46.818  1.00  0.00     0.000 A 
HETATM   27  C   UNL     1       1.440  29.166  46.545  1.00  0.00     0.001 A 
HETATM   28  C   UNL     1       2.267  29.754  47.503  1.00  0.00     0.009 A 
ENDBRANCH  22  23
ENDBRANCH  17  22
ENDBRANCH  16  17
ENDBRANCH  15  16
ENDBRANCH  12  15
ENDBRANCH   1  11
BRANCH   9  29
HETATM   29  N   UNL     1       5.986  26.713  57.007  1.00  0.00    -0.339 N 
HETATM   30  H   UNL     1       4.973  26.756  57.079  1.00  0.00     0.167 HD
BRANCH  29  31
HETATM   31  C   UNL     1       6.542  27.973  57.320  1.00  0.00     0.067 A 
HETATM   32  C   UNL     1       5.741  29.124  57.238  1.00  0.00     0.097 A 
HETATM   33  C   UNL     1       6.200  30.375  57.660  1.00  0.00     0.075 A 
HETATM   34  C   UNL     1       7.504  30.499  58.136  1.00  0.00     0.070 A 
HETATM   35  C   UNL     1       8.328  29.371  58.177  1.00  0.00     0.039 A 
HETATM   36  C   UNL     1       7.852  28.118  57.778  1.00  0.00     0.035 A 
BRANCH  32  37
HETATM   37  O   UNL     1       4.453  29.012  56.761  1.00  0.00    -0.354 OA
HETATM   38  C   UNL     1       4.028  30.278  56.245  1.00  0.00     0.210 C 
ENDBRANCH  32  37
BRANCH  34  39
HETATM   39  O   UNL     1       8.089  31.651  58.583  1.00  0.00    -0.356 OA
HETATM   40  C   UNL     1       9.428  31.551  59.053  1.00  0.00     0.210 C 
ENDBRANCH  34  39
ENDBRANCH  29  31
ENDBRANCH   9  29
TORSDOF 11
ENDMDL
MODEL 9
REMARK VINA RESULT:      -9.3      2.518      4.089
REMARK  11 active torsions:
REMARK  status: ('A' for Active; 'I' for Inactive)
REMARK    1  A    between atoms: C_2  and  N_3 
REMARK    2  A    between atoms: N_3  and  C_5 
REMARK    3  A    between atoms: N_3  and  C_12 
REMARK    4  A    between atoms: C_5  and  C_6 
REMARK    5  A    between atoms: C_12  and  C_13 
REMARK    6  A    between atoms: C_13  and  N_14 
REMARK       I    between atoms: N_14  and  C_15 
REMARK    7  A    between atoms: C_15  and  C_16 
REMARK    8  A    between atoms: C_24  and  N_25 
REMARK    9  A    between atoms: N_25  and  C_26 
REMARK   10  A    between atoms: C_27  and  O_28 
REMARK   11  A    between atoms: C_31  and  O_32 
ROOT
HETATM    1  C   UNL     1       5.942  28.790  56.379  1.00  0.00     0.048 A 
HETATM    2  C   UNL     1       6.312  27.458  56.625  1.00  0.00     0.009 A 
HETATM    3  C   UNL     1       7.444  27.285  57.441  1.00  0.00     0.070 A 
HETATM    4  C   UNL     1       7.877  25.994  57.713  1.00  0.00     0.032 A 
HETATM    5  C   UNL     1       7.222  24.873  57.198  1.00  0.00     0.002 A 
HETATM    6  C   UNL     1       6.101  25.036  56.396  1.00  0.00     0.001 A 
HETATM    7  C   UNL     1       5.642  26.320  56.111  1.00  0.00     0.015 A 
HETATM    8  N   UNL     1       8.125  28.317  57.967  1.00  0.00    -0.231 NA
HETATM    9  C   UNL     1       7.752  29.585  57.709  1.00  0.00     0.129 A 
HETATM   10  C   UNL     1       6.663  29.859  56.905  1.00  0.00     0.068 A 
ENDROOT
BRANCH   1  11
HETATM   11  C   UNL     1       4.737  29.131  55.609  1.00  0.00     0.252 C 
HETATM   12  N   UNL     1       4.875  29.092  54.245  1.00  0.00    -0.355 N 
HETATM   13  H   UNL     1       5.793  28.833  53.889  1.00  0.00     0.162 HD
HETATM   14  O   UNL     1       3.714  29.471  56.190  1.00  0.00    -0.268 OA
BRANCH  12  15
HETATM   15  C   UNL     1       3.946  29.665  53.275  1.00  0.00     0.150 C 
BRANCH  15  16
HETATM   16  C   UNL     1       3.174  28.706  52.340  1.00  0.00     0.255 C 
BRANCH  16  17
HETATM   17  N   UNL     1       4.041  27.876  51.400  1.00  0.00    -0.062 N 
HETATM   18  H   UNL     1       3.696  26.906  51.560  1.00  0.00     0.280 HD
BRANCH  17  19
HETATM   19  C   UNL     1       3.826  28.104  49.911  1.00  0.00     0.180 C 
HETATM   20  C   UNL     1       2.443  28.698  49.643  1.00  0.00     0.039 C 
HETATM   21  C   UNL     1       4.063  26.832  49.109  1.00  0.00     0.039 C 
ENDBRANCH  17  19
BRANCH  17  22
HETATM   22  C   UNL     1       5.491  27.853  51.842  1.00  0.00     0.273 C 
BRANCH  22  23
HETATM   23  C   UNL     1       5.985  26.498  52.276  1.00  0.00    -0.033 A 
HETATM   24  C   UNL     1       7.352  26.279  52.509  1.00  0.00     0.009 A 
HETATM   25  C   UNL     1       7.810  25.022  52.907  1.00  0.00     0.001 A 
HETATM   26  C   UNL     1       6.909  23.973  53.076  1.00  0.00     0.000 A 
HETATM   27  C   UNL     1       5.550  24.179  52.851  1.00  0.00     0.001 A 
HETATM   28  C   UNL     1       5.087  25.433  52.455  1.00  0.00     0.009 A 
ENDBRANCH  22  23
ENDBRANCH  17  22
ENDBRANCH  16  17
ENDBRANCH  15  16
ENDBRANCH  12  15
ENDBRANCH   1  11
BRANCH   9  29
HETATM   29  N   UNL     1       8.449  30.675  58.259  1.00  0.00    -0.339 N 
HETATM   30  H   UNL     1       9.406  30.725  57.919  1.00  0.00     0.167 HD
BRANCH  29  31
HETATM   31  C   UNL     1       8.388  31.150  59.588  1.00  0.00     0.067 A 
HETATM   32  C   UNL     1       7.400  32.082  59.947  1.00  0.00     0.097 A 
HETATM   33  C   UNL     1       7.213  32.485  61.272  1.00  0.00     0.075 A 
HETATM   34  C   UNL     1       8.053  31.985  62.264  1.00  0.00     0.070 A 
HETATM   35  C   UNL     1       9.072  31.094  61.914  1.00  0.00     0.039 A 
HETATM   36  C   UNL     1       9.236  30.675  60.589  1.00  0.00     0.035 A 
BRANCH  32  37
HETATM   37  O   UNL     1       6.569  32.587  58.971  1.00  0.00    -0.354 OA
HETATM   38  C   UNL     1       5.358  33.052  59.577  1.00  0.00     0.210 C 
ENDBRANCH  32  37
BRANCH  34  39
HETATM   39  O   UNL     1       7.990  32.285  63.597  1.00  0.00    -0.356 OA
HETATM   40  C   UNL     1       7.010  33.236  63.996  1.00  0.00     0.210 C 
ENDBRANCH  34  39
ENDBRANCH  29  31
ENDBRANCH   9  29
TORSDOF 11
ENDMDL
MODEL 10
REMARK VINA RESULT:      -9.1      1.484      2.117
REMARK  11 active torsions:
REMARK  status: ('A' for Active; 'I' for Inactive)
REMARK    1  A    between atoms: C_2  and  N_3 
REMARK    2  A    between atoms: N_3  and  C_5 
REMARK    3  A    between atoms: N_3  and  C_12 
REMARK    4  A    between atoms: C_5  and  C_6 
REMARK    5  A    between atoms: C_12  and  C_13 
REMARK    6  A    between atoms: C_13  and  N_14 
REMARK       I    between atoms: N_14  and  C_15 
REMARK    7  A    between atoms: C_15  and  C_16 
REMARK    8  A    between atoms: C_24  and  N_25 
REMARK    9  A    between atoms: N_25  and  C_26 
REMARK   10  A    between atoms: C_27  and  O_28 
REMARK   11  A    between atoms: C_31  and  O_32 
ROOT
HETATM    1  C   UNL     1       7.154  29.977  57.494  1.00  0.00     0.048 A 
HETATM    2  C   UNL     1       8.556  30.002  57.428  1.00  0.00     0.009 A 
HETATM    3  C   UNL     1       9.183  30.963  58.240  1.00  0.00     0.070 A 
HETATM    4  C   UNL     1      10.568  31.056  58.213  1.00  0.00     0.032 A 
HETATM    5  C   UNL     1      11.347  30.227  57.402  1.00  0.00     0.002 A 
HETATM    6  C   UNL     1      10.735  29.273  56.601  1.00  0.00     0.001 A 
HETATM    7  C   UNL     1       9.347  29.154  56.613  1.00  0.00     0.015 A 
HETATM    8  N   UNL     1       8.497  31.796  59.042  1.00  0.00    -0.231 NA
HETATM    9  C   UNL     1       7.152  31.754  59.080  1.00  0.00     0.129 A 
HETATM   10  C   UNL     1       6.443  30.856  58.307  1.00  0.00     0.068 A 
ENDROOT
BRANCH   1  11
HETATM   11  C   UNL     1       6.360  28.978  56.762  1.00  0.00     0.252 C 
HETATM   12  N   UNL     1       6.181  29.228  55.426  1.00  0.00    -0.355 N 
HETATM   13  H   UNL     1       6.610  30.076  55.061  1.00  0.00     0.162 HD
HETATM   14  O   UNL     1       5.869  28.029  57.359  1.00  0.00    -0.268 OA
BRANCH  12  15
HETATM   15  C   UNL     1       5.207  28.573  54.557  1.00  0.00     0.150 C 
BRANCH  15  16
HETATM   16  C   UNL     1       5.728  27.638  53.440  1.00  0.00     0.255 C 
BRANCH  16  17
HETATM   17  N   UNL     1       4.649  26.986  52.583  1.00  0.00    -0.062 N 
HETATM   18  H   UNL     1       3.767  27.340  53.009  1.00  0.00     0.280 HD
BRANCH  17  19
HETATM   19  C   UNL     1       4.573  27.448  51.135  1.00  0.00     0.180 C 
HETATM   20  C   UNL     1       4.884  26.297  50.177  1.00  0.00     0.039 C 
HETATM   21  C   UNL     1       5.467  28.655  50.883  1.00  0.00     0.039 C 
ENDBRANCH  17  19
BRANCH  17  22
HETATM   22  C   UNL     1       4.603  25.483  52.780  1.00  0.00     0.273 C 
BRANCH  22  23
HETATM   23  C   UNL     1       5.854  24.899  53.382  1.00  0.00    -0.033 A 
HETATM   24  C   UNL     1       6.900  24.453  52.559  1.00  0.00     0.009 A 
HETATM   25  C   UNL     1       8.057  23.908  53.117  1.00  0.00     0.001 A 
HETATM   26  C   UNL     1       8.181  23.802  54.501  1.00  0.00     0.000 A 
HETATM   27  C   UNL     1       7.151  24.244  55.328  1.00  0.00     0.001 A 
HETATM   28  C   UNL     1       5.993  24.791  54.775  1.00  0.00     0.009 A 
ENDBRANCH  22  23
ENDBRANCH  17  22
ENDBRANCH  16  17
ENDBRANCH  15  16
ENDBRANCH  12  15
ENDBRANCH   1  11
BRANCH   9  29
HETATM   29  N   UNL     1       6.421  32.613  59.920  1.00  0.00    -0.339 N 
HETATM   30  H   UNL     1       6.145  33.467  59.443  1.00  0.00     0.167 HD
BRANCH  29  31
HETATM   31  C   UNL     1       6.657  32.883  61.286  1.00  0.00     0.067 A 
HETATM   32  C   UNL     1       5.751  33.683  62.002  1.00  0.00     0.097 A 
HETATM   33  C   UNL     1       5.865  33.873  63.382  1.00  0.00     0.075 A 
HETATM   34  C   UNL     1       6.931  33.293  64.066  1.00  0.00     0.070 A 
HETATM   35  C   UNL     1       7.868  32.535  63.358  1.00  0.00     0.039 A 
HETATM   36  C   UNL     1       7.731  32.326  61.981  1.00  0.00     0.035 A 
BRANCH  32  37
HETATM   37  O   UNL     1       4.698  34.267  61.332  1.00  0.00    -0.354 OA
HETATM   38  C   UNL     1       4.723  35.680  61.555  1.00  0.00     0.210 C 
ENDBRANCH  32  37
BRANCH  34  39
HETATM   39  O   UNL     1       7.172  33.390  65.408  1.00  0.00    -0.356 OA
HETATM   40  C   UNL     1       6.196  34.071  66.189  1.00  0.00     0.210 C 
ENDBRANCH  34  39
ENDBRANCH  29  31
ENDBRANCH   9  29
TORSDOF 11
ENDMDL
