MODEL 1
REMARK VINA RESULT:      -9.6      0.000      0.000
REMARK  5 active torsions:
REMARK  status: ('A' for Active; 'I' for Inactive)
REMARK    1  A    between atoms: C_6  and  O_7 
REMARK    2  A    between atoms: O_7  and  C_8 
REMARK    3  A    between atoms: C_8  and  C_9 
REMARK       I    between atoms: C_9  and  N_10 
REMARK    4  A    between atoms: N_10  and  N_11 
REMARK    5  A    between atoms: C_12  and  C_13 
ROOT
HETATM    1  C   UNL     1       7.830  26.847  57.206  1.00  0.00     0.261 C 
HETATM    2  N   UNL     1       7.950  28.227  57.303  1.00  0.00    -0.246 N 
HETATM    3  O   UNL     1       7.831  26.064  58.154  1.00  0.00    -0.269 OA
HETATM    4  H   UNL     1       7.976  28.785  56.454  1.00  0.00     0.192 HD
ENDROOT
BRANCH   2   5
HETATM    5  N   UNL     1       8.099  28.808  58.526  1.00  0.00    -0.184 NA
HETATM    6  C   UNL     1       8.012  30.097  58.566  1.00  0.00     0.152 C 
BRANCH   6   7
HETATM    7  C   UNL     1       8.155  30.772  59.842  1.00  0.00     0.011 A 
HETATM    8  C   UNL     1       7.299  31.767  60.414  1.00  0.00     0.005 A 
HETATM    9  C   UNL     1       7.832  32.112  61.659  1.00  0.00     0.043 A 
HETATM   10  C   UNL     1       6.107  32.400  59.998  1.00  0.00     0.033 A 
HETATM   11  C   UNL     1       7.242  33.055  62.507  1.00  0.00     0.031 A 
HETATM   12  N   UNL     1       8.971  31.361  61.835  1.00  0.00    -0.364 N 
HETATM   13  C   UNL     1       6.062  33.668  62.075  1.00  0.00     0.021 A 
HETATM   14  C   UNL     1       5.506  33.342  60.841  1.00  0.00     0.012 A 
HETATM   15 BR   UNL     1       3.902  34.184  60.293  1.00  0.00    -0.051 Br
HETATM   16  H   UNL     1       9.567  31.398  62.651  1.00  0.00     0.165 HD
HETATM   17  C   UNL     1       9.171  30.549  60.754  1.00  0.00     0.102 A 
ENDBRANCH   6   7
ENDBRANCH   2   5
BRANCH   1  18
HETATM   18  C   UNL     1       7.573  26.368  55.781  1.00  0.00     0.280 C 
BRANCH  18  19
HETATM   19  O   UNL     1       6.587  25.335  55.753  1.00  0.00    -0.342 OA
BRANCH  19  20
HETATM   20  C   UNL     1       7.017  24.184  55.146  1.00  0.00     0.069 A 
HETATM   21  C   UNL     1       7.340  23.012  55.831  1.00  0.00     0.044 A 
HETATM   22  C   UNL     1       7.759  21.862  55.137  1.00  0.00    -0.053 A 
HETATM   23  C   UNL     1       7.867  21.905  53.732  1.00  0.00    -0.056 A 
HETATM   24  C   UNL     1       8.108  20.623  55.915  1.00  0.00     0.049 C 
HETATM   25  C   UNL     1       8.317  20.706  52.941  1.00  0.00     0.049 C 
HETATM   26  C   UNL     1       7.508  23.079  53.054  1.00  0.00     0.010 A 
HETATM   27  C   UNL     1       7.079  24.208  53.756  1.00  0.00     0.037 A 
ENDBRANCH  19  20
ENDBRANCH  18  19
ENDBRANCH   1  18
TORSDOF 5
ENDMDL
MODEL 2
REMARK VINA RESULT:      -9.6      3.415     10.486
REMARK  5 active torsions:
REMARK  status: ('A' for Active; 'I' for Inactive)
REMARK    1  A    between atoms: C_6  and  O_7 
REMARK    2  A    between atoms: O_7  and  C_8 
REMARK    3  A    between atoms: C_8  and  C_9 
REMARK       I    between atoms: C_9  and  N_10 
REMARK    4  A    between atoms: N_10  and  N_11 
REMARK    5  A    between atoms: C_12  and  C_13 
ROOT
HETATM    1  C   UNL     1       7.810  28.425  57.355  1.00  0.00     0.261 C 
HETATM    2  N   UNL     1       7.471  28.621  56.023  1.00  0.00    -0.246 N 
HETATM    3  O   UNL     1       8.413  27.451  57.800  1.00  0.00    -0.269 OA
HETATM    4  H   UNL     1       6.937  29.445  55.760  1.00  0.00     0.192 HD
ENDROOT
BRANCH   2   5
HETATM    5  N   UNL     1       7.797  27.676  55.097  1.00  0.00    -0.184 NA
HETATM    6  C   UNL     1       6.941  26.723  54.919  1.00  0.00     0.152 C 
BRANCH   6   7
HETATM    7  C   UNL     1       7.231  25.692  53.941  1.00  0.00     0.011 A 
HETATM    8  C   UNL     1       7.578  24.323  54.181  1.00  0.00     0.005 A 
HETATM    9  C   UNL     1       7.752  23.712  52.936  1.00  0.00     0.043 A 
HETATM   10  C   UNL     1       7.747  23.537  55.342  1.00  0.00     0.033 A 
HETATM   11  C   UNL     1       8.089  22.362  52.789  1.00  0.00     0.031 A 
HETATM   12  N   UNL     1       7.526  24.673  51.978  1.00  0.00    -0.364 N 
HETATM   13  C   UNL     1       8.249  21.603  53.952  1.00  0.00     0.021 A 
HETATM   14  C   UNL     1       8.079  22.184  55.206  1.00  0.00     0.012 A 
HETATM   15 BR   UNL     1       8.293  21.124  56.759  1.00  0.00    -0.051 Br
HETATM   16  H   UNL     1       7.580  24.516  50.980  1.00  0.00     0.165 HD
HETATM   17  C   UNL     1       7.207  25.862  52.569  1.00  0.00     0.102 A 
ENDBRANCH   6   7
ENDBRANCH   2   5
BRANCH   1  18
HETATM   18  C   UNL     1       7.461  29.617  58.241  1.00  0.00     0.280 C 
BRANCH  18  19
HETATM   19  O   UNL     1       8.632  30.179  58.834  1.00  0.00    -0.342 OA
BRANCH  19  20
HETATM   20  C   UNL     1       8.382  30.868  59.992  1.00  0.00     0.069 A 
HETATM   21  C   UNL     1       7.325  31.765  60.156  1.00  0.00     0.044 A 
HETATM   22  C   UNL     1       7.122  32.424  61.383  1.00  0.00    -0.053 A 
HETATM   23  C   UNL     1       8.007  32.182  62.452  1.00  0.00    -0.056 A 
HETATM   24  C   UNL     1       5.977  33.392  61.513  1.00  0.00     0.049 C 
HETATM   25  C   UNL     1       7.839  32.865  63.783  1.00  0.00     0.049 C 
HETATM   26  C   UNL     1       9.045  31.253  62.284  1.00  0.00     0.010 A 
HETATM   27  C   UNL     1       9.226  30.595  61.065  1.00  0.00     0.037 A 
ENDBRANCH  19  20
ENDBRANCH  18  19
ENDBRANCH   1  18
TORSDOF 5
ENDMDL
MODEL 3
REMARK VINA RESULT:      -9.4      7.322     10.500
REMARK  5 active torsions:
REMARK  status: ('A' for Active; 'I' for Inactive)
REMARK    1  A    between atoms: C_6  and  O_7 
REMARK    2  A    between atoms: O_7  and  C_8 
REMARK    3  A    between atoms: C_8  and  C_9 
REMARK       I    between atoms: C_9  and  N_10 
REMARK    4  A    between atoms: N_10  and  N_11 
REMARK    5  A    between atoms: C_12  and  C_13 
ROOT
HETATM    1  C   UNL     1       5.672  26.015  52.221  1.00  0.00     0.261 C 
HETATM    2  N   UNL     1       5.888  26.355  50.892  1.00  0.00    -0.246 N 
HETATM    3  O   UNL     1       4.681  25.432  52.655  1.00  0.00    -0.269 OA
HETATM    4  H   UNL     1       6.726  26.872  50.640  1.00  0.00     0.192 HD
ENDROOT
BRANCH   2   5
HETATM    5  N   UNL     1       4.945  26.052  49.956  1.00  0.00    -0.184 NA
HETATM    6  C   UNL     1       4.416  27.051  49.328  1.00  0.00     0.152 C 
BRANCH   6   7
HETATM    7  C   UNL     1       3.411  26.791  48.315  1.00  0.00     0.011 A 
HETATM    8  C   UNL     1       2.333  27.641  47.905  1.00  0.00     0.005 A 
HETATM    9  C   UNL     1       1.637  26.973  46.893  1.00  0.00     0.043 A 
HETATM   10  C   UNL     1       1.890  28.926  48.285  1.00  0.00     0.033 A 
HETATM   11  C   UNL     1       0.522  27.518  46.246  1.00  0.00     0.031 A 
HETATM   12  N   UNL     1       2.262  25.763  46.701  1.00  0.00    -0.364 N 
HETATM   13  C   UNL     1       0.103  28.792  46.639  1.00  0.00     0.021 A 
HETATM   14  C   UNL     1       0.778  29.482  47.642  1.00  0.00     0.012 A 
HETATM   15 BR   UNL     1       0.188  31.209  48.141  1.00  0.00    -0.051 Br
HETATM   16  H   UNL     1       1.977  25.066  46.026  1.00  0.00     0.165 HD
HETATM   17  C   UNL     1       3.330  25.646  47.544  1.00  0.00     0.102 A 
ENDBRANCH   6   7
ENDBRANCH   2   5
BRANCH   1  18
HETATM   18  C   UNL     1       6.862  26.334  53.120  1.00  0.00     0.280 C 
BRANCH  18  19
HETATM   19  O   UNL     1       7.967  25.475  52.838  1.00  0.00    -0.342 OA
BRANCH  19  20
HETATM   20  C   UNL     1       7.906  24.272  53.492  1.00  0.00     0.069 A 
HETATM   21  C   UNL     1       8.042  23.032  52.865  1.00  0.00     0.044 A 
HETATM   22  C   UNL     1       7.984  21.838  53.606  1.00  0.00    -0.053 A 
HETATM   23  C   UNL     1       7.770  21.898  54.998  1.00  0.00    -0.056 A 
HETATM   24  C   UNL     1       8.124  20.523  52.888  1.00  0.00     0.049 C 
HETATM   25  C   UNL     1       7.693  20.651  55.837  1.00  0.00     0.049 C 
HETATM   26  C   UNL     1       7.668  23.151  55.620  1.00  0.00     0.010 A 
HETATM   27  C   UNL     1       7.743  24.329  54.873  1.00  0.00     0.037 A 
ENDBRANCH  19  20
ENDBRANCH  18  19
ENDBRANCH   1  18
TORSDOF 5
ENDMDL
MODEL 4
REMARK VINA RESULT:      -9.3      3.197     10.055
REMARK  5 active torsions:
REMARK  status: ('A' for Active; 'I' for Inactive)
REMARK    1  A    between atoms: C_6  and  O_7 
REMARK    2  A    between atoms: O_7  and  C_8 
REMARK    3  A    between atoms: C_8  and  C_9 
REMARK       I    between atoms: C_9  and  N_10 
REMARK    4  A    between atoms: N_10  and  N_11 
REMARK    5  A    between atoms: C_12  and  C_13 
ROOT
HETATM    1  C   UNL     1       7.207  29.755  57.168  1.00  0.00     0.261 C 
HETATM    2  N   UNL     1       7.976  28.793  57.808  1.00  0.00    -0.246 N 
HETATM    3  O   UNL     1       6.789  29.680  56.013  1.00  0.00    -0.269 OA
HETATM    4  H   UNL     1       8.304  28.966  58.755  1.00  0.00     0.192 HD
ENDROOT
BRANCH   2   5
HETATM    5  N   UNL     1       8.338  27.662  57.140  1.00  0.00    -0.184 NA
HETATM    6  C   UNL     1       7.709  26.578  57.458  1.00  0.00     0.152 C 
BRANCH   6   7
HETATM    7  C   UNL     1       8.046  25.343  56.776  1.00  0.00     0.011 A 
HETATM    8  C   UNL     1       7.741  24.971  55.427  1.00  0.00     0.005 A 
HETATM    9  C   UNL     1       8.278  23.697  55.214  1.00  0.00     0.043 A 
HETATM   10  C   UNL     1       7.071  25.601  54.356  1.00  0.00     0.033 A 
HETATM   11  C   UNL     1       8.179  23.021  53.993  1.00  0.00     0.031 A 
HETATM   12  N   UNL     1       8.880  23.310  56.389  1.00  0.00    -0.364 N 
HETATM   13  C   UNL     1       7.512  23.667  52.947  1.00  0.00     0.021 A 
HETATM   14  C   UNL     1       6.969  24.935  53.130  1.00  0.00     0.012 A 
HETATM   15 BR   UNL     1       6.082  25.783  51.688  1.00  0.00    -0.051 Br
HETATM   16  H   UNL     1       9.356  22.429  56.530  1.00  0.00     0.165 HD
HETATM   17  C   UNL     1       8.752  24.291  57.330  1.00  0.00     0.102 A 
ENDBRANCH   6   7
ENDBRANCH   2   5
BRANCH   1  18
HETATM   18  C   UNL     1       6.808  30.908  58.083  1.00  0.00     0.280 C 
BRANCH  18  19
HETATM   19  O   UNL     1       7.958  31.592  58.582  1.00  0.00    -0.342 OA
BRANCH  19  20
HETATM   20  C   UNL     1       7.849  31.957  59.898  1.00  0.00     0.069 A 
HETATM   21  C   UNL     1       6.716  32.554  60.454  1.00  0.00     0.044 A 
HETATM   22  C   UNL     1       6.671  32.886  61.820  1.00  0.00    -0.053 A 
HETATM   23  C   UNL     1       7.793  32.623  62.632  1.00  0.00    -0.056 A 
HETATM   24  C   UNL     1       5.435  33.539  62.375  1.00  0.00     0.049 C 
HETATM   25  C   UNL     1       7.801  32.963  64.098  1.00  0.00     0.049 C 
HETATM   26  C   UNL     1       8.912  31.991  62.068  1.00  0.00     0.010 A 
HETATM   27  C   UNL     1       8.936  31.654  60.713  1.00  0.00     0.037 A 
ENDBRANCH  19  20
ENDBRANCH  18  19
ENDBRANCH   1  18
TORSDOF 5
ENDMDL
MODEL 5
REMARK VINA RESULT:      -9.0      1.854      2.414
REMARK  5 active torsions:
REMARK  status: ('A' for Active; 'I' for Inactive)
REMARK    1  A    between atoms: C_6  and  O_7 
REMARK    2  A    between atoms: O_7  and  C_8 
REMARK    3  A    between atoms: C_8  and  C_9 
REMARK       I    between atoms: C_9  and  N_10 
REMARK    4  A    between atoms: N_10  and  N_11 
REMARK    5  A    between atoms: C_12  and  C_13 
ROOT
HETATM    1  C   UNL     1       7.285  27.172  54.472  1.00  0.00     0.261 C 
HETATM    2  N   UNL     1       7.272  27.143  55.860  1.00  0.00    -0.246 N 
HETATM    3  O   UNL     1       8.060  27.829  53.781  1.00  0.00    -0.269 OA
HETATM    4  H   UNL     1       6.563  26.594  56.341  1.00  0.00     0.192 HD
ENDROOT
BRANCH   2   5
HETATM    5  N   UNL     1       8.162  27.901  56.560  1.00  0.00    -0.184 NA
HETATM    6  C   UNL     1       7.864  29.150  56.709  1.00  0.00     0.152 C 
BRANCH   6   7
HETATM    7  C   UNL     1       8.770  30.005  57.451  1.00  0.00     0.011 A 
HETATM    8  C   UNL     1       8.471  30.842  58.574  1.00  0.00     0.005 A 
HETATM    9  C   UNL     1       9.662  31.466  58.958  1.00  0.00     0.043 A 
HETATM   10  C   UNL     1       7.302  31.119  59.315  1.00  0.00     0.033 A 
HETATM   11  C   UNL     1       9.745  32.352  60.038  1.00  0.00     0.031 A 
HETATM   12  N   UNL     1      10.644  31.031  58.099  1.00  0.00    -0.364 N 
HETATM   13  C   UNL     1       8.574  32.609  60.758  1.00  0.00     0.021 A 
HETATM   14  C   UNL     1       7.375  32.000  60.400  1.00  0.00     0.012 A 
HETATM   15 BR   UNL     1       5.811  32.364  61.403  1.00  0.00    -0.051 Br
HETATM   16  H   UNL     1      11.613  31.316  58.139  1.00  0.00     0.165 HD
HETATM   17  C   UNL     1      10.121  30.151  57.195  1.00  0.00     0.102 A 
ENDBRANCH   6   7
ENDBRANCH   2   5
BRANCH   1  18
HETATM   18  C   UNL     1       6.294  26.196  53.845  1.00  0.00     0.280 C 
BRANCH  18  19
HETATM   19  O   UNL     1       6.007  25.113  54.730  1.00  0.00    -0.342 OA
BRANCH  19  20
HETATM   20  C   UNL     1       6.714  23.973  54.447  1.00  0.00     0.069 A 
HETATM   21  C   UNL     1       7.113  23.041  55.407  1.00  0.00     0.044 A 
HETATM   22  C   UNL     1       7.823  21.884  55.039  1.00  0.00    -0.053 A 
HETATM   23  C   UNL     1       8.147  21.675  53.683  1.00  0.00    -0.056 A 
HETATM   24  C   UNL     1       8.244  20.912  56.107  1.00  0.00     0.049 C 
HETATM   25  C   UNL     1       8.910  20.458  53.236  1.00  0.00     0.049 C 
HETATM   26  C   UNL     1       7.710  22.602  52.725  1.00  0.00     0.010 A 
HETATM   27  C   UNL     1       6.993  23.739  53.104  1.00  0.00     0.037 A 
ENDBRANCH  19  20
ENDBRANCH  18  19
ENDBRANCH   1  18
TORSDOF 5
ENDMDL
MODEL 6
REMARK VINA RESULT:      -9.0      3.496     10.549
REMARK  5 active torsions:
REMARK  status: ('A' for Active; 'I' for Inactive)
REMARK    1  A    between atoms: C_6  and  O_7 
REMARK    2  A    between atoms: O_7  and  C_8 
REMARK    3  A    between atoms: C_8  and  C_9 
REMARK       I    between atoms: C_9  and  N_10 
REMARK    4  A    between atoms: N_10  and  N_11 
REMARK    5  A    between atoms: C_12  and  C_13 
ROOT
HETATM    1  C   UNL     1       8.107  29.869  58.542  1.00  0.00     0.261 C 
HETATM    2  N   UNL     1       6.775  29.802  58.157  1.00  0.00    -0.246 N 
HETATM    3  O   UNL     1       9.059  29.450  57.887  1.00  0.00    -0.269 OA
HETATM    4  H   UNL     1       6.055  30.145  58.789  1.00  0.00     0.192 HD
ENDROOT
BRANCH   2   5
HETATM    5  N   UNL     1       6.443  29.219  56.971  1.00  0.00    -0.184 NA
HETATM    6  C   UNL     1       5.984  28.011  57.032  1.00  0.00     0.152 C 
BRANCH   6   7
HETATM    7  C   UNL     1       5.607  27.341  55.802  1.00  0.00     0.011 A 
HETATM    8  C   UNL     1       6.168  26.147  55.243  1.00  0.00     0.005 A 
HETATM    9  C   UNL     1       5.476  25.877  54.058  1.00  0.00     0.043 A 
HETATM   10  C   UNL     1       7.190  25.257  55.638  1.00  0.00     0.033 A 
HETATM   11  C   UNL     1       5.753  24.770  53.248  1.00  0.00     0.031 A 
HETATM   12  N   UNL     1       4.537  26.870  53.901  1.00  0.00    -0.364 N 
HETATM   13  C   UNL     1       6.768  23.902  53.661  1.00  0.00     0.021 A 
HETATM   14  C   UNL     1       7.473  24.145  54.838  1.00  0.00     0.012 A 
HETATM   15 BR   UNL     1       8.834  22.943  55.371  1.00  0.00    -0.051 Br
HETATM   16  H   UNL     1       3.887  26.932  53.130  1.00  0.00     0.165 HD
HETATM   17  C   UNL     1       4.603  27.749  54.944  1.00  0.00     0.102 A 
ENDBRANCH   6   7
ENDBRANCH   2   5
BRANCH   1  18
HETATM   18  C   UNL     1       8.315  30.637  59.843  1.00  0.00     0.280 C 
BRANCH  18  19
HETATM   19  O   UNL     1       7.505  31.813  59.884  1.00  0.00    -0.342 OA
BRANCH  19  20
HETATM   20  C   UNL     1       7.381  32.349  61.139  1.00  0.00     0.069 A 
HETATM   21  C   UNL     1       6.466  33.348  61.477  1.00  0.00     0.044 A 
HETATM   22  C   UNL     1       6.386  33.838  62.793  1.00  0.00    -0.053 A 
HETATM   23  C   UNL     1       7.251  33.320  63.777  1.00  0.00    -0.056 A 
HETATM   24  C   UNL     1       5.393  34.924  63.111  1.00  0.00     0.049 C 
HETATM   25  C   UNL     1       7.211  33.813  65.199  1.00  0.00     0.049 C 
HETATM   26  C   UNL     1       8.142  32.293  63.432  1.00  0.00     0.010 A 
HETATM   27  C   UNL     1       8.201  31.806  62.124  1.00  0.00     0.037 A 
ENDBRANCH  19  20
ENDBRANCH  18  19
ENDBRANCH   1  18
TORSDOF 5
ENDMDL
MODEL 7
REMARK VINA RESULT:      -8.8      2.220      2.757
REMARK  5 active torsions:
REMARK  status: ('A' for Active; 'I' for Inactive)
REMARK    1  A    between atoms: C_6  and  O_7 
REMARK    2  A    between atoms: O_7  and  C_8 
REMARK    3  A    between atoms: C_8  and  C_9 
REMARK       I    between atoms: C_9  and  N_10 
REMARK    4  A    between atoms: N_10  and  N_11 
REMARK    5  A    between atoms: C_12  and  C_13 
ROOT
HETATM    1  C   UNL     1       5.787  27.103  56.029  1.00  0.00     0.261 C 
HETATM    2  N   UNL     1       6.355  28.363  56.159  1.00  0.00    -0.246 N 
HETATM    3  O   UNL     1       4.928  26.630  56.770  1.00  0.00    -0.269 OA
HETATM    4  H   UNL     1       7.088  28.648  55.514  1.00  0.00     0.192 HD
ENDROOT
BRANCH   2   5
HETATM    5  N   UNL     1       5.974  29.173  57.186  1.00  0.00    -0.184 NA
HETATM    6  C   UNL     1       5.798  30.422  56.900  1.00  0.00     0.152 C 
BRANCH   6   7
HETATM    7  C   UNL     1       5.386  31.332  57.952  1.00  0.00     0.011 A 
HETATM    8  C   UNL     1       6.135  31.750  59.099  1.00  0.00     0.005 A 
HETATM    9  C   UNL     1       5.333  32.640  59.819  1.00  0.00     0.043 A 
HETATM   10  C   UNL     1       7.429  31.469  59.589  1.00  0.00     0.033 A 
HETATM   11  C   UNL     1       5.753  33.259  61.002  1.00  0.00     0.031 A 
HETATM   12  N   UNL     1       4.142  32.753  59.141  1.00  0.00    -0.364 N 
HETATM   13  C   UNL     1       7.038  32.967  61.466  1.00  0.00     0.021 A 
HETATM   14  C   UNL     1       7.860  32.087  60.768  1.00  0.00     0.012 A 
HETATM   15 BR   UNL     1       9.599  31.722  61.421  1.00  0.00    -0.051 Br
HETATM   16  H   UNL     1       3.367  33.335  59.429  1.00  0.00     0.165 HD
HETATM   17  C   UNL     1       4.165  31.978  58.016  1.00  0.00     0.102 A 
ENDBRANCH   6   7
ENDBRANCH   2   5
BRANCH   1  18
HETATM   18  C   UNL     1       6.248  26.366  54.776  1.00  0.00     0.280 C 
BRANCH  18  19
HETATM   19  O   UNL     1       7.570  25.849  54.938  1.00  0.00    -0.342 OA
BRANCH  19  20
HETATM   20  C   UNL     1       7.698  24.542  54.546  1.00  0.00     0.069 A 
HETATM   21  C   UNL     1       7.630  23.453  55.418  1.00  0.00     0.044 A 
HETATM   22  C   UNL     1       7.754  22.136  54.939  1.00  0.00    -0.053 A 
HETATM   23  C   UNL     1       7.965  21.919  53.562  1.00  0.00    -0.056 A 
HETATM   24  C   UNL     1       7.685  20.993  55.914  1.00  0.00     0.049 C 
HETATM   25  C   UNL     1       8.111  20.532  52.998  1.00  0.00     0.049 C 
HETATM   26  C   UNL     1       7.998  23.020  52.693  1.00  0.00     0.010 A 
HETATM   27  C   UNL     1       7.858  24.321  53.182  1.00  0.00     0.037 A 
ENDBRANCH  19  20
ENDBRANCH  18  19
ENDBRANCH   1  18
TORSDOF 5
ENDMDL
MODEL 8
REMARK VINA RESULT:      -8.8      6.342      9.384
REMARK  5 active torsions:
REMARK  status: ('A' for Active; 'I' for Inactive)
REMARK    1  A    between atoms: C_6  and  O_7 
REMARK    2  A    between atoms: O_7  and  C_8 
REMARK    3  A    between atoms: C_8  and  C_9 
REMARK       I    between atoms: C_9  and  N_10 
REMARK    4  A    between atoms: N_10  and  N_11 
REMARK    5  A    between atoms: C_12  and  C_13 
ROOT
HETATM    1  C   UNL     1       4.625  28.041  53.500  1.00  0.00     0.261 C 
HETATM    2  N   UNL     1       5.425  26.961  53.154  1.00  0.00    -0.246 N 
HETATM    3  O   UNL     1       4.161  28.254  54.619  1.00  0.00    -0.269 OA
HETATM    4  H   UNL     1       5.728  26.854  52.190  1.00  0.00     0.192 HD
ENDROOT
BRANCH   2   5
HETATM    5  N   UNL     1       5.738  26.024  54.093  1.00  0.00    -0.184 NA
HETATM    6  C   UNL     1       6.953  26.032  54.533  1.00  0.00     0.152 C 
BRANCH   6   7
HETATM    7  C   UNL     1       7.343  25.062  55.538  1.00  0.00     0.011 A 
HETATM    8  C   UNL     1       7.707  23.690  55.344  1.00  0.00     0.005 A 
HETATM    9  C   UNL     1       8.017  23.159  56.600  1.00  0.00     0.043 A 
HETATM   10  C   UNL     1       7.820  22.849  54.216  1.00  0.00     0.033 A 
HETATM   11  C   UNL     1       8.427  21.834  56.788  1.00  0.00     0.031 A 
HETATM   12  N   UNL     1       7.841  24.166  57.520  1.00  0.00    -0.364 N 
HETATM   13  C   UNL     1       8.533  21.021  55.655  1.00  0.00     0.021 A 
HETATM   14  C   UNL     1       8.234  21.524  54.392  1.00  0.00     0.012 A 
HETATM   15 BR   UNL     1       8.398  20.397  52.880  1.00  0.00    -0.051 Br
HETATM   16  H   UNL     1       7.995  24.071  58.515  1.00  0.00     0.165 HD
HETATM   17  C   UNL     1       7.444  25.312  56.894  1.00  0.00     0.102 A 
ENDBRANCH   6   7
ENDBRANCH   2   5
BRANCH   1  18
HETATM   18  C   UNL     1       4.452  29.044  52.364  1.00  0.00     0.280 C 
BRANCH  18  19
HETATM   19  O   UNL     1       4.989  28.538  51.142  1.00  0.00    -0.342 OA
BRANCH  19  20
HETATM   20  C   UNL     1       4.031  28.165  50.236  1.00  0.00     0.069 A 
HETATM   21  C   UNL     1       4.157  27.080  49.366  1.00  0.00     0.044 A 
HETATM   22  C   UNL     1       3.122  26.746  48.474  1.00  0.00    -0.053 A 
HETATM   23  C   UNL     1       1.951  27.529  48.451  1.00  0.00    -0.056 A 
HETATM   24  C   UNL     1       3.304  25.576  47.546  1.00  0.00     0.049 C 
HETATM   25  C   UNL     1       0.816  27.221  47.512  1.00  0.00     0.049 C 
HETATM   26  C   UNL     1       1.823  28.596  49.354  1.00  0.00     0.010 A 
HETATM   27  C   UNL     1       2.854  28.906  50.245  1.00  0.00     0.037 A 
ENDBRANCH  19  20
ENDBRANCH  18  19
ENDBRANCH   1  18
TORSDOF 5
ENDMDL
MODEL 9
REMARK VINA RESULT:      -8.8      6.291      8.958
REMARK  5 active torsions:
REMARK  status: ('A' for Active; 'I' for Inactive)
REMARK    1  A    between atoms: C_6  and  O_7 
REMARK    2  A    between atoms: O_7  and  C_8 
REMARK    3  A    between atoms: C_8  and  C_9 
REMARK       I    between atoms: C_9  and  N_10 
REMARK    4  A    between atoms: N_10  and  N_11 
REMARK    5  A    between atoms: C_12  and  C_13 
ROOT
HETATM    1  C   UNL     1       5.661  26.658  54.110  1.00  0.00     0.261 C 
HETATM    2  N   UNL     1       5.103  25.857  53.123  1.00  0.00    -0.246 N 
HETATM    3  O   UNL     1       5.710  27.887  54.086  1.00  0.00    -0.269 OA
HETATM    4  H   UNL     1       5.146  24.846  53.218  1.00  0.00     0.192 HD
ENDROOT
BRANCH   2   5
HETATM    5  N   UNL     1       4.568  26.431  52.009  1.00  0.00    -0.184 NA
HETATM    6  C   UNL     1       5.178  26.202  50.892  1.00  0.00     0.152 C 
BRANCH   6   7
HETATM    7  C   UNL     1       4.651  26.781  49.672  1.00  0.00     0.011 A 
HETATM    8  C   UNL     1       4.740  28.142  49.232  1.00  0.00     0.005 A 
HETATM    9  C   UNL     1       4.097  28.223  47.993  1.00  0.00     0.043 A 
HETATM   10  C   UNL     1       5.321  29.314  49.761  1.00  0.00     0.033 A 
HETATM   11  C   UNL     1       4.001  29.411  47.259  1.00  0.00     0.031 A 
HETATM   12  N   UNL     1       3.631  26.964  47.695  1.00  0.00    -0.364 N 
HETATM   13  C   UNL     1       4.586  30.558  47.803  1.00  0.00     0.021 A 
HETATM   14  C   UNL     1       5.235  30.506  49.034  1.00  0.00     0.012 A 
HETATM   15 BR   UNL     1       6.024  32.077  49.736  1.00  0.00    -0.051 Br
HETATM   16  H   UNL     1       3.124  26.720  46.854  1.00  0.00     0.165 HD
HETATM   17  C   UNL     1       3.962  26.091  48.691  1.00  0.00     0.102 A 
ENDBRANCH   6   7
ENDBRANCH   2   5
BRANCH   1  18
HETATM   18  C   UNL     1       6.125  25.868  55.329  1.00  0.00     0.280 C 
BRANCH  18  19
HETATM   19  O   UNL     1       7.502  25.507  55.216  1.00  0.00    -0.342 OA
BRANCH  19  20
HETATM   20  C   UNL     1       7.697  24.233  54.752  1.00  0.00     0.069 A 
HETATM   21  C   UNL     1       7.586  23.086  55.541  1.00  0.00     0.044 A 
HETATM   22  C   UNL     1       7.785  21.808  54.989  1.00  0.00    -0.053 A 
HETATM   23  C   UNL     1       8.115  21.688  53.624  1.00  0.00    -0.056 A 
HETATM   24  C   UNL     1       7.666  20.600  55.879  1.00  0.00     0.049 C 
HETATM   25  C   UNL     1       8.344  20.345  52.985  1.00  0.00     0.049 C 
HETATM   26  C   UNL     1       8.190  22.846  52.835  1.00  0.00     0.010 A 
HETATM   27  C   UNL     1       7.975  24.108  53.394  1.00  0.00     0.037 A 
ENDBRANCH  19  20
ENDBRANCH  18  19
ENDBRANCH   1  18
TORSDOF 5
ENDMDL
MODEL 10
REMARK VINA RESULT:      -8.7      2.397      3.277
REMARK  5 active torsions:
REMARK  status: ('A' for Active; 'I' for Inactive)
REMARK    1  A    between atoms: C_6  and  O_7 
REMARK    2  A    between atoms: O_7  and  C_8 
REMARK    3  A    between atoms: C_8  and  C_9 
REMARK       I    between atoms: C_9  and  N_10 
REMARK    4  A    between atoms: N_10  and  N_11 
REMARK    5  A    between atoms: C_12  and  C_13 
ROOT
HETATM    1  C   UNL     1       6.807  27.141  54.266  1.00  0.00     0.261 C 
HETATM    2  N   UNL     1       7.571  28.259  54.568  1.00  0.00    -0.246 N 
HETATM    3  O   UNL     1       5.614  27.001  54.530  1.00  0.00    -0.269 OA
HETATM    4  H   UNL     1       8.562  28.263  54.340  1.00  0.00     0.192 HD
ENDROOT
BRANCH   2   5
HETATM    5  N   UNL     1       7.003  29.309  55.225  1.00  0.00    -0.184 NA
HETATM    6  C   UNL     1       7.100  29.303  56.515  1.00  0.00     0.152 C 
BRANCH   6   7
HETATM    7  C   UNL     1       6.520  30.397  57.269  1.00  0.00     0.011 A 
HETATM    8  C   UNL     1       6.923  30.895  58.550  1.00  0.00     0.005 A 
HETATM    9  C   UNL     1       6.078  31.964  58.866  1.00  0.00     0.043 A 
HETATM   10  C   UNL     1       7.938  30.551  59.468  1.00  0.00     0.033 A 
HETATM   11  C   UNL     1       6.191  32.701  60.050  1.00  0.00     0.031 A 
HETATM   12  N   UNL     1       5.193  32.104  57.823  1.00  0.00    -0.364 N 
HETATM   13  C   UNL     1       7.206  32.343  60.943  1.00  0.00     0.021 A 
HETATM   14  C   UNL     1       8.063  31.285  60.653  1.00  0.00     0.012 A 
HETATM   15 BR   UNL     1       9.431  30.834  61.880  1.00  0.00    -0.051 Br
HETATM   16  H   UNL     1       4.463  32.802  57.775  1.00  0.00     0.165 HD
HETATM   17  C   UNL     1       5.453  31.174  56.857  1.00  0.00     0.102 A 
ENDBRANCH   6   7
ENDBRANCH   2   5
BRANCH   1  18
HETATM   18  C   UNL     1       7.565  26.103  53.445  1.00  0.00     0.280 C 
BRANCH  18  19
HETATM   19  O   UNL     1       6.727  24.997  53.110  1.00  0.00    -0.342 OA
BRANCH  19  20
HETATM   20  C   UNL     1       7.129  23.814  53.674  1.00  0.00     0.069 A 
HETATM   21  C   UNL     1       7.592  22.717  52.944  1.00  0.00     0.044 A 
HETATM   22  C   UNL     1       8.004  21.540  53.595  1.00  0.00    -0.053 A 
HETATM   23  C   UNL     1       7.933  21.467  55.001  1.00  0.00    -0.056 A 
HETATM   24  C   UNL     1       8.485  20.377  52.770  1.00  0.00     0.049 C 
HETATM   25  C   UNL     1       8.355  20.229  55.747  1.00  0.00     0.049 C 
HETATM   26  C   UNL     1       7.498  22.588  55.723  1.00  0.00     0.010 A 
HETATM   27  C   UNL     1       7.106  23.755  55.063  1.00  0.00     0.037 A 
ENDBRANCH  19  20
ENDBRANCH  18  19
ENDBRANCH   1  18
TORSDOF 5
ENDMDL
