MODEL 1
REMARK VINA RESULT:     -10.3      0.000      0.000
REMARK  8 active torsions:
REMARK  status: ('A' for Active; 'I' for Inactive)
REMARK       I    between atoms: C_2  and  N_3 
REMARK    1  A    between atoms: N_6  and  C_7 
REMARK    2  A    between atoms: C_8  and  N_9 
REMARK    3  A    between atoms: N_9  and  C_10 
REMARK    4  A    between atoms: C_10  and  N_11 
REMARK       I    between atoms: N_11  and  C_12 
REMARK    5  A    between atoms: C_12  and  C_13 
REMARK    6  A    between atoms: C_15  and  O_16 
REMARK    7  A    between atoms: O_16  and  C_17 
REMARK    8  A    between atoms: C_17  and  C_18 
ROOT
HETATM    1  C   UNL     1       7.235  30.346  58.422  1.00  0.00     0.179 C 
HETATM    2  S   UNL     1       8.645  31.110  58.897  1.00  0.00    -0.040 SA
ENDROOT
BRANCH   1   3
HETATM    3  N   UNL     1       6.042  30.864  58.778  1.00  0.00    -0.331 N 
HETATM    4  H   UNL     1       5.342  30.202  59.107  1.00  0.00     0.168 HD
BRANCH   3   5
HETATM    5  C   UNL     1       5.472  32.133  58.515  1.00  0.00     0.061 A 
HETATM    6  C   UNL     1       4.899  32.810  59.629  1.00  0.00     0.057 A 
HETATM    7  C   UNL     1       4.131  33.952  59.367  1.00  0.00     0.031 A 
HETATM    8  C   UNL     1       3.983  34.444  58.066  1.00  0.00     0.002 A 
HETATM    9  C   UNL     1       4.594  33.797  56.997  1.00  0.00     0.002 A 
HETATM   10  C   UNL     1       5.333  32.637  57.217  1.00  0.00     0.032 A 
BRANCH   6  11
HETATM   11  N   UNL     1       5.127  32.316  60.931  1.00  0.00    -0.376 N 
HETATM   12  C   UNL     1       6.458  32.712  61.487  1.00  0.00     0.143 C 
HETATM   13  C   UNL     1       6.368  34.023  62.293  1.00  0.00     0.145 C 
HETATM   14  N   UNL     1       5.346  33.898  63.339  1.00  0.00    -0.349 N 
HETATM   15  C   UNL     1       5.621  33.540  64.649  1.00  0.00     0.215 C 
HETATM   16  C   UNL     1       4.016  33.607  62.799  1.00  0.00     0.145 C 
HETATM   17  C   UNL     1       7.037  33.731  65.131  1.00  0.00     0.117 C 
HETATM   18  O   UNL     1       4.763  33.092  65.410  1.00  0.00    -0.274 OA
HETATM   19  C   UNL     1       4.034  32.326  61.937  1.00  0.00     0.143 C 
ENDBRANCH   6  11
ENDBRANCH   3   5
ENDBRANCH   1   3
BRANCH   1  20
HETATM   20  N   UNL     1       7.340  29.244  57.630  1.00  0.00    -0.299 N 
HETATM   21  C   UNL     1       6.270  28.536  57.089  1.00  0.00     0.257 C 
HETATM   22  O   UNL     1       5.105  28.554  57.461  1.00  0.00    -0.267 OA
HETATM   23  H   UNL     1       8.139  29.322  57.014  1.00  0.00     0.171 HD
BRANCH  21  24
HETATM   24  C   UNL     1       6.623  27.748  55.878  1.00  0.00     0.035 A 
HETATM   25  C   UNL     1       6.271  26.401  55.762  1.00  0.00     0.053 A 
HETATM   26  C   UNL     1       6.708  25.677  54.656  1.00  0.00     0.070 A 
HETATM   27  C   UNL     1       7.446  26.288  53.643  1.00  0.00     0.037 A 
HETATM   28  C   UNL     1       7.770  27.640  53.746  1.00  0.00     0.004 A 
HETATM   29  C   UNL     1       7.359  28.373  54.862  1.00  0.00     0.017 A 
BRANCH  26  30
HETATM   30  O   UNL     1       6.335  24.367  54.564  1.00  0.00    -0.347 OA
BRANCH  30  31
HETATM   31  C   UNL     1       6.982  23.724  53.459  1.00  0.00     0.214 C 
BRANCH  31  32
HETATM   32  C   UNL     1       7.572  22.434  53.969  1.00  0.00    -0.034 A 
HETATM   33  C   UNL     1       8.074  21.480  53.074  1.00  0.00     0.009 A 
HETATM   34  C   UNL     1       8.584  20.269  53.544  1.00  0.00     0.001 A 
HETATM   35  C   UNL     1       8.589  19.996  54.910  1.00  0.00     0.000 A 
HETATM   36  C   UNL     1       8.082  20.932  55.809  1.00  0.00     0.001 A 
HETATM   37  C   UNL     1       7.572  22.145  55.342  1.00  0.00     0.009 A 
ENDBRANCH  31  32
ENDBRANCH  30  31
ENDBRANCH  26  30
ENDBRANCH  21  24
ENDBRANCH   1  20
TORSDOF 8
ENDMDL
MODEL 2
REMARK VINA RESULT:     -10.1      1.871      2.806
REMARK  8 active torsions:
REMARK  status: ('A' for Active; 'I' for Inactive)
REMARK       I    between atoms: C_2  and  N_3 
REMARK    1  A    between atoms: N_6  and  C_7 
REMARK    2  A    between atoms: C_8  and  N_9 
REMARK    3  A    between atoms: N_9  and  C_10 
REMARK    4  A    between atoms: C_10  and  N_11 
REMARK       I    between atoms: N_11  and  C_12 
REMARK    5  A    between atoms: C_12  and  C_13 
REMARK    6  A    between atoms: C_15  and  O_16 
REMARK    7  A    between atoms: O_16  and  C_17 
REMARK    8  A    between atoms: C_17  and  C_18 
ROOT
HETATM    1  C   UNL     1       5.433  30.970  57.667  1.00  0.00     0.179 C 
HETATM    2  S   UNL     1       4.943  32.239  56.693  1.00  0.00    -0.040 SA
ENDROOT
BRANCH   1   3
HETATM    3  N   UNL     1       5.821  31.213  58.936  1.00  0.00    -0.331 N 
HETATM    4  H   UNL     1       5.096  31.522  59.579  1.00  0.00     0.168 HD
BRANCH   3   5
HETATM    5  C   UNL     1       7.113  31.391  59.487  1.00  0.00     0.061 A 
HETATM    6  C   UNL     1       7.182  32.128  60.703  1.00  0.00     0.057 A 
HETATM    7  C   UNL     1       8.452  32.516  61.152  1.00  0.00     0.031 A 
HETATM    8  C   UNL     1       9.611  32.143  60.464  1.00  0.00     0.002 A 
HETATM    9  C   UNL     1       9.523  31.378  59.305  1.00  0.00     0.002 A 
HETATM   10  C   UNL     1       8.275  31.007  58.810  1.00  0.00     0.032 A 
BRANCH   6  11
HETATM   11  N   UNL     1       5.993  32.429  61.400  1.00  0.00    -0.376 N 
HETATM   12  C   UNL     1       5.982  31.906  62.802  1.00  0.00     0.143 C 
HETATM   13  C   UNL     1       6.512  32.953  63.801  1.00  0.00     0.145 C 
HETATM   14  N   UNL     1       5.749  34.200  63.670  1.00  0.00    -0.349 N 
HETATM   15  C   UNL     1       4.662  34.528  64.464  1.00  0.00     0.215 C 
HETATM   16  C   UNL     1       5.833  34.776  62.326  1.00  0.00     0.145 C 
HETATM   17  C   UNL     1       4.537  33.817  65.787  1.00  0.00     0.117 C 
HETATM   18  O   UNL     1       3.825  35.368  64.131  1.00  0.00    -0.274 OA
HETATM   19  C   UNL     1       5.360  33.765  61.257  1.00  0.00     0.143 C 
ENDBRANCH   6  11
ENDBRANCH   3   5
ENDBRANCH   1   3
BRANCH   1  20
HETATM   20  N   UNL     1       5.366  29.710  57.158  1.00  0.00    -0.299 N 
HETATM   21  C   UNL     1       6.353  29.095  56.394  1.00  0.00     0.257 C 
HETATM   22  O   UNL     1       7.265  29.638  55.785  1.00  0.00    -0.267 OA
HETATM   23  H   UNL     1       4.895  29.089  57.804  1.00  0.00     0.171 HD
BRANCH  21  24
HETATM   24  C   UNL     1       6.294  27.610  56.418  1.00  0.00     0.035 A 
HETATM   25  C   UNL     1       7.337  26.834  55.905  1.00  0.00     0.053 A 
HETATM   26  C   UNL     1       7.195  25.450  55.857  1.00  0.00     0.070 A 
HETATM   27  C   UNL     1       6.053  24.826  56.359  1.00  0.00     0.037 A 
HETATM   28  C   UNL     1       5.027  25.600  56.899  1.00  0.00     0.004 A 
HETATM   29  C   UNL     1       5.145  26.992  56.931  1.00  0.00     0.017 A 
BRANCH  26  30
HETATM   30  O   UNL     1       8.238  24.719  55.364  1.00  0.00    -0.347 OA
BRANCH  30  31
HETATM   31  C   UNL     1       7.929  24.191  54.069  1.00  0.00     0.214 C 
BRANCH  31  32
HETATM   32  C   UNL     1       8.185  22.706  54.114  1.00  0.00    -0.034 A 
HETATM   33  C   UNL     1       8.675  22.104  55.280  1.00  0.00     0.009 A 
HETATM   34  C   UNL     1       8.948  20.736  55.309  1.00  0.00     0.001 A 
HETATM   35  C   UNL     1       8.742  19.959  54.171  1.00  0.00     0.000 A 
HETATM   36  C   UNL     1       8.265  20.548  53.002  1.00  0.00     0.001 A 
HETATM   37  C   UNL     1       7.990  21.916  52.971  1.00  0.00     0.009 A 
ENDBRANCH  31  32
ENDBRANCH  30  31
ENDBRANCH  26  30
ENDBRANCH  21  24
ENDBRANCH   1  20
TORSDOF 8
ENDMDL
MODEL 3
REMARK VINA RESULT:      -9.9      2.028      3.502
REMARK  8 active torsions:
REMARK  status: ('A' for Active; 'I' for Inactive)
REMARK       I    between atoms: C_2  and  N_3 
REMARK    1  A    between atoms: N_6  and  C_7 
REMARK    2  A    between atoms: C_8  and  N_9 
REMARK    3  A    between atoms: N_9  and  C_10 
REMARK    4  A    between atoms: C_10  and  N_11 
REMARK       I    between atoms: N_11  and  C_12 
REMARK    5  A    between atoms: C_12  and  C_13 
REMARK    6  A    between atoms: C_15  and  O_16 
REMARK    7  A    between atoms: O_16  and  C_17 
REMARK    8  A    between atoms: C_17  and  C_18 
ROOT
HETATM    1  C   UNL     1       7.851  30.816  59.262  1.00  0.00     0.179 C 
HETATM    2  S   UNL     1       9.336  31.570  59.113  1.00  0.00    -0.040 SA
ENDROOT
BRANCH   1   3
HETATM    3  N   UNL     1       6.889  31.377  60.022  1.00  0.00    -0.331 N 
HETATM    4  H   UNL     1       6.035  31.651  59.541  1.00  0.00     0.168 HD
BRANCH   3   5
HETATM    5  C   UNL     1       6.946  31.922  61.327  1.00  0.00     0.061 A 
HETATM    6  C   UNL     1       5.929  32.861  61.663  1.00  0.00     0.057 A 
HETATM    7  C   UNL     1       6.084  33.585  62.852  1.00  0.00     0.031 A 
HETATM    8  C   UNL     1       7.167  33.353  63.708  1.00  0.00     0.002 A 
HETATM    9  C   UNL     1       8.122  32.395  63.386  1.00  0.00     0.002 A 
HETATM   10  C   UNL     1       8.020  31.684  62.192  1.00  0.00     0.032 A 
BRANCH   6  11
HETATM   11  N   UNL     1       4.821  33.017  60.804  1.00  0.00    -0.376 N 
HETATM   12  C   UNL     1       3.517  32.680  61.455  1.00  0.00     0.143 C 
HETATM   13  C   UNL     1       2.860  33.923  62.086  1.00  0.00     0.145 C 
HETATM   14  N   UNL     1       2.717  34.980  61.078  1.00  0.00    -0.349 N 
HETATM   15  C   UNL     1       1.563  35.194  60.342  1.00  0.00     0.215 C 
HETATM   16  C   UNL     1       4.000  35.390  60.502  1.00  0.00     0.145 C 
HETATM   17  C   UNL     1       0.277  34.642  60.902  1.00  0.00     0.117 C 
HETATM   18  O   UNL     1       1.559  35.815  59.278  1.00  0.00    -0.274 OA
HETATM   19  C   UNL     1       4.745  34.184  59.887  1.00  0.00     0.143 C 
ENDBRANCH   6  11
ENDBRANCH   3   5
ENDBRANCH   1   3
BRANCH   1  20
HETATM   20  N   UNL     1       7.640  29.674  58.552  1.00  0.00    -0.299 N 
HETATM   21  C   UNL     1       6.544  29.427  57.730  1.00  0.00     0.257 C 
HETATM   22  O   UNL     1       5.464  30.002  57.741  1.00  0.00    -0.267 OA
HETATM   23  H   UNL     1       8.514  29.306  58.199  1.00  0.00     0.171 HD
BRANCH  21  24
HETATM   24  C   UNL     1       6.794  28.395  56.689  1.00  0.00     0.035 A 
HETATM   25  C   UNL     1       6.749  27.032  56.994  1.00  0.00     0.053 A 
HETATM   26  C   UNL     1       7.089  26.105  56.012  1.00  0.00     0.070 A 
HETATM   27  C   UNL     1       7.422  26.513  54.722  1.00  0.00     0.037 A 
HETATM   28  C   UNL     1       7.437  27.872  54.411  1.00  0.00     0.004 A 
HETATM   29  C   UNL     1       7.123  28.815  55.393  1.00  0.00     0.017 A 
BRANCH  26  30
HETATM   30  O   UNL     1       7.020  24.780  56.337  1.00  0.00    -0.347 OA
BRANCH  30  31
HETATM   31  C   UNL     1       8.297  24.148  56.193  1.00  0.00     0.214 C 
BRANCH  31  32
HETATM   32  C   UNL     1       8.113  22.954  55.292  1.00  0.00    -0.034 A 
HETATM   33  C   UNL     1       7.978  21.669  55.835  1.00  0.00     0.009 A 
HETATM   34  C   UNL     1       7.846  20.559  54.999  1.00  0.00     0.001 A 
HETATM   35  C   UNL     1       7.857  20.721  53.615  1.00  0.00     0.000 A 
HETATM   36  C   UNL     1       8.001  21.993  53.064  1.00  0.00     0.001 A 
HETATM   37  C   UNL     1       8.131  23.105  53.897  1.00  0.00     0.009 A 
ENDBRANCH  31  32
ENDBRANCH  30  31
ENDBRANCH  26  30
ENDBRANCH  21  24
ENDBRANCH   1  20
TORSDOF 8
ENDMDL
MODEL 4
REMARK VINA RESULT:      -9.8      2.703     10.866
REMARK  8 active torsions:
REMARK  status: ('A' for Active; 'I' for Inactive)
REMARK       I    between atoms: C_2  and  N_3 
REMARK    1  A    between atoms: N_6  and  C_7 
REMARK    2  A    between atoms: C_8  and  N_9 
REMARK    3  A    between atoms: N_9  and  C_10 
REMARK    4  A    between atoms: C_10  and  N_11 
REMARK       I    between atoms: N_11  and  C_12 
REMARK    5  A    between atoms: C_12  and  C_13 
REMARK    6  A    between atoms: C_15  and  O_16 
REMARK    7  A    between atoms: O_16  and  C_17 
REMARK    8  A    between atoms: C_17  and  C_18 
ROOT
HETATM    1  C   UNL     1       9.276  29.831  57.282  1.00  0.00     0.179 C 
HETATM    2  S   UNL     1      10.838  29.464  56.811  1.00  0.00    -0.040 SA
ENDROOT
BRANCH   1   3
HETATM    3  N   UNL     1       8.264  29.702  56.400  1.00  0.00    -0.331 N 
HETATM    4  H   UNL     1       8.455  30.001  55.446  1.00  0.00     0.168 HD
BRANCH   3   5
HETATM    5  C   UNL     1       6.880  29.489  56.609  1.00  0.00     0.061 A 
HETATM    6  C   UNL     1       6.348  28.268  56.105  1.00  0.00     0.057 A 
HETATM    7  C   UNL     1       4.954  28.128  56.091  1.00  0.00     0.031 A 
HETATM    8  C   UNL     1       4.118  29.124  56.608  1.00  0.00     0.002 A 
HETATM    9  C   UNL     1       4.662  30.287  57.144  1.00  0.00     0.002 A 
HETATM   10  C   UNL     1       6.042  30.476  57.138  1.00  0.00     0.032 A 
BRANCH   6  11
HETATM   11  N   UNL     1       7.229  27.263  55.652  1.00  0.00    -0.376 N 
HETATM   12  C   UNL     1       7.350  26.114  56.602  1.00  0.00     0.143 C 
HETATM   13  C   UNL     1       6.339  24.998  56.272  1.00  0.00     0.145 C 
HETATM   14  N   UNL     1       6.495  24.578  54.874  1.00  0.00    -0.349 N 
HETATM   15  C   UNL     1       7.264  23.498  54.472  1.00  0.00     0.215 C 
HETATM   16  C   UNL     1       6.280  25.676  53.927  1.00  0.00     0.145 C 
HETATM   17  C   UNL     1       7.575  22.452  55.511  1.00  0.00     0.117 C 
HETATM   18  O   UNL     1       7.679  23.371  53.320  1.00  0.00    -0.274 OA
HETATM   19  C   UNL     1       7.230  26.858  54.223  1.00  0.00     0.143 C 
ENDBRANCH   6  11
ENDBRANCH   3   5
ENDBRANCH   1   3
BRANCH   1  20
HETATM   20  N   UNL     1       9.067  30.196  58.576  1.00  0.00    -0.299 N 
HETATM   21  C   UNL     1       9.307  31.460  59.107  1.00  0.00     0.257 C 
HETATM   22  O   UNL     1      10.017  32.339  58.637  1.00  0.00    -0.267 OA
HETATM   23  H   UNL     1       8.242  29.741  58.946  1.00  0.00     0.171 HD
BRANCH  21  24
HETATM   24  C   UNL     1       8.526  31.753  60.338  1.00  0.00     0.035 A 
HETATM   25  C   UNL     1       7.165  32.063  60.277  1.00  0.00     0.053 A 
HETATM   26  C   UNL     1       6.498  32.428  61.443  1.00  0.00     0.070 A 
HETATM   27  C   UNL     1       7.154  32.441  62.673  1.00  0.00     0.037 A 
HETATM   28  C   UNL     1       8.506  32.103  62.737  1.00  0.00     0.004 A 
HETATM   29  C   UNL     1       9.194  31.758  61.571  1.00  0.00     0.017 A 
BRANCH  26  30
HETATM   30  O   UNL     1       5.164  32.709  61.353  1.00  0.00    -0.347 OA
BRANCH  30  31
HETATM   31  C   UNL     1       4.952  34.060  60.925  1.00  0.00     0.214 C 
BRANCH  31  32
HETATM   32  C   UNL     1       4.835  34.913  62.163  1.00  0.00    -0.034 A 
HETATM   33  C   UNL     1       5.704  35.993  62.365  1.00  0.00     0.009 A 
HETATM   34  C   UNL     1       5.620  36.759  63.529  1.00  0.00     0.001 A 
HETATM   35  C   UNL     1       4.675  36.447  64.504  1.00  0.00     0.000 A 
HETATM   36  C   UNL     1       3.813  35.369  64.318  1.00  0.00     0.001 A 
HETATM   37  C   UNL     1       3.893  34.602  63.155  1.00  0.00     0.009 A 
ENDBRANCH  31  32
ENDBRANCH  30  31
ENDBRANCH  26  30
ENDBRANCH  21  24
ENDBRANCH   1  20
TORSDOF 8
ENDMDL
MODEL 5
REMARK VINA RESULT:      -9.6      1.713      2.408
REMARK  8 active torsions:
REMARK  status: ('A' for Active; 'I' for Inactive)
REMARK       I    between atoms: C_2  and  N_3 
REMARK    1  A    between atoms: N_6  and  C_7 
REMARK    2  A    between atoms: C_8  and  N_9 
REMARK    3  A    between atoms: N_9  and  C_10 
REMARK    4  A    between atoms: C_10  and  N_11 
REMARK       I    between atoms: N_11  and  C_12 
REMARK    5  A    between atoms: C_12  and  C_13 
REMARK    6  A    between atoms: C_15  and  O_16 
REMARK    7  A    between atoms: O_16  and  C_17 
REMARK    8  A    between atoms: C_17  and  C_18 
ROOT
HETATM    1  C   UNL     1       5.363  30.944  57.436  1.00  0.00     0.179 C 
HETATM    2  S   UNL     1       4.136  31.993  57.000  1.00  0.00    -0.040 SA
ENDROOT
BRANCH   1   3
HETATM    3  N   UNL     1       5.839  30.960  58.698  1.00  0.00    -0.331 N 
HETATM    4  H   UNL     1       5.145  30.988  59.442  1.00  0.00     0.168 HD
BRANCH   3   5
HETATM    5  C   UNL     1       7.138  31.230  59.190  1.00  0.00     0.061 A 
HETATM    6  C   UNL     1       7.211  31.994  60.390  1.00  0.00     0.057 A 
HETATM    7  C   UNL     1       8.470  32.471  60.778  1.00  0.00     0.031 A 
HETATM    8  C   UNL     1       9.621  32.159  60.047  1.00  0.00     0.002 A 
HETATM    9  C   UNL     1       9.535  31.368  58.906  1.00  0.00     0.002 A 
HETATM   10  C   UNL     1       8.294  30.909  58.470  1.00  0.00     0.032 A 
BRANCH   6  11
HETATM   11  N   UNL     1       6.034  32.231  61.132  1.00  0.00    -0.376 N 
HETATM   12  C   UNL     1       6.134  31.781  62.555  1.00  0.00     0.143 C 
HETATM   13  C   UNL     1       6.621  32.917  63.476  1.00  0.00     0.145 C 
HETATM   14  N   UNL     1       5.751  34.090  63.327  1.00  0.00    -0.349 N 
HETATM   15  C   UNL     1       4.678  34.368  64.159  1.00  0.00     0.215 C 
HETATM   16  C   UNL     1       5.722  34.602  61.954  1.00  0.00     0.145 C 
HETATM   17  C   UNL     1       4.677  33.717  65.518  1.00  0.00     0.117 C 
HETATM   18  O   UNL     1       3.759  35.119  63.830  1.00  0.00    -0.274 OA
HETATM   19  C   UNL     1       5.286  33.503  60.960  1.00  0.00     0.143 C 
ENDBRANCH   6  11
ENDBRANCH   3   5
ENDBRANCH   1   3
BRANCH   1  20
HETATM   20  N   UNL     1       5.806  30.055  56.506  1.00  0.00    -0.299 N 
HETATM   21  C   UNL     1       5.655  28.673  56.575  1.00  0.00     0.257 C 
HETATM   22  O   UNL     1       5.413  28.003  57.570  1.00  0.00    -0.267 OA
HETATM   23  H   UNL     1       5.709  30.436  55.574  1.00  0.00     0.171 HD
BRANCH  21  24
HETATM   24  C   UNL     1       5.726  27.994  55.254  1.00  0.00     0.035 A 
HETATM   25  C   UNL     1       5.779  26.601  55.157  1.00  0.00     0.053 A 
HETATM   26  C   UNL     1       5.946  26.013  53.906  1.00  0.00     0.070 A 
HETATM   27  C   UNL     1       6.009  26.788  52.749  1.00  0.00     0.037 A 
HETATM   28  C   UNL     1       5.925  28.177  52.845  1.00  0.00     0.004 A 
HETATM   29  C   UNL     1       5.783  28.782  54.096  1.00  0.00     0.017 A 
BRANCH  26  30
HETATM   30  O   UNL     1       5.978  24.649  53.843  1.00  0.00    -0.347 OA
BRANCH  30  31
HETATM   31  C   UNL     1       7.169  24.193  53.190  1.00  0.00     0.214 C 
BRANCH  31  32
HETATM   32  C   UNL     1       7.539  22.864  53.799  1.00  0.00    -0.034 A 
HETATM   33  C   UNL     1       7.916  21.790  52.983  1.00  0.00     0.009 A 
HETATM   34  C   UNL     1       8.221  20.549  53.545  1.00  0.00     0.001 A 
HETATM   35  C   UNL     1       8.143  20.368  54.924  1.00  0.00     0.000 A 
HETATM   36  C   UNL     1       7.758  21.427  55.744  1.00  0.00     0.001 A 
HETATM   37  C   UNL     1       7.454  22.669  55.186  1.00  0.00     0.009 A 
ENDBRANCH  31  32
ENDBRANCH  30  31
ENDBRANCH  26  30
ENDBRANCH  21  24
ENDBRANCH   1  20
TORSDOF 8
ENDMDL
MODEL 6
REMARK VINA RESULT:      -9.2      5.238      9.582
REMARK  8 active torsions:
REMARK  status: ('A' for Active; 'I' for Inactive)
REMARK       I    between atoms: C_2  and  N_3 
REMARK    1  A    between atoms: N_6  and  C_7 
REMARK    2  A    between atoms: C_8  and  N_9 
REMARK    3  A    between atoms: N_9  and  C_10 
REMARK    4  A    between atoms: C_10  and  N_11 
REMARK       I    between atoms: N_11  and  C_12 
REMARK    5  A    between atoms: C_12  and  C_13 
REMARK    6  A    between atoms: C_15  and  O_16 
REMARK    7  A    between atoms: O_16  and  C_17 
REMARK    8  A    between atoms: C_17  and  C_18 
ROOT
HETATM    1  C   UNL     1       4.265  30.015  53.538  1.00  0.00     0.179 C 
HETATM    2  S   UNL     1       3.923  31.644  53.372  1.00  0.00    -0.040 SA
ENDROOT
BRANCH   1   3
HETATM    3  N   UNL     1       3.742  29.130  52.664  1.00  0.00    -0.331 N 
HETATM    4  H   UNL     1       2.727  29.101  52.604  1.00  0.00     0.168 HD
BRANCH   3   5
HETATM    5  C   UNL     1       4.333  28.023  52.010  1.00  0.00     0.061 A 
HETATM    6  C   UNL     1       4.268  28.024  50.587  1.00  0.00     0.057 A 
HETATM    7  C   UNL     1       4.635  26.847  49.921  1.00  0.00     0.031 A 
HETATM    8  C   UNL     1       5.104  25.732  50.624  1.00  0.00     0.002 A 
HETATM    9  C   UNL     1       5.208  25.769  52.011  1.00  0.00     0.002 A 
HETATM   10  C   UNL     1       4.816  26.910  52.707  1.00  0.00     0.032 A 
BRANCH   6  11
HETATM   11  N   UNL     1       3.850  29.192  49.914  1.00  0.00    -0.376 N 
HETATM   12  C   UNL     1       4.909  29.775  49.033  1.00  0.00     0.143 C 
HETATM   13  C   UNL     1       4.808  29.236  47.593  1.00  0.00     0.145 C 
HETATM   14  N   UNL     1       3.459  29.469  47.064  1.00  0.00    -0.349 N 
HETATM   15  C   UNL     1       3.111  30.563  46.289  1.00  0.00     0.215 C 
HETATM   16  C   UNL     1       2.418  28.818  47.864  1.00  0.00     0.145 C 
HETATM   17  C   UNL     1       4.227  31.289  45.584  1.00  0.00     0.117 C 
HETATM   18  O   UNL     1       1.946  30.941  46.158  1.00  0.00    -0.274 OA
HETATM   19  C   UNL     1       2.483  29.275  49.338  1.00  0.00     0.143 C 
ENDBRANCH   6  11
ENDBRANCH   3   5
ENDBRANCH   1   3
BRANCH   1  20
HETATM   20  N   UNL     1       5.120  29.638  54.526  1.00  0.00    -0.299 N 
HETATM   21  C   UNL     1       4.778  28.882  55.644  1.00  0.00     0.257 C 
HETATM   22  O   UNL     1       3.658  28.703  56.103  1.00  0.00    -0.267 OA
HETATM   23  H   UNL     1       6.034  29.425  54.147  1.00  0.00     0.171 HD
BRANCH  21  24
HETATM   24  C   UNL     1       5.927  28.170  56.263  1.00  0.00     0.035 A 
HETATM   25  C   UNL     1       5.985  26.775  56.293  1.00  0.00     0.053 A 
HETATM   26  C   UNL     1       7.029  26.152  56.970  1.00  0.00     0.070 A 
HETATM   27  C   UNL     1       8.041  26.897  57.574  1.00  0.00     0.037 A 
HETATM   28  C   UNL     1       7.998  28.290  57.518  1.00  0.00     0.004 A 
HETATM   29  C   UNL     1       6.943  28.929  56.862  1.00  0.00     0.017 A 
BRANCH  26  30
HETATM   30  O   UNL     1       7.066  24.786  56.967  1.00  0.00    -0.347 OA
BRANCH  30  31
HETATM   31  C   UNL     1       8.349  24.307  56.548  1.00  0.00     0.214 C 
BRANCH  31  32
HETATM   32  C   UNL     1       8.137  23.465  55.316  1.00  0.00    -0.034 A 
HETATM   33  C   UNL     1       8.072  22.068  55.413  1.00  0.00     0.009 A 
HETATM   34  C   UNL     1       7.915  21.287  54.267  1.00  0.00     0.001 A 
HETATM   35  C   UNL     1       7.830  21.892  53.015  1.00  0.00     0.000 A 
HETATM   36  C   UNL     1       7.904  23.279  52.906  1.00  0.00     0.001 A 
HETATM   37  C   UNL     1       8.060  24.063  54.050  1.00  0.00     0.009 A 
ENDBRANCH  31  32
ENDBRANCH  30  31
ENDBRANCH  26  30
ENDBRANCH  21  24
ENDBRANCH   1  20
TORSDOF 8
ENDMDL
MODEL 7
REMARK VINA RESULT:      -9.2      3.464     11.395
REMARK  8 active torsions:
REMARK  status: ('A' for Active; 'I' for Inactive)
REMARK       I    between atoms: C_2  and  N_3 
REMARK    1  A    between atoms: N_6  and  C_7 
REMARK    2  A    between atoms: C_8  and  N_9 
REMARK    3  A    between atoms: N_9  and  C_10 
REMARK    4  A    between atoms: C_10  and  N_11 
REMARK       I    between atoms: N_11  and  C_12 
REMARK    5  A    between atoms: C_12  and  C_13 
REMARK    6  A    between atoms: C_15  and  O_16 
REMARK    7  A    between atoms: O_16  and  C_17 
REMARK    8  A    between atoms: C_17  and  C_18 
ROOT
HETATM    1  C   UNL     1       8.939  29.769  57.130  1.00  0.00     0.179 C 
HETATM    2  S   UNL     1      10.490  29.515  56.559  1.00  0.00    -0.040 SA
ENDROOT
BRANCH   1   3
HETATM    3  N   UNL     1       7.903  29.116  56.565  1.00  0.00    -0.331 N 
HETATM    4  H   UNL     1       7.133  29.692  56.233  1.00  0.00     0.168 HD
BRANCH   3   5
HETATM    5  C   UNL     1       7.548  27.746  56.597  1.00  0.00     0.061 A 
HETATM    6  C   UNL     1       6.589  27.321  55.633  1.00  0.00     0.057 A 
HETATM    7  C   UNL     1       6.050  26.036  55.782  1.00  0.00     0.031 A 
HETATM    8  C   UNL     1       6.480  25.181  56.802  1.00  0.00     0.002 A 
HETATM    9  C   UNL     1       7.456  25.597  57.701  1.00  0.00     0.002 A 
HETATM   10  C   UNL     1       7.986  26.882  57.606  1.00  0.00     0.032 A 
BRANCH   6  11
HETATM   11  N   UNL     1       6.230  28.192  54.583  1.00  0.00    -0.376 N 
HETATM   12  C   UNL     1       6.861  27.829  53.275  1.00  0.00     0.143 C 
HETATM   13  C   UNL     1       5.955  26.896  52.449  1.00  0.00     0.145 C 
HETATM   14  N   UNL     1       4.632  27.508  52.274  1.00  0.00    -0.349 N 
HETATM   15  C   UNL     1       4.264  28.248  51.163  1.00  0.00     0.215 C 
HETATM   16  C   UNL     1       3.961  27.777  53.548  1.00  0.00     0.145 C 
HETATM   17  C   UNL     1       5.064  28.040  49.902  1.00  0.00     0.117 C 
HETATM   18  O   UNL     1       3.322  29.041  51.175  1.00  0.00    -0.274 OA
HETATM   19  C   UNL     1       4.831  28.674  54.457  1.00  0.00     0.143 C 
ENDBRANCH   6  11
ENDBRANCH   3   5
ENDBRANCH   1   3
BRANCH   1  20
HETATM   20  N   UNL     1       8.778  30.592  58.202  1.00  0.00    -0.299 N 
HETATM   21  C   UNL     1       7.559  30.946  58.772  1.00  0.00     0.257 C 
HETATM   22  O   UNL     1       6.450  30.867  58.259  1.00  0.00    -0.267 OA
HETATM   23  H   UNL     1       9.524  30.455  58.872  1.00  0.00     0.171 HD
BRANCH  21  24
HETATM   24  C   UNL     1       7.662  31.386  60.188  1.00  0.00     0.035 A 
HETATM   25  C   UNL     1       6.611  32.059  60.817  1.00  0.00     0.053 A 
HETATM   26  C   UNL     1       6.790  32.540  62.111  1.00  0.00     0.070 A 
HETATM   27  C   UNL     1       7.979  32.317  62.804  1.00  0.00     0.037 A 
HETATM   28  C   UNL     1       9.016  31.619  62.185  1.00  0.00     0.004 A 
HETATM   29  C   UNL     1       8.860  31.151  60.878  1.00  0.00     0.017 A 
BRANCH  26  30
HETATM   30  O   UNL     1       5.739  33.180  62.703  1.00  0.00    -0.347 OA
BRANCH  30  31
HETATM   31  C   UNL     1       6.112  34.496  63.129  1.00  0.00     0.214 C 
BRANCH  31  32
HETATM   32  C   UNL     1       5.637  34.663  64.550  1.00  0.00    -0.034 A 
HETATM   33  C   UNL     1       4.565  35.516  64.845  1.00  0.00     0.009 A 
HETATM   34  C   UNL     1       4.151  35.700  66.166  1.00  0.00     0.001 A 
HETATM   35  C   UNL     1       4.810  35.042  67.202  1.00  0.00     0.000 A 
HETATM   36  C   UNL     1       5.883  34.200  66.922  1.00  0.00     0.001 A 
HETATM   37  C   UNL     1       6.299  34.012  65.603  1.00  0.00     0.009 A 
ENDBRANCH  31  32
ENDBRANCH  30  31
ENDBRANCH  26  30
ENDBRANCH  21  24
ENDBRANCH   1  20
TORSDOF 8
ENDMDL
MODEL 8
REMARK VINA RESULT:      -9.1      5.078      8.786
REMARK  8 active torsions:
REMARK  status: ('A' for Active; 'I' for Inactive)
REMARK       I    between atoms: C_2  and  N_3 
REMARK    1  A    between atoms: N_6  and  C_7 
REMARK    2  A    between atoms: C_8  and  N_9 
REMARK    3  A    between atoms: N_9  and  C_10 
REMARK    4  A    between atoms: C_10  and  N_11 
REMARK       I    between atoms: N_11  and  C_12 
REMARK    5  A    between atoms: C_12  and  C_13 
REMARK    6  A    between atoms: C_15  and  O_16 
REMARK    7  A    between atoms: O_16  and  C_17 
REMARK    8  A    between atoms: C_17  and  C_18 
ROOT
HETATM    1  C   UNL     1       3.283  30.711  54.791  1.00  0.00     0.179 C 
HETATM    2  S   UNL     1       2.577  31.968  55.640  1.00  0.00    -0.040 SA
ENDROOT
BRANCH   1   3
HETATM    3  N   UNL     1       3.168  30.664  53.448  1.00  0.00    -0.331 N 
HETATM    4  H   UNL     1       2.674  29.861  53.065  1.00  0.00     0.168 HD
BRANCH   3   5
HETATM    5  C   UNL     1       3.854  31.381  52.438  1.00  0.00     0.061 A 
HETATM    6  C   UNL     1       4.177  30.653  51.258  1.00  0.00     0.057 A 
HETATM    7  C   UNL     1       5.047  31.259  50.342  1.00  0.00     0.031 A 
HETATM    8  C   UNL     1       5.533  32.555  50.550  1.00  0.00     0.002 A 
HETATM    9  C   UNL     1       5.163  33.269  51.685  1.00  0.00     0.002 A 
HETATM   10  C   UNL     1       4.330  32.681  52.635  1.00  0.00     0.032 A 
BRANCH   6  11
HETATM   11  N   UNL     1       3.615  29.374  51.057  1.00  0.00    -0.376 N 
HETATM   12  C   UNL     1       2.342  29.407  50.270  1.00  0.00     0.143 C 
HETATM   13  C   UNL     1       2.605  29.231  48.762  1.00  0.00     0.145 C 
HETATM   14  N   UNL     1       3.368  28.000  48.526  1.00  0.00    -0.349 N 
HETATM   15  C   UNL     1       2.792  26.784  48.196  1.00  0.00     0.215 C 
HETATM   16  C   UNL     1       4.663  27.998  49.213  1.00  0.00     0.145 C 
HETATM   17  C   UNL     1       1.403  26.818  47.613  1.00  0.00     0.117 C 
HETATM   18  O   UNL     1       3.372  25.710  48.354  1.00  0.00    -0.274 OA
HETATM   19  C   UNL     1       4.487  28.216  50.732  1.00  0.00     0.143 C 
ENDBRANCH   6  11
ENDBRANCH   3   5
ENDBRANCH   1   3
BRANCH   1  20
HETATM   20  N   UNL     1       4.011  29.797  55.488  1.00  0.00    -0.299 N 
HETATM   21  C   UNL     1       4.373  28.534  55.028  1.00  0.00     0.257 C 
HETATM   22  O   UNL     1       3.865  27.906  54.110  1.00  0.00    -0.267 OA
HETATM   23  H   UNL     1       4.723  30.256  56.042  1.00  0.00     0.171 HD
BRANCH  21  24
HETATM   24  C   UNL     1       5.566  27.966  55.710  1.00  0.00     0.035 A 
HETATM   25  C   UNL     1       6.199  26.817  55.227  1.00  0.00     0.053 A 
HETATM   26  C   UNL     1       7.250  26.263  55.953  1.00  0.00     0.070 A 
HETATM   27  C   UNL     1       7.711  26.864  57.123  1.00  0.00     0.037 A 
HETATM   28  C   UNL     1       7.098  28.028  57.588  1.00  0.00     0.004 A 
HETATM   29  C   UNL     1       6.026  28.581  56.883  1.00  0.00     0.017 A 
BRANCH  26  30
HETATM   30  O   UNL     1       7.857  25.150  55.446  1.00  0.00    -0.347 OA
BRANCH  30  31
HETATM   31  C   UNL     1       7.417  23.969  56.127  1.00  0.00     0.214 C 
BRANCH  31  32
HETATM   32  C   UNL     1       7.588  22.810  55.179  1.00  0.00    -0.034 A 
HETATM   33  C   UNL     1       7.725  21.505  55.671  1.00  0.00     0.009 A 
HETATM   34  C   UNL     1       7.922  20.436  54.795  1.00  0.00     0.001 A 
HETATM   35  C   UNL     1       7.992  20.663  53.422  1.00  0.00     0.000 A 
HETATM   36  C   UNL     1       7.867  21.958  52.922  1.00  0.00     0.001 A 
HETATM   37  C   UNL     1       7.669  23.028  53.796  1.00  0.00     0.009 A 
ENDBRANCH  31  32
ENDBRANCH  30  31
ENDBRANCH  26  30
ENDBRANCH  21  24
ENDBRANCH   1  20
TORSDOF 8
ENDMDL
MODEL 9
REMARK VINA RESULT:      -8.8      4.868     11.182
REMARK  8 active torsions:
REMARK  status: ('A' for Active; 'I' for Inactive)
REMARK       I    between atoms: C_2  and  N_3 
REMARK    1  A    between atoms: N_6  and  C_7 
REMARK    2  A    between atoms: C_8  and  N_9 
REMARK    3  A    between atoms: N_9  and  C_10 
REMARK    4  A    between atoms: C_10  and  N_11 
REMARK       I    between atoms: N_11  and  C_12 
REMARK    5  A    between atoms: C_12  and  C_13 
REMARK    6  A    between atoms: C_15  and  O_16 
REMARK    7  A    between atoms: O_16  and  C_17 
REMARK    8  A    between atoms: C_17  and  C_18 
ROOT
HETATM    1  C   UNL     1       4.096  30.062  53.744  1.00  0.00     0.179 C 
HETATM    2  S   UNL     1       3.420  31.438  53.076  1.00  0.00    -0.040 SA
ENDROOT
BRANCH   1   3
HETATM    3  N   UNL     1       3.713  28.846  53.302  1.00  0.00    -0.331 N 
HETATM    4  H   UNL     1       2.784  28.537  53.578  1.00  0.00     0.168 HD
BRANCH   3   5
HETATM    5  C   UNL     1       4.471  27.784  52.753  1.00  0.00     0.061 A 
HETATM    6  C   UNL     1       4.496  27.696  51.332  1.00  0.00     0.057 A 
HETATM    7  C   UNL     1       5.041  26.536  50.766  1.00  0.00     0.031 A 
HETATM    8  C   UNL     1       5.595  25.530  51.564  1.00  0.00     0.002 A 
HETATM    9  C   UNL     1       5.608  25.659  52.948  1.00  0.00     0.002 A 
HETATM   10  C   UNL     1       5.039  26.782  53.547  1.00  0.00     0.032 A 
BRANCH   6  11
HETATM   11  N   UNL     1       3.984  28.763  50.563  1.00  0.00    -0.376 N 
HETATM   12  C   UNL     1       5.045  29.526  49.835  1.00  0.00     0.143 C 
HETATM   13  C   UNL     1       5.270  28.968  48.416  1.00  0.00     0.145 C 
HETATM   14  N   UNL     1       4.000  28.945  47.679  1.00  0.00    -0.349 N 
HETATM   15  C   UNL     1       3.585  29.952  46.822  1.00  0.00     0.215 C 
HETATM   16  C   UNL     1       2.982  28.119  48.333  1.00  0.00     0.145 C 
HETATM   17  C   UNL     1       4.649  30.867  46.271  1.00  0.00     0.117 C 
HETATM   18  O   UNL     1       2.407  30.108  46.502  1.00  0.00    -0.274 OA
HETATM   19  C   UNL     1       2.732  28.589  49.783  1.00  0.00     0.143 C 
ENDBRANCH   6  11
ENDBRANCH   3   5
ENDBRANCH   1   3
BRANCH   1  20
HETATM   20  N   UNL     1       5.067  30.218  54.684  1.00  0.00    -0.299 N 
HETATM   21  C   UNL     1       5.058  29.651  55.956  1.00  0.00     0.257 C 
HETATM   22  O   UNL     1       4.092  29.210  56.563  1.00  0.00    -0.267 OA
HETATM   23  H   UNL     1       5.981  30.247  54.251  1.00  0.00     0.171 HD
BRANCH  21  24
HETATM   24  C   UNL     1       6.407  29.519  56.565  1.00  0.00     0.035 A 
HETATM   25  C   UNL     1       6.689  30.050  57.826  1.00  0.00     0.053 A 
HETATM   26  C   UNL     1       7.992  29.991  58.313  1.00  0.00     0.070 A 
HETATM   27  C   UNL     1       9.004  29.367  57.586  1.00  0.00     0.037 A 
HETATM   28  C   UNL     1       8.715  28.810  56.340  1.00  0.00     0.004 A 
HETATM   29  C   UNL     1       7.417  28.884  55.828  1.00  0.00     0.017 A 
BRANCH  26  30
HETATM   30  O   UNL     1       8.231  30.505  59.556  1.00  0.00    -0.347 OA
BRANCH  30  31
HETATM   31  C   UNL     1       8.071  31.928  59.563  1.00  0.00     0.214 C 
BRANCH  31  32
HETATM   32  C   UNL     1       7.687  32.334  60.963  1.00  0.00    -0.034 A 
HETATM   33  C   UNL     1       8.538  32.055  62.042  1.00  0.00     0.009 A 
HETATM   34  C   UNL     1       8.165  32.396  63.343  1.00  0.00     0.001 A 
HETATM   35  C   UNL     1       6.936  33.009  63.579  1.00  0.00     0.000 A 
HETATM   36  C   UNL     1       6.078  33.282  62.516  1.00  0.00     0.001 A 
HETATM   37  C   UNL     1       6.449  32.944  61.214  1.00  0.00     0.009 A 
ENDBRANCH  31  32
ENDBRANCH  30  31
ENDBRANCH  26  30
ENDBRANCH  21  24
ENDBRANCH   1  20
TORSDOF 8
ENDMDL
MODEL 10
REMARK VINA RESULT:      -8.8      3.705      9.950
REMARK  8 active torsions:
REMARK  status: ('A' for Active; 'I' for Inactive)
REMARK       I    between atoms: C_2  and  N_3 
REMARK    1  A    between atoms: N_6  and  C_7 
REMARK    2  A    between atoms: C_8  and  N_9 
REMARK    3  A    between atoms: N_9  and  C_10 
REMARK    4  A    between atoms: C_10  and  N_11 
REMARK       I    between atoms: N_11  and  C_12 
REMARK    5  A    between atoms: C_12  and  C_13 
REMARK    6  A    between atoms: C_15  and  O_16 
REMARK    7  A    between atoms: O_16  and  C_17 
REMARK    8  A    between atoms: C_17  and  C_18 
ROOT
HETATM    1  C   UNL     1       5.727  28.051  53.119  1.00  0.00     0.179 C 
HETATM    2  S   UNL     1       5.089  27.639  51.629  1.00  0.00    -0.040 SA
ENDROOT
BRANCH   1   3
HETATM    3  N   UNL     1       6.808  27.395  53.588  1.00  0.00    -0.331 N 
HETATM    4  H   UNL     1       6.974  26.466  53.206  1.00  0.00     0.168 HD
BRANCH   3   5
HETATM    5  C   UNL     1       7.609  27.636  54.730  1.00  0.00     0.061 A 
HETATM    6  C   UNL     1       7.570  26.642  55.749  1.00  0.00     0.057 A 
HETATM    7  C   UNL     1       8.165  26.952  56.979  1.00  0.00     0.031 A 
HETATM    8  C   UNL     1       8.825  28.169  57.179  1.00  0.00     0.002 A 
HETATM    9  C   UNL     1       8.897  29.106  56.154  1.00  0.00     0.002 A 
HETATM   10  C   UNL     1       8.283  28.846  54.930  1.00  0.00     0.032 A 
BRANCH   6  11
HETATM   11  N   UNL     1       6.950  25.402  55.483  1.00  0.00    -0.376 N 
HETATM   12  C   UNL     1       7.301  24.843  54.141  1.00  0.00     0.143 C 
HETATM   13  C   UNL     1       8.523  23.908  54.219  1.00  0.00     0.145 C 
HETATM   14  N   UNL     1       8.284  22.853  55.211  1.00  0.00    -0.349 N 
HETATM   15  C   UNL     1       7.799  21.594  54.899  1.00  0.00     0.215 C 
HETATM   16  C   UNL     1       8.037  23.386  56.553  1.00  0.00     0.145 C 
HETATM   17  C   UNL     1       7.954  21.131  53.473  1.00  0.00     0.117 C 
HETATM   18  O   UNL     1       7.269  20.860  55.734  1.00  0.00    -0.274 OA
HETATM   19  C   UNL     1       6.849  24.373  56.549  1.00  0.00     0.143 C 
ENDBRANCH   6  11
ENDBRANCH   3   5
ENDBRANCH   1   3
BRANCH   1  20
HETATM   20  N   UNL     1       5.163  29.091  53.791  1.00  0.00    -0.299 N 
HETATM   21  C   UNL     1       4.555  29.009  55.041  1.00  0.00     0.257 C 
HETATM   22  O   UNL     1       4.136  28.003  55.596  1.00  0.00    -0.267 OA
HETATM   23  H   UNL     1       5.692  29.941  53.643  1.00  0.00     0.171 HD
BRANCH  21  24
HETATM   24  C   UNL     1       4.509  30.302  55.772  1.00  0.00     0.035 A 
HETATM   25  C   UNL     1       5.568  30.715  56.585  1.00  0.00     0.053 A 
HETATM   26  C   UNL     1       5.439  31.884  57.329  1.00  0.00     0.070 A 
HETATM   27  C   UNL     1       4.293  32.672  57.237  1.00  0.00     0.037 A 
HETATM   28  C   UNL     1       3.248  32.275  56.403  1.00  0.00     0.004 A 
HETATM   29  C   UNL     1       3.354  31.091  55.669  1.00  0.00     0.017 A 
BRANCH  26  30
HETATM   30  O   UNL     1       6.498  32.268  58.101  1.00  0.00    -0.347 OA
BRANCH  30  31
HETATM   31  C   UNL     1       6.078  32.573  59.436  1.00  0.00     0.214 C 
BRANCH  31  32
HETATM   32  C   UNL     1       7.214  32.216  60.361  1.00  0.00    -0.034 A 
HETATM   33  C   UNL     1       8.541  32.303  59.921  1.00  0.00     0.009 A 
HETATM   34  C   UNL     1       9.591  31.936  60.765  1.00  0.00     0.001 A 
HETATM   35  C   UNL     1       9.323  31.470  62.050  1.00  0.00     0.000 A 
HETATM   36  C   UNL     1       8.006  31.369  62.494  1.00  0.00     0.001 A 
HETATM   37  C   UNL     1       6.955  31.737  61.653  1.00  0.00     0.009 A 
ENDBRANCH  31  32
ENDBRANCH  30  31
ENDBRANCH  26  30
ENDBRANCH  21  24
ENDBRANCH   1  20
TORSDOF 8
ENDMDL
