MODEL 1
REMARK VINA RESULT:      -9.9      0.000      0.000
REMARK  8 active torsions:
REMARK  status: ('A' for Active; 'I' for Inactive)
REMARK    1  A    between atoms: C_2  and  O_3 
REMARK    2  A    between atoms: O_3  and  C_4 
REMARK    3  A    between atoms: C_5  and  C_6 
REMARK    4  A    between atoms: C_6  and  N_7 
REMARK    5  A    between atoms: C_23  and  C_24 
REMARK    6  A    between atoms: N_25  and  N_26 
REMARK       I    between atoms: N_26  and  C_27 
REMARK    7  A    between atoms: C_27  and  C_28 
REMARK    8  A    between atoms: C_32  and  C_33 
ROOT
HETATM    1  C   UNL     1       7.544  32.695  62.305  1.00  0.00     0.076 A 
HETATM    2  C   UNL     1       6.677  32.761  61.196  1.00  0.00     0.002 A 
HETATM    3  C   UNL     1       6.959  31.953  60.088  1.00  0.00     0.024 A 
HETATM    4  C   UNL     1       8.028  31.046  60.099  1.00  0.00    -0.016 A 
HETATM    5  C   UNL     1       8.876  30.981  61.196  1.00  0.00     0.016 A 
HETATM    6  C   UNL     1       8.637  31.814  62.295  1.00  0.00     0.038 A 
ENDROOT
BRANCH   2   7
HETATM    7  C   UNL     1       5.518  33.734  61.212  1.00  0.00     0.276 C 
BRANCH   7   8
HETATM    8  N   UNL     1       4.133  33.163  61.527  1.00  0.00    -0.066 N 
HETATM    9  H   UNL     1       4.268  32.155  61.385  1.00  0.00     0.280 HD
HETATM   10  C   UNL     1       3.680  33.296  62.974  1.00  0.00     0.246 C 
HETATM   11  C   UNL     1       2.813  34.540  63.246  1.00  0.00     0.062 C 
HETATM   12  C   UNL     1       1.640  34.575  62.276  1.00  0.00     0.020 C 
HETATM   13  C   UNL     1       3.622  35.817  63.161  1.00  0.00     0.020 A 
HETATM   14  C   UNL     1       2.213  34.726  60.876  1.00  0.00     0.031 C 
HETATM   15  C   UNL     1       2.948  36.064  60.765  1.00  0.00     0.138 C 
HETATM   16  C   UNL     1       3.078  33.517  60.508  1.00  0.00     0.241 C 
HETATM   17  N   UNL     1       3.725  36.475  61.933  1.00  0.00    -0.317 N 
HETATM   18  C   UNL     1       4.487  37.642  61.773  1.00  0.00     0.247 A 
HETATM   19  O   UNL     1       4.619  38.230  60.704  1.00  0.00    -0.268 OA
HETATM   20  C   UNL     1       5.172  38.155  62.984  1.00  0.00     0.074 A 
HETATM   21  C   UNL     1       5.041  37.513  64.149  1.00  0.00     0.007 A 
HETATM   22  C   UNL     1       4.250  36.314  64.241  1.00  0.00     0.026 A 
ENDBRANCH   7   8
ENDBRANCH   2   7
BRANCH   1  23
HETATM   23  O   UNL     1       7.229  33.541  63.334  1.00  0.00    -0.351 OA
BRANCH  23  24
HETATM   24  C   UNL     1       7.611  33.158  64.657  1.00  0.00     0.171 C 
HETATM   25  C   UNL     1       6.651  33.825  65.626  1.00  0.00     0.034 C 
ENDBRANCH  23  24
ENDBRANCH   1  23
BRANCH   4  26
HETATM   26  C   UNL     1       8.192  30.139  58.943  1.00  0.00     0.150 C 
HETATM   27  N   UNL     1       7.369  30.256  57.954  1.00  0.00    -0.184 NA
BRANCH  27  28
HETATM   28  N   UNL     1       7.517  29.407  56.911  1.00  0.00    -0.242 N 
HETATM   29  C   UNL     1       6.546  28.445  56.665  1.00  0.00     0.292 C 
HETATM   30  O   UNL     1       5.529  28.293  57.341  1.00  0.00    -0.264 OA
HETATM   31  H   UNL     1       8.324  29.433  56.289  1.00  0.00     0.192 HD
BRANCH  29  32
HETATM   32  C   UNL     1       6.861  27.611  55.498  1.00  0.00     0.148 A 
HETATM   33  N   UNL     1       7.591  28.070  54.462  1.00  0.00    -0.169 NA
HETATM   34  N   UNL     1       7.660  27.019  53.622  1.00  0.00    -0.281 N 
HETATM   35  H   UNL     1       8.182  27.130  52.758  1.00  0.00     0.189 HD
HETATM   36  C   UNL     1       6.988  25.906  54.060  1.00  0.00     0.038 A 
HETATM   37  C   UNL     1       6.474  26.266  55.288  1.00  0.00     0.066 A 
BRANCH  36  38
HETATM   38  C   UNL     1       6.938  24.607  53.281  1.00  0.00    -0.007 C 
HETATM   39  C   UNL     1       5.541  24.443  52.658  1.00  0.00     0.021 C 
HETATM   40  C   UNL     1       7.986  24.611  52.149  1.00  0.00     0.021 C 
HETATM   41  C   UNL     1       7.233  23.401  54.193  1.00  0.00     0.021 C 
ENDBRANCH  36  38
ENDBRANCH  29  32
ENDBRANCH  27  28
ENDBRANCH   4  26
TORSDOF 8
ENDMDL
MODEL 2
REMARK VINA RESULT:      -9.4      3.027     11.328
REMARK  8 active torsions:
REMARK  status: ('A' for Active; 'I' for Inactive)
REMARK    1  A    between atoms: C_2  and  O_3 
REMARK    2  A    between atoms: O_3  and  C_4 
REMARK    3  A    between atoms: C_5  and  C_6 
REMARK    4  A    between atoms: C_6  and  N_7 
REMARK    5  A    between atoms: C_23  and  C_24 
REMARK    6  A    between atoms: N_25  and  N_26 
REMARK       I    between atoms: N_26  and  C_27 
REMARK    7  A    between atoms: C_27  and  C_28 
REMARK    8  A    between atoms: C_32  and  C_33 
ROOT
HETATM    1  C   UNL     1       3.761  29.582  52.722  1.00  0.00     0.076 A 
HETATM    2  C   UNL     1       4.092  28.661  53.737  1.00  0.00     0.002 A 
HETATM    3  C   UNL     1       4.442  29.163  54.996  1.00  0.00     0.024 A 
HETATM    4  C   UNL     1       4.396  30.536  55.273  1.00  0.00    -0.016 A 
HETATM    5  C   UNL     1       4.065  31.439  54.271  1.00  0.00     0.016 A 
HETATM    6  C   UNL     1       3.756  30.958  52.993  1.00  0.00     0.038 A 
ENDROOT
BRANCH   2   7
HETATM    7  C   UNL     1       4.116  27.180  53.422  1.00  0.00     0.276 C 
BRANCH   7   8
HETATM    8  N   UNL     1       5.099  26.713  52.345  1.00  0.00    -0.066 N 
HETATM    9  H   UNL     1       4.637  27.005  51.476  1.00  0.00     0.280 HD
HETATM   10  C   UNL     1       6.444  27.426  52.330  1.00  0.00     0.246 C 
HETATM   11  C   UNL     1       7.547  26.695  53.119  1.00  0.00     0.062 C 
HETATM   12  C   UNL     1       7.660  25.255  52.640  1.00  0.00     0.020 C 
HETATM   13  C   UNL     1       7.298  26.750  54.612  1.00  0.00     0.020 A 
HETATM   14  C   UNL     1       6.345  24.564  52.965  1.00  0.00     0.031 C 
HETATM   15  C   UNL     1       6.143  24.535  54.482  1.00  0.00     0.138 C 
HETATM   16  C   UNL     1       5.186  25.214  52.203  1.00  0.00     0.241 C 
HETATM   17  N   UNL     1       6.553  25.733  55.213  1.00  0.00    -0.317 N 
HETATM   18  C   UNL     1       6.253  25.737  56.583  1.00  0.00     0.247 A 
HETATM   19  O   UNL     1       5.580  24.874  57.139  1.00  0.00    -0.268 OA
HETATM   20  C   UNL     1       6.782  26.877  57.372  1.00  0.00     0.074 A 
HETATM   21  C   UNL     1       7.505  27.827  56.771  1.00  0.00     0.007 A 
HETATM   22  C   UNL     1       7.769  27.765  55.358  1.00  0.00     0.026 A 
ENDBRANCH   7   8
ENDBRANCH   2   7
BRANCH   1  23
HETATM   23  O   UNL     1       3.468  29.021  51.508  1.00  0.00    -0.351 OA
BRANCH  23  24
HETATM   24  C   UNL     1       3.611  29.836  50.342  1.00  0.00     0.171 C 
HETATM   25  C   UNL     1       4.987  29.570  49.759  1.00  0.00     0.034 C 
ENDBRANCH  23  24
ENDBRANCH   1  23
BRANCH   4  26
HETATM   26  C   UNL     1       4.661  30.984  56.657  1.00  0.00     0.150 C 
HETATM   27  N   UNL     1       5.879  30.953  57.085  1.00  0.00    -0.184 NA
BRANCH  27  28
HETATM   28  N   UNL     1       6.106  31.346  58.360  1.00  0.00    -0.242 N 
HETATM   29  C   UNL     1       7.389  31.269  58.884  1.00  0.00     0.292 C 
HETATM   30  O   UNL     1       8.371  30.855  58.267  1.00  0.00    -0.264 OA
HETATM   31  H   UNL     1       5.368  31.696  58.969  1.00  0.00     0.192 HD
BRANCH  29  32
HETATM   32  C   UNL     1       7.459  31.735  60.275  1.00  0.00     0.148 A 
HETATM   33  N   UNL     1       8.484  31.415  61.090  1.00  0.00    -0.169 NA
HETATM   34  N   UNL     1       8.182  32.031  62.249  1.00  0.00    -0.281 N 
HETATM   35  H   UNL     1       8.832  31.939  63.024  1.00  0.00     0.189 HD
HETATM   36  C   UNL     1       6.996  32.720  62.226  1.00  0.00     0.038 A 
HETATM   37  C   UNL     1       6.516  32.552  60.944  1.00  0.00     0.066 A 
BRANCH  36  38
HETATM   38  C   UNL     1       6.462  33.494  63.415  1.00  0.00    -0.007 C 
HETATM   39  C   UNL     1       6.127  34.930  62.977  1.00  0.00     0.021 C 
HETATM   40  C   UNL     1       5.181  32.833  63.963  1.00  0.00     0.021 C 
HETATM   41  C   UNL     1       7.496  33.538  64.557  1.00  0.00     0.021 C 
ENDBRANCH  36  38
ENDBRANCH  29  32
ENDBRANCH  27  28
ENDBRANCH   4  26
TORSDOF 8
ENDMDL
MODEL 3
REMARK VINA RESULT:      -9.2      4.105     11.170
REMARK  8 active torsions:
REMARK  status: ('A' for Active; 'I' for Inactive)
REMARK    1  A    between atoms: C_2  and  O_3 
REMARK    2  A    between atoms: O_3  and  C_4 
REMARK    3  A    between atoms: C_5  and  C_6 
REMARK    4  A    between atoms: C_6  and  N_7 
REMARK    5  A    between atoms: C_23  and  C_24 
REMARK    6  A    between atoms: N_25  and  N_26 
REMARK       I    between atoms: N_26  and  C_27 
REMARK    7  A    between atoms: C_27  and  C_28 
REMARK    8  A    between atoms: C_32  and  C_33 
ROOT
HETATM    1  C   UNL     1       6.833  26.439  53.912  1.00  0.00     0.076 A 
HETATM    2  C   UNL     1       6.263  27.728  53.862  1.00  0.00     0.002 A 
HETATM    3  C   UNL     1       6.134  28.440  55.061  1.00  0.00     0.024 A 
HETATM    4  C   UNL     1       6.623  27.926  56.271  1.00  0.00    -0.016 A 
HETATM    5  C   UNL     1       7.188  26.658  56.313  1.00  0.00     0.016 A 
HETATM    6  C   UNL     1       7.283  25.913  55.132  1.00  0.00     0.038 A 
ENDROOT
BRANCH   2   7
HETATM    7  C   UNL     1       5.759  28.271  52.542  1.00  0.00     0.276 C 
BRANCH   7   8
HETATM    8  N   UNL     1       4.452  27.685  52.001  1.00  0.00    -0.066 N 
HETATM    9  H   UNL     1       4.370  26.802  52.517  1.00  0.00     0.280 HD
HETATM   10  C   UNL     1       3.189  28.460  52.352  1.00  0.00     0.246 C 
HETATM   11  C   UNL     1       2.749  29.462  51.268  1.00  0.00     0.062 C 
HETATM   12  C   UNL     1       2.628  28.753  49.926  1.00  0.00     0.020 C 
HETATM   13  C   UNL     1       3.698  30.638  51.174  1.00  0.00     0.020 A 
HETATM   14  C   UNL     1       4.015  28.262  49.545  1.00  0.00     0.031 C 
HETATM   15  C   UNL     1       4.949  29.461  49.355  1.00  0.00     0.138 C 
HETATM   16  C   UNL     1       4.530  27.239  50.562  1.00  0.00     0.241 C 
HETATM   17  N   UNL     1       4.785  30.565  50.299  1.00  0.00    -0.317 N 
HETATM   18  C   UNL     1       5.723  31.602  50.186  1.00  0.00     0.247 A 
HETATM   19  O   UNL     1       6.703  31.559  49.448  1.00  0.00    -0.268 OA
HETATM   20  C   UNL     1       5.496  32.795  51.037  1.00  0.00     0.074 A 
HETATM   21  C   UNL     1       4.437  32.843  51.852  1.00  0.00     0.007 A 
HETATM   22  C   UNL     1       3.517  31.739  51.925  1.00  0.00     0.026 A 
ENDBRANCH   7   8
ENDBRANCH   2   7
BRANCH   1  23
HETATM   23  O   UNL     1       6.889  25.788  52.709  1.00  0.00    -0.351 OA
BRANCH  23  24
HETATM   24  C   UNL     1       8.083  25.067  52.393  1.00  0.00     0.171 C 
HETATM   25  C   UNL     1       7.764  23.585  52.485  1.00  0.00     0.034 C 
ENDBRANCH  23  24
ENDBRANCH   1  23
BRANCH   4  26
HETATM   26  C   UNL     1       6.563  28.783  57.474  1.00  0.00     0.150 C 
HETATM   27  N   UNL     1       7.660  29.007  58.118  1.00  0.00    -0.184 NA
BRANCH  27  28
HETATM   28  N   UNL     1       7.590  29.776  59.229  1.00  0.00    -0.242 N 
HETATM   29  C   UNL     1       8.663  30.587  59.572  1.00  0.00     0.292 C 
HETATM   30  O   UNL     1       9.711  30.665  58.931  1.00  0.00    -0.264 OA
HETATM   31  H   UNL     1       6.776  29.786  59.842  1.00  0.00     0.192 HD
BRANCH  29  32
HETATM   32  C   UNL     1       8.421  31.354  60.801  1.00  0.00     0.148 A 
HETATM   33  N   UNL     1       9.395  31.599  61.700  1.00  0.00    -0.169 NA
HETATM   34  N   UNL     1       8.780  32.322  62.656  1.00  0.00    -0.281 N 
HETATM   35  H   UNL     1       9.333  32.637  63.447  1.00  0.00     0.189 HD
HETATM   36  C   UNL     1       7.445  32.539  62.425  1.00  0.00     0.038 A 
HETATM   37  C   UNL     1       7.194  31.928  61.214  1.00  0.00     0.066 A 
BRANCH  36  38
HETATM   38  C   UNL     1       6.559  33.333  63.363  1.00  0.00    -0.007 C 
HETATM   39  C   UNL     1       5.310  32.503  63.705  1.00  0.00     0.021 C 
HETATM   40  C   UNL     1       7.308  33.661  64.671  1.00  0.00     0.021 C 
HETATM   41  C   UNL     1       6.125  34.665  62.722  1.00  0.00     0.021 C 
ENDBRANCH  36  38
ENDBRANCH  29  32
ENDBRANCH  27  28
ENDBRANCH   4  26
TORSDOF 8
ENDMDL
MODEL 4
REMARK VINA RESULT:      -8.8      2.425      4.305
REMARK  8 active torsions:
REMARK  status: ('A' for Active; 'I' for Inactive)
REMARK    1  A    between atoms: C_2  and  O_3 
REMARK    2  A    between atoms: O_3  and  C_4 
REMARK    3  A    between atoms: C_5  and  C_6 
REMARK    4  A    between atoms: C_6  and  N_7 
REMARK    5  A    between atoms: C_23  and  C_24 
REMARK    6  A    between atoms: N_25  and  N_26 
REMARK       I    between atoms: N_26  and  C_27 
REMARK    7  A    between atoms: C_27  and  C_28 
REMARK    8  A    between atoms: C_32  and  C_33 
ROOT
HETATM    1  C   UNL     1       4.644  33.007  58.124  1.00  0.00     0.076 A 
HETATM    2  C   UNL     1       5.044  31.908  58.911  1.00  0.00     0.002 A 
HETATM    3  C   UNL     1       5.420  30.729  58.256  1.00  0.00     0.024 A 
HETATM    4  C   UNL     1       5.472  30.655  56.857  1.00  0.00    -0.016 A 
HETATM    5  C   UNL     1       5.082  31.743  56.087  1.00  0.00     0.016 A 
HETATM    6  C   UNL     1       4.660  32.915  56.724  1.00  0.00     0.038 A 
ENDROOT
BRANCH   2   7
HETATM    7  C   UNL     1       4.998  32.015  60.420  1.00  0.00     0.276 C 
BRANCH   7   8
HETATM    8  N   UNL     1       6.339  32.067  61.156  1.00  0.00    -0.066 N 
HETATM    9  H   UNL     1       6.934  31.458  60.583  1.00  0.00     0.280 HD
HETATM   10  C   UNL     1       7.041  33.418  61.148  1.00  0.00     0.246 C 
HETATM   11  C   UNL     1       6.754  34.279  62.393  1.00  0.00     0.062 C 
HETATM   12  C   UNL     1       7.061  33.484  63.654  1.00  0.00     0.020 C 
HETATM   13  C   UNL     1       5.327  34.784  62.407  1.00  0.00     0.020 A 
HETATM   14  C   UNL     1       6.102  32.306  63.694  1.00  0.00     0.031 C 
HETATM   15  C   UNL     1       4.664  32.820  63.807  1.00  0.00     0.138 C 
HETATM   16  C   UNL     1       6.329  31.378  62.498  1.00  0.00     0.241 C 
HETATM   17  N   UNL     1       4.341  34.015  63.030  1.00  0.00    -0.317 N 
HETATM   18  C   UNL     1       2.993  34.404  63.051  1.00  0.00     0.247 A 
HETATM   19  O   UNL     1       2.098  33.740  63.566  1.00  0.00    -0.268 OA
HETATM   20  C   UNL     1       2.666  35.689  62.386  1.00  0.00     0.074 A 
HETATM   21  C   UNL     1       3.634  36.411  61.813  1.00  0.00     0.007 A 
HETATM   22  C   UNL     1       4.996  35.948  61.821  1.00  0.00     0.026 A 
ENDBRANCH   7   8
ENDBRANCH   2   7
BRANCH   1  23
HETATM   23  O   UNL     1       4.253  34.111  58.833  1.00  0.00    -0.351 OA
BRANCH  23  24
HETATM   24  C   UNL     1       3.201  34.915  58.293  1.00  0.00     0.171 C 
HETATM   25  C   UNL     1       3.746  36.319  58.100  1.00  0.00     0.034 C 
ENDBRANCH  23  24
ENDBRANCH   1  23
BRANCH   4  26
HETATM   26  C   UNL     1       5.994  29.419  56.237  1.00  0.00     0.150 C 
HETATM   27  N   UNL     1       5.143  28.555  55.791  1.00  0.00    -0.184 NA
BRANCH  27  28
HETATM   28  N   UNL     1       5.632  27.418  55.243  1.00  0.00    -0.242 N 
HETATM   29  C   UNL     1       5.506  26.217  55.927  1.00  0.00     0.292 C 
HETATM   30  O   UNL     1       4.970  26.095  57.029  1.00  0.00    -0.264 OA
HETATM   31  H   UNL     1       6.104  27.400  54.340  1.00  0.00     0.192 HD
BRANCH  29  32
HETATM   32  C   UNL     1       6.087  25.085  55.193  1.00  0.00     0.148 A 
HETATM   33  N   UNL     1       5.898  24.914  53.869  1.00  0.00    -0.169 NA
HETATM   34  N   UNL     1       6.587  23.792  53.585  1.00  0.00    -0.281 N 
HETATM   35  H   UNL     1       6.598  23.467  52.623  1.00  0.00     0.189 HD
HETATM   36  C   UNL     1       7.199  23.218  54.672  1.00  0.00     0.038 A 
HETATM   37  C   UNL     1       6.897  24.055  55.727  1.00  0.00     0.066 A 
BRANCH  36  38
HETATM   38  C   UNL     1       8.033  21.956  54.585  1.00  0.00    -0.007 C 
HETATM   39  C   UNL     1       9.505  22.300  54.868  1.00  0.00     0.021 C 
HETATM   40  C   UNL     1       7.559  20.919  55.623  1.00  0.00     0.021 C 
HETATM   41  C   UNL     1       7.920  21.312  53.189  1.00  0.00     0.021 C 
ENDBRANCH  36  38
ENDBRANCH  29  32
ENDBRANCH  27  28
ENDBRANCH   4  26
TORSDOF 8
ENDMDL
MODEL 5
REMARK VINA RESULT:      -8.8      6.653     10.578
REMARK  8 active torsions:
REMARK  status: ('A' for Active; 'I' for Inactive)
REMARK    1  A    between atoms: C_2  and  O_3 
REMARK    2  A    between atoms: O_3  and  C_4 
REMARK    3  A    between atoms: C_5  and  C_6 
REMARK    4  A    between atoms: C_6  and  N_7 
REMARK    5  A    between atoms: C_23  and  C_24 
REMARK    6  A    between atoms: N_25  and  N_26 
REMARK       I    between atoms: N_26  and  C_27 
REMARK    7  A    between atoms: C_27  and  C_28 
REMARK    8  A    between atoms: C_32  and  C_33 
ROOT
HETATM    1  C   UNL     1       7.572  23.792  54.801  1.00  0.00     0.076 A 
HETATM    2  C   UNL     1       6.677  24.848  55.064  1.00  0.00     0.002 A 
HETATM    3  C   UNL     1       5.856  25.294  54.021  1.00  0.00     0.024 A 
HETATM    4  C   UNL     1       5.863  24.666  52.768  1.00  0.00    -0.016 A 
HETATM    5  C   UNL     1       6.743  23.622  52.515  1.00  0.00     0.016 A 
HETATM    6  C   UNL     1       7.604  23.193  53.533  1.00  0.00     0.038 A 
ENDROOT
BRANCH   2   7
HETATM    7  C   UNL     1       6.673  25.500  56.431  1.00  0.00     0.276 C 
BRANCH   7   8
HETATM    8  N   UNL     1       7.897  26.338  56.807  1.00  0.00    -0.066 N 
HETATM    9  H   UNL     1       8.574  25.626  57.106  1.00  0.00     0.280 HD
HETATM   10  C   UNL     1       8.578  27.062  55.654  1.00  0.00     0.246 C 
HETATM   11  C   UNL     1       8.110  28.517  55.466  1.00  0.00     0.062 C 
HETATM   12  C   UNL     1       8.247  29.278  56.777  1.00  0.00     0.020 C 
HETATM   13  C   UNL     1       6.689  28.586  54.948  1.00  0.00     0.020 A 
HETATM   14  C   UNL     1       7.305  28.631  57.779  1.00  0.00     0.031 C 
HETATM   15  C   UNL     1       5.860  28.789  57.299  1.00  0.00     0.138 C 
HETATM   16  C   UNL     1       7.708  27.178  58.046  1.00  0.00     0.241 C 
HETATM   17  N   UNL     1       5.634  28.637  55.863  1.00  0.00    -0.317 N 
HETATM   18  C   UNL     1       4.293  28.667  55.454  1.00  0.00     0.247 A 
HETATM   19  O   UNL     1       3.342  28.685  56.231  1.00  0.00    -0.268 OA
HETATM   20  C   UNL     1       4.047  28.656  53.992  1.00  0.00     0.074 A 
HETATM   21  C   UNL     1       5.077  28.623  53.141  1.00  0.00     0.007 A 
HETATM   22  C   UNL     1       6.430  28.585  53.628  1.00  0.00     0.026 A 
ENDBRANCH   7   8
ENDBRANCH   2   7
BRANCH   1  23
HETATM   23  O   UNL     1       8.370  23.437  55.855  1.00  0.00    -0.351 OA
BRANCH  23  24
HETATM   24  C   UNL     1       9.021  22.165  55.804  1.00  0.00     0.171 C 
HETATM   25  C   UNL     1       8.258  21.220  56.715  1.00  0.00     0.034 C 
ENDBRANCH  23  24
ENDBRANCH   1  23
BRANCH   4  26
HETATM   26  C   UNL     1       4.883  25.110  51.753  1.00  0.00     0.150 C 
HETATM   27  N   UNL     1       5.297  25.885  50.805  1.00  0.00    -0.184 NA
BRANCH  27  28
HETATM   28  N   UNL     1       4.388  26.301  49.894  1.00  0.00    -0.242 N 
HETATM   29  C   UNL     1       4.535  27.545  49.295  1.00  0.00     0.292 C 
HETATM   30  O   UNL     1       5.454  28.329  49.534  1.00  0.00    -0.264 OA
HETATM   31  H   UNL     1       3.580  25.741  49.624  1.00  0.00     0.192 HD
BRANCH  29  32
HETATM   32  C   UNL     1       3.465  27.838  48.333  1.00  0.00     0.148 A 
HETATM   33  N   UNL     1       3.052  26.937  47.420  1.00  0.00    -0.169 NA
HETATM   34  N   UNL     1       2.074  27.577  46.751  1.00  0.00    -0.281 N 
HETATM   35  H   UNL     1       1.597  27.078  46.006  1.00  0.00     0.189 HD
HETATM   36  C   UNL     1       1.849  28.862  47.179  1.00  0.00     0.038 A 
HETATM   37  C   UNL     1       2.736  29.046  48.219  1.00  0.00     0.066 A 
BRANCH  36  38
HETATM   38  C   UNL     1       0.791  29.764  46.576  1.00  0.00    -0.007 C 
HETATM   39  C   UNL     1       0.055  30.507  47.704  1.00  0.00     0.021 C 
HETATM   40  C   UNL     1       1.435  30.803  45.636  1.00  0.00     0.021 C 
HETATM   41  C   UNL     1      -0.228  28.951  45.753  1.00  0.00     0.021 C 
ENDBRANCH  36  38
ENDBRANCH  29  32
ENDBRANCH  27  28
ENDBRANCH   4  26
TORSDOF 8
ENDMDL
MODEL 6
REMARK VINA RESULT:      -8.6     10.067     12.684
REMARK  8 active torsions:
REMARK  status: ('A' for Active; 'I' for Inactive)
REMARK    1  A    between atoms: C_2  and  O_3 
REMARK    2  A    between atoms: O_3  and  C_4 
REMARK    3  A    between atoms: C_5  and  C_6 
REMARK    4  A    between atoms: C_6  and  N_7 
REMARK    5  A    between atoms: C_23  and  C_24 
REMARK    6  A    between atoms: N_25  and  N_26 
REMARK       I    between atoms: N_26  and  C_27 
REMARK    7  A    between atoms: C_27  and  C_28 
REMARK    8  A    between atoms: C_32  and  C_33 
ROOT
HETATM    1  C   UNL     1       3.037  29.077  47.189  1.00  0.00     0.076 A 
HETATM    2  C   UNL     1       4.098  29.463  48.032  1.00  0.00     0.002 A 
HETATM    3  C   UNL     1       4.603  28.517  48.933  1.00  0.00     0.024 A 
HETATM    4  C   UNL     1       4.123  27.200  48.954  1.00  0.00    -0.016 A 
HETATM    5  C   UNL     1       3.080  26.824  48.117  1.00  0.00     0.016 A 
HETATM    6  C   UNL     1       2.533  27.769  47.242  1.00  0.00     0.038 A 
ENDROOT
BRANCH   2   7
HETATM    7  C   UNL     1       4.614  30.885  47.981  1.00  0.00     0.276 C 
BRANCH   7   8
HETATM    8  N   UNL     1       4.487  31.719  49.258  1.00  0.00    -0.066 N 
HETATM    9  H   UNL     1       4.269  31.011  49.968  1.00  0.00     0.280 HD
HETATM   10  C   UNL     1       5.772  32.376  49.744  1.00  0.00     0.246 C 
HETATM   11  C   UNL     1       5.951  33.829  49.265  1.00  0.00     0.062 C 
HETATM   12  C   UNL     1       4.720  34.648  49.624  1.00  0.00     0.020 C 
HETATM   13  C   UNL     1       6.230  33.897  47.778  1.00  0.00     0.020 A 
HETATM   14  C   UNL     1       3.545  34.065  48.856  1.00  0.00     0.031 C 
HETATM   15  C   UNL     1       3.787  34.224  47.352  1.00  0.00     0.138 C 
HETATM   16  C   UNL     1       3.278  32.620  49.285  1.00  0.00     0.241 C 
HETATM   17  N   UNL     1       5.157  34.009  46.890  1.00  0.00    -0.317 N 
HETATM   18  C   UNL     1       5.339  34.042  45.500  1.00  0.00     0.247 A 
HETATM   19  O   UNL     1       4.417  34.113  44.691  1.00  0.00    -0.268 OA
HETATM   20  C   UNL     1       6.738  33.966  45.014  1.00  0.00     0.074 A 
HETATM   21  C   UNL     1       7.745  33.876  45.888  1.00  0.00     0.007 A 
HETATM   22  C   UNL     1       7.487  33.838  47.303  1.00  0.00     0.026 A 
ENDBRANCH   7   8
ENDBRANCH   2   7
BRANCH   1  23
HETATM   23  O   UNL     1       2.569  30.065  46.364  1.00  0.00    -0.351 OA
BRANCH  23  24
HETATM   24  C   UNL     1       1.153  30.205  46.223  1.00  0.00     0.171 C 
HETATM   25  C   UNL     1       0.648  31.001  47.412  1.00  0.00     0.034 C 
ENDBRANCH  23  24
ENDBRANCH   1  23
BRANCH   4  26
HETATM   26  C   UNL     1       4.785  26.224  49.845  1.00  0.00     0.150 C 
HETATM   27  N   UNL     1       4.972  26.556  51.080  1.00  0.00    -0.184 NA
BRANCH  27  28
HETATM   28  N   UNL     1       5.597  25.662  51.882  1.00  0.00    -0.242 N 
HETATM   29  C   UNL     1       5.483  25.779  53.260  1.00  0.00     0.292 C 
HETATM   30  O   UNL     1       4.841  26.660  53.834  1.00  0.00    -0.264 OA
HETATM   31  H   UNL     1       6.164  24.897  51.519  1.00  0.00     0.192 HD
BRANCH  29  32
HETATM   32  C   UNL     1       6.219  24.731  53.979  1.00  0.00     0.148 A 
HETATM   33  N   UNL     1       6.426  24.781  55.310  1.00  0.00    -0.169 NA
HETATM   34  N   UNL     1       7.117  23.655  55.573  1.00  0.00    -0.281 N 
HETATM   35  H   UNL     1       7.381  23.470  56.536  1.00  0.00     0.189 HD
HETATM   36  C   UNL     1       7.384  22.888  54.467  1.00  0.00     0.038 A 
HETATM   37  C   UNL     1       6.794  23.564  53.420  1.00  0.00     0.066 A 
BRANCH  36  38
HETATM   38  C   UNL     1       8.140  21.576  54.530  1.00  0.00    -0.007 C 
HETATM   39  C   UNL     1       9.632  21.862  54.773  1.00  0.00     0.021 C 
HETATM   40  C   UNL     1       7.610  20.698  55.681  1.00  0.00     0.021 C 
HETATM   41  C   UNL     1       7.982  20.781  53.219  1.00  0.00     0.021 C 
ENDBRANCH  36  38
ENDBRANCH  29  32
ENDBRANCH  27  28
ENDBRANCH   4  26
TORSDOF 8
ENDMDL
MODEL 7
REMARK VINA RESULT:      -8.5      2.729      3.427
REMARK  8 active torsions:
REMARK  status: ('A' for Active; 'I' for Inactive)
REMARK    1  A    between atoms: C_2  and  O_3 
REMARK    2  A    between atoms: O_3  and  C_4 
REMARK    3  A    between atoms: C_5  and  C_6 
REMARK    4  A    between atoms: C_6  and  N_7 
REMARK    5  A    between atoms: C_23  and  C_24 
REMARK    6  A    between atoms: N_25  and  N_26 
REMARK       I    between atoms: N_26  and  C_27 
REMARK    7  A    between atoms: C_27  and  C_28 
REMARK    8  A    between atoms: C_32  and  C_33 
ROOT
HETATM    1  C   UNL     1       7.824  31.645  60.262  1.00  0.00     0.076 A 
HETATM    2  C   UNL     1       6.687  31.956  59.488  1.00  0.00     0.002 A 
HETATM    3  C   UNL     1       6.501  31.269  58.282  1.00  0.00     0.024 A 
HETATM    4  C   UNL     1       7.374  30.249  57.880  1.00  0.00    -0.016 A 
HETATM    5  C   UNL     1       8.491  29.944  58.648  1.00  0.00     0.016 A 
HETATM    6  C   UNL     1       8.717  30.651  59.835  1.00  0.00     0.038 A 
ENDROOT
BRANCH   2   7
HETATM    7  C   UNL     1       5.746  33.048  59.950  1.00  0.00     0.276 C 
BRANCH   7   8
HETATM    8  N   UNL     1       4.409  33.173  59.215  1.00  0.00    -0.066 N 
HETATM    9  H   UNL     1       4.499  32.478  58.465  1.00  0.00     0.280 HD
HETATM   10  C   UNL     1       3.182  32.738  60.004  1.00  0.00     0.246 C 
HETATM   11  C   UNL     1       2.462  33.893  60.726  1.00  0.00     0.062 C 
HETATM   12  C   UNL     1       2.139  35.002  59.735  1.00  0.00     0.020 C 
HETATM   13  C   UNL     1       3.279  34.425  61.885  1.00  0.00     0.020 A 
HETATM   14  C   UNL     1       3.460  35.550  59.220  1.00  0.00     0.031 C 
HETATM   15  C   UNL     1       4.241  36.176  60.379  1.00  0.00     0.138 C 
HETATM   16  C   UNL     1       4.241  34.471  58.465  1.00  0.00     0.241 C 
HETATM   17  N   UNL     1       4.178  35.471  61.657  1.00  0.00    -0.317 N 
HETATM   18  C   UNL     1       4.992  35.989  62.676  1.00  0.00     0.247 A 
HETATM   19  O   UNL     1       5.810  36.889  62.505  1.00  0.00    -0.268 OA
HETATM   20  C   UNL     1       4.841  35.379  64.019  1.00  0.00     0.074 A 
HETATM   21  C   UNL     1       3.961  34.391  64.208  1.00  0.00     0.007 A 
HETATM   22  C   UNL     1       3.162  33.900  63.117  1.00  0.00     0.026 A 
ENDBRANCH   7   8
ENDBRANCH   2   7
BRANCH   1  23
HETATM   23  O   UNL     1       7.961  32.383  61.407  1.00  0.00    -0.351 OA
BRANCH  23  24
HETATM   24  C   UNL     1       8.040  31.681  62.650  1.00  0.00     0.171 C 
HETATM   25  C   UNL     1       7.920  32.704  63.765  1.00  0.00     0.034 C 
ENDBRANCH  23  24
ENDBRANCH   1  23
BRANCH   4  26
HETATM   26  C   UNL     1       7.049  29.486  56.657  1.00  0.00     0.150 C 
HETATM   27  N   UNL     1       6.072  29.902  55.921  1.00  0.00    -0.184 NA
BRANCH  27  28
HETATM   28  N   UNL     1       5.771  29.184  54.814  1.00  0.00    -0.242 N 
HETATM   29  C   UNL     1       4.731  29.595  53.991  1.00  0.00     0.292 C 
HETATM   30  O   UNL     1       4.035  30.590  54.191  1.00  0.00    -0.264 OA
HETATM   31  H   UNL     1       6.273  28.336  54.553  1.00  0.00     0.192 HD
BRANCH  29  32
HETATM   32  C   UNL     1       4.540  28.706  52.837  1.00  0.00     0.148 A 
HETATM   33  N   UNL     1       4.536  27.363  52.957  1.00  0.00    -0.169 NA
HETATM   34  N   UNL     1       4.328  26.925  51.700  1.00  0.00    -0.281 N 
HETATM   35  H   UNL     1       4.274  25.923  51.545  1.00  0.00     0.189 HD
HETATM   36  C   UNL     1       4.217  27.927  50.768  1.00  0.00     0.038 A 
HETATM   37  C   UNL     1       4.337  29.095  51.492  1.00  0.00     0.066 A 
BRANCH  36  38
HETATM   38  C   UNL     1       3.973  27.666  49.296  1.00  0.00    -0.007 C 
HETATM   39  C   UNL     1       4.960  28.501  48.462  1.00  0.00     0.021 C 
HETATM   40  C   UNL     1       4.183  26.175  48.965  1.00  0.00     0.021 C 
HETATM   41  C   UNL     1       2.531  28.038  48.898  1.00  0.00     0.021 C 
ENDBRANCH  36  38
ENDBRANCH  29  32
ENDBRANCH  27  28
ENDBRANCH   4  26
TORSDOF 8
ENDMDL
MODEL 8
REMARK VINA RESULT:      -8.5      6.847     11.398
REMARK  8 active torsions:
REMARK  status: ('A' for Active; 'I' for Inactive)
REMARK    1  A    between atoms: C_2  and  O_3 
REMARK    2  A    between atoms: O_3  and  C_4 
REMARK    3  A    between atoms: C_5  and  C_6 
REMARK    4  A    between atoms: C_6  and  N_7 
REMARK    5  A    between atoms: C_23  and  C_24 
REMARK    6  A    between atoms: N_25  and  N_26 
REMARK       I    between atoms: N_26  and  C_27 
REMARK    7  A    between atoms: C_27  and  C_28 
REMARK    8  A    between atoms: C_32  and  C_33 
ROOT
HETATM    1  C   UNL     1       6.722  25.349  53.381  1.00  0.00     0.076 A 
HETATM    2  C   UNL     1       6.973  26.721  53.180  1.00  0.00     0.002 A 
HETATM    3  C   UNL     1       6.197  27.403  52.234  1.00  0.00     0.024 A 
HETATM    4  C   UNL     1       5.149  26.766  51.554  1.00  0.00    -0.016 A 
HETATM    5  C   UNL     1       4.903  25.415  51.760  1.00  0.00     0.016 A 
HETATM    6  C   UNL     1       5.698  24.707  52.669  1.00  0.00     0.038 A 
ENDROOT
BRANCH   2   7
HETATM    7  C   UNL     1       8.097  27.394  53.938  1.00  0.00     0.276 C 
BRANCH   7   8
HETATM    8  N   UNL     1       7.837  28.810  54.459  1.00  0.00    -0.066 N 
HETATM    9  H   UNL     1       8.008  29.390  53.630  1.00  0.00     0.280 HD
HETATM   10  C   UNL     1       6.398  29.111  54.854  1.00  0.00     0.246 C 
HETATM   11  C   UNL     1       6.108  28.913  56.354  1.00  0.00     0.062 C 
HETATM   12  C   UNL     1       7.105  29.708  57.184  1.00  0.00     0.020 C 
HETATM   13  C   UNL     1       6.130  27.448  56.741  1.00  0.00     0.020 A 
HETATM   14  C   UNL     1       8.484  29.129  56.915  1.00  0.00     0.031 C 
HETATM   15  C   UNL     1       8.533  27.676  57.397  1.00  0.00     0.138 C 
HETATM   16  C   UNL     1       8.869  29.301  55.443  1.00  0.00     0.241 C 
HETATM   17  N   UNL     1       7.333  26.876  57.161  1.00  0.00    -0.317 N 
HETATM   18  C   UNL     1       7.434  25.518  57.501  1.00  0.00     0.247 A 
HETATM   19  O   UNL     1       8.480  24.978  57.849  1.00  0.00    -0.268 OA
HETATM   20  C   UNL     1       6.190  24.717  57.403  1.00  0.00     0.074 A 
HETATM   21  C   UNL     1       5.051  25.297  57.012  1.00  0.00     0.007 A 
HETATM   22  C   UNL     1       5.018  26.695  56.671  1.00  0.00     0.026 A 
ENDBRANCH   7   8
ENDBRANCH   2   7
BRANCH   1  23
HETATM   23  O   UNL     1       7.545  24.741  54.291  1.00  0.00    -0.351 OA
BRANCH  23  24
HETATM   24  C   UNL     1       7.615  23.313  54.281  1.00  0.00     0.171 C 
HETATM   25  C   UNL     1       8.899  22.909  54.984  1.00  0.00     0.034 C 
ENDBRANCH  23  24
ENDBRANCH   1  23
BRANCH   4  26
HETATM   26  C   UNL     1       4.295  27.577  50.660  1.00  0.00     0.150 C 
HETATM   27  N   UNL     1       4.010  27.101  49.493  1.00  0.00    -0.184 NA
BRANCH  27  28
HETATM   28  N   UNL     1       3.244  27.861  48.677  1.00  0.00    -0.242 N 
HETATM   29  C   UNL     1       2.373  27.249  47.786  1.00  0.00     0.292 C 
HETATM   30  O   UNL     1       2.237  26.031  47.670  1.00  0.00    -0.264 OA
HETATM   31  H   UNL     1       3.279  28.880  48.677  1.00  0.00     0.192 HD
BRANCH  29  32
HETATM   32  C   UNL     1       1.619  28.217  46.978  1.00  0.00     0.148 A 
HETATM   33  N   UNL     1       2.144  29.398  46.596  1.00  0.00    -0.169 NA
HETATM   34  N   UNL     1       1.159  29.975  45.881  1.00  0.00    -0.281 N 
HETATM   35  H   UNL     1       1.335  30.889  45.474  1.00  0.00     0.189 HD
HETATM   36  C   UNL     1       0.012  29.226  45.799  1.00  0.00     0.038 A 
HETATM   37  C   UNL     1       0.297  28.070  46.496  1.00  0.00     0.066 A 
BRANCH  36  38
HETATM   38  C   UNL     1      -1.219  29.675  45.039  1.00  0.00    -0.007 C 
HETATM   39  C   UNL     1      -1.413  28.773  43.808  1.00  0.00     0.021 C 
HETATM   40  C   UNL     1      -2.475  29.573  45.929  1.00  0.00     0.021 C 
HETATM   41  C   UNL     1      -1.085  31.140  44.581  1.00  0.00     0.021 C 
ENDBRANCH  36  38
ENDBRANCH  29  32
ENDBRANCH  27  28
ENDBRANCH   4  26
TORSDOF 8
ENDMDL
MODEL 9
REMARK VINA RESULT:      -8.4      4.421     12.284
REMARK  8 active torsions:
REMARK  status: ('A' for Active; 'I' for Inactive)
REMARK    1  A    between atoms: C_2  and  O_3 
REMARK    2  A    between atoms: O_3  and  C_4 
REMARK    3  A    between atoms: C_5  and  C_6 
REMARK    4  A    between atoms: C_6  and  N_7 
REMARK    5  A    between atoms: C_23  and  C_24 
REMARK    6  A    between atoms: N_25  and  N_26 
REMARK       I    between atoms: N_26  and  C_27 
REMARK    7  A    between atoms: C_27  and  C_28 
REMARK    8  A    between atoms: C_32  and  C_33 
ROOT
HETATM    1  C   UNL     1       4.940  26.951  53.380  1.00  0.00     0.076 A 
HETATM    2  C   UNL     1       4.301  28.203  53.486  1.00  0.00     0.002 A 
HETATM    3  C   UNL     1       4.207  28.790  54.754  1.00  0.00     0.024 A 
HETATM    4  C   UNL     1       4.792  28.195  55.880  1.00  0.00    -0.016 A 
HETATM    5  C   UNL     1       5.424  26.964  55.768  1.00  0.00     0.016 A 
HETATM    6  C   UNL     1       5.489  26.340  54.517  1.00  0.00     0.038 A 
ENDROOT
BRANCH   2   7
HETATM    7  C   UNL     1       3.692  28.837  52.254  1.00  0.00     0.276 C 
BRANCH   7   8
HETATM    8  N   UNL     1       4.363  30.106  51.720  1.00  0.00    -0.066 N 
HETATM    9  H   UNL     1       4.723  30.546  52.574  1.00  0.00     0.280 HD
HETATM   10  C   UNL     1       5.591  29.883  50.848  1.00  0.00     0.246 C 
HETATM   11  C   UNL     1       5.289  29.861  49.337  1.00  0.00     0.062 C 
HETATM   12  C   UNL     1       4.529  31.120  48.943  1.00  0.00     0.020 C 
HETATM   13  C   UNL     1       4.520  28.619  48.938  1.00  0.00     0.020 A 
HETATM   14  C   UNL     1       3.193  31.090  49.667  1.00  0.00     0.031 C 
HETATM   15  C   UNL     1       2.377  29.887  49.188  1.00  0.00     0.138 C 
HETATM   16  C   UNL     1       3.395  31.131  51.184  1.00  0.00     0.241 C 
HETATM   17  N   UNL     1       3.123  28.651  48.955  1.00  0.00    -0.317 N 
HETATM   18  C   UNL     1       2.347  27.528  48.632  1.00  0.00     0.247 A 
HETATM   19  O   UNL     1       1.119  27.514  48.661  1.00  0.00    -0.268 OA
HETATM   20  C   UNL     1       3.087  26.299  48.254  1.00  0.00     0.074 A 
HETATM   21  C   UNL     1       4.423  26.304  48.232  1.00  0.00     0.007 A 
HETATM   22  C   UNL     1       5.158  27.490  48.584  1.00  0.00     0.026 A 
ENDBRANCH   7   8
ENDBRANCH   2   7
BRANCH   1  23
HETATM   23  O   UNL     1       4.959  26.420  52.118  1.00  0.00    -0.351 OA
BRANCH  23  24
HETATM   24  C   UNL     1       5.513  25.112  51.951  1.00  0.00     0.171 C 
HETATM   25  C   UNL     1       7.005  25.268  51.719  1.00  0.00     0.034 C 
ENDBRANCH  23  24
ENDBRANCH   1  23
BRANCH   4  26
HETATM   26  C   UNL     1       4.758  28.931  57.162  1.00  0.00     0.150 C 
HETATM   27  N   UNL     1       5.150  30.162  57.168  1.00  0.00    -0.184 NA
BRANCH  27  28
HETATM   28  N   UNL     1       5.134  30.819  58.351  1.00  0.00    -0.242 N 
HETATM   29  C   UNL     1       4.078  31.668  58.651  1.00  0.00     0.292 C 
HETATM   30  O   UNL     1       3.123  31.884  57.904  1.00  0.00    -0.264 OA
HETATM   31  H   UNL     1       5.876  30.726  59.044  1.00  0.00     0.192 HD
BRANCH  29  32
HETATM   32  C   UNL     1       4.216  32.298  59.971  1.00  0.00     0.148 A 
HETATM   33  N   UNL     1       3.151  32.709  60.686  1.00  0.00    -0.169 NA
HETATM   34  N   UNL     1       3.692  33.212  61.813  1.00  0.00    -0.281 N 
HETATM   35  H   UNL     1       3.064  33.579  62.523  1.00  0.00     0.189 HD
HETATM   36  C   UNL     1       5.062  33.161  61.850  1.00  0.00     0.038 A 
HETATM   37  C   UNL     1       5.423  32.555  60.664  1.00  0.00     0.066 A 
BRANCH  36  38
HETATM   38  C   UNL     1       5.880  33.661  63.023  1.00  0.00    -0.007 C 
HETATM   39  C   UNL     1       7.288  33.044  62.960  1.00  0.00     0.021 C 
HETATM   40  C   UNL     1       6.011  35.197  62.978  1.00  0.00     0.021 C 
HETATM   41  C   UNL     1       5.219  33.284  64.362  1.00  0.00     0.021 C 
ENDBRANCH  36  38
ENDBRANCH  29  32
ENDBRANCH  27  28
ENDBRANCH   4  26
TORSDOF 8
ENDMDL
MODEL 10
REMARK VINA RESULT:      -8.4      2.351      3.732
REMARK  8 active torsions:
REMARK  status: ('A' for Active; 'I' for Inactive)
REMARK    1  A    between atoms: C_2  and  O_3 
REMARK    2  A    between atoms: O_3  and  C_4 
REMARK    3  A    between atoms: C_5  and  C_6 
REMARK    4  A    between atoms: C_6  and  N_7 
REMARK    5  A    between atoms: C_23  and  C_24 
REMARK    6  A    between atoms: N_25  and  N_26 
REMARK       I    between atoms: N_26  and  C_27 
REMARK    7  A    between atoms: C_27  and  C_28 
REMARK    8  A    between atoms: C_32  and  C_33 
ROOT
HETATM    1  C   UNL     1       4.326  33.077  58.089  1.00  0.00     0.076 A 
HETATM    2  C   UNL     1       5.324  32.626  58.977  1.00  0.00     0.002 A 
HETATM    3  C   UNL     1       5.922  31.386  58.723  1.00  0.00     0.024 A 
HETATM    4  C   UNL     1       5.600  30.640  57.581  1.00  0.00    -0.016 A 
HETATM    5  C   UNL     1       4.620  31.092  56.707  1.00  0.00     0.016 A 
HETATM    6  C   UNL     1       3.978  32.308  56.969  1.00  0.00     0.038 A 
ENDROOT
BRANCH   2   7
HETATM    7  C   UNL     1       5.670  33.456  60.195  1.00  0.00     0.276 C 
BRANCH   7   8
HETATM    8  N   UNL     1       5.388  32.835  61.565  1.00  0.00    -0.066 N 
HETATM    9  H   UNL     1       5.815  31.905  61.483  1.00  0.00     0.280 HD
HETATM   10  C   UNL     1       6.102  33.487  62.742  1.00  0.00     0.246 C 
HETATM   11  C   UNL     1       5.259  34.551  63.471  1.00  0.00     0.062 C 
HETATM   12  C   UNL     1       3.916  33.960  63.875  1.00  0.00     0.020 C 
HETATM   13  C   UNL     1       5.071  35.793  62.625  1.00  0.00     0.020 A 
HETATM   14  C   UNL     1       3.175  33.601  62.597  1.00  0.00     0.031 C 
HETATM   15  C   UNL     1       2.899  34.873  61.790  1.00  0.00     0.138 C 
HETATM   16  C   UNL     1       3.932  32.527  61.811  1.00  0.00     0.241 C 
HETATM   17  N   UNL     1       3.966  35.873  61.774  1.00  0.00    -0.317 N 
HETATM   18  C   UNL     1       3.747  36.977  60.937  1.00  0.00     0.247 A 
HETATM   19  O   UNL     1       2.802  37.068  60.159  1.00  0.00    -0.268 OA
HETATM   20  C   UNL     1       4.747  38.070  61.009  1.00  0.00     0.074 A 
HETATM   21  C   UNL     1       5.786  37.971  61.845  1.00  0.00     0.007 A 
HETATM   22  C   UNL     1       5.954  36.805  62.672  1.00  0.00     0.026 A 
ENDBRANCH   7   8
ENDBRANCH   2   7
BRANCH   1  23
HETATM   23  O   UNL     1       3.759  34.278  58.423  1.00  0.00    -0.351 OA
BRANCH  23  24
HETATM   24  C   UNL     1       3.396  35.165  57.363  1.00  0.00     0.171 C 
HETATM   25  C   UNL     1       4.565  36.105  57.128  1.00  0.00     0.034 C 
ENDBRANCH  23  24
ENDBRANCH   1  23
BRANCH   4  26
HETATM   26  C   UNL     1       6.358  29.400  57.313  1.00  0.00     0.150 C 
HETATM   27  N   UNL     1       5.727  28.274  57.374  1.00  0.00    -0.184 NA
BRANCH  27  28
HETATM   28  N   UNL     1       6.436  27.144  57.147  1.00  0.00    -0.242 N 
HETATM   29  C   UNL     1       6.189  26.397  56.003  1.00  0.00     0.292 C 
HETATM   30  O   UNL     1       5.348  26.683  55.151  1.00  0.00    -0.264 OA
HETATM   31  H   UNL     1       7.151  26.803  57.788  1.00  0.00     0.192 HD
BRANCH  29  32
HETATM   32  C   UNL     1       7.044  25.206  55.912  1.00  0.00     0.148 A 
HETATM   33  N   UNL     1       8.166  25.069  56.646  1.00  0.00    -0.169 NA
HETATM   34  N   UNL     1       8.646  23.863  56.284  1.00  0.00    -0.281 N 
HETATM   35  H   UNL     1       9.499  23.535  56.726  1.00  0.00     0.189 HD
HETATM   36  C   UNL     1       7.894  23.223  55.332  1.00  0.00     0.038 A 
HETATM   37  C   UNL     1       6.837  24.075  55.087  1.00  0.00     0.066 A 
BRANCH  36  38
HETATM   38  C   UNL     1       8.241  21.854  54.782  1.00  0.00    -0.007 C 
HETATM   39  C   UNL     1       7.736  21.745  53.333  1.00  0.00     0.021 C 
HETATM   40  C   UNL     1       9.767  21.636  54.792  1.00  0.00     0.021 C 
HETATM   41  C   UNL     1       7.600  20.737  55.630  1.00  0.00     0.021 C 
ENDBRANCH  36  38
ENDBRANCH  29  32
ENDBRANCH  27  28
ENDBRANCH   4  26
TORSDOF 8
ENDMDL
