MODEL 1
REMARK VINA RESULT:      -8.9      0.000      0.000
REMARK  6 active torsions:
REMARK  status: ('A' for Active; 'I' for Inactive)
REMARK    1  A    between atoms: N_2  and  C_5 
REMARK    2  A    between atoms: C_5  and  C_6 
REMARK    3  A    between atoms: C_6  and  N_7 
REMARK    4  A    between atoms: C_6  and  C_23 
REMARK       I    between atoms: N_7  and  C_8 
REMARK    5  A    between atoms: C_8  and  C_10 
REMARK    6  A    between atoms: C_13  and  C_17 
ROOT
HETATM    1  N   UNL     1       6.947  26.650  54.961  1.00  0.00    -0.347 N 
HETATM    2  C   UNL     1       7.547  27.871  54.752  1.00  0.00     0.252 C 
HETATM    3  O   UNL     1       7.802  28.280  53.622  1.00  0.00    -0.268 OA
HETATM    4  H   UNL     1       7.008  26.271  55.902  1.00  0.00     0.163 HD
ENDROOT
BRANCH   2   5
HETATM    5  C   UNL     1       7.880  28.683  55.952  1.00  0.00     0.032 A 
HETATM    6  C   UNL     1       6.879  28.904  56.900  1.00  0.00     0.018 A 
HETATM    7  C   UNL     1       7.160  29.632  58.056  1.00  0.00     0.014 A 
HETATM    8  C   UNL     1       8.446  30.145  58.290  1.00  0.00    -0.017 A 
HETATM    9  C   UNL     1       9.462  29.933  57.334  1.00  0.00    -0.050 A 
HETATM   10  C   UNL     1      10.866  30.449  57.520  1.00  0.00     0.049 C 
HETATM   11  C   UNL     1       9.168  29.187  56.174  1.00  0.00     0.024 A 
BRANCH   8  12
HETATM   12  C   UNL     1       8.689  30.856  59.531  1.00  0.00     0.011 A 
HETATM   13  C   UNL     1       9.163  30.405  60.783  1.00  0.00     0.152 A 
HETATM   14  N   UNL     1       9.236  31.385  61.686  1.00  0.00    -0.187 NA
HETATM   15  N   UNL     1       8.797  32.465  61.021  1.00  0.00    -0.289 N 
HETATM   16  H   UNL     1       8.758  33.351  61.513  1.00  0.00     0.188 HD
HETATM   17  C   UNL     1       8.451  32.200  59.725  1.00  0.00     0.123 A 
ENDBRANCH   8  12
ENDBRANCH   2   5
BRANCH   1  18
HETATM   18  C   UNL     1       6.759  25.663  53.891  1.00  0.00     0.143 C 
BRANCH  18  19
HETATM   19  C   UNL     1       5.272  25.240  53.649  1.00  0.00     0.263 C 
BRANCH  19  20
HETATM   20  N   UNL     1       4.578  26.043  52.560  1.00  0.00    -0.076 N 
HETATM   21  C   UNL     1       4.201  27.431  52.974  1.00  0.00     0.269 C 
HETATM   22  H   UNL     1       3.675  25.553  52.374  1.00  0.00     0.279 HD
HETATM   23  C   UNL     1       5.326  26.024  51.264  1.00  0.00     0.269 C 
ENDBRANCH  19  20
ENDBRANCH  18  19
BRANCH  18  24
HETATM   24  C   UNL     1       7.582  24.425  54.201  1.00  0.00    -0.034 A 
HETATM   25  C   UNL     1       7.831  23.478  53.196  1.00  0.00     0.009 A 
HETATM   26  C   UNL     1       8.569  22.326  53.474  1.00  0.00     0.001 A 
HETATM   27  C   UNL     1       9.069  22.108  54.756  1.00  0.00     0.000 A 
HETATM   28  C   UNL     1       8.835  23.043  55.762  1.00  0.00     0.001 A 
HETATM   29  C   UNL     1       8.098  24.195  55.488  1.00  0.00     0.009 A 
ENDBRANCH  18  24
ENDBRANCH   1  18
TORSDOF 6
ENDMDL
MODEL 2
REMARK VINA RESULT:      -8.5      2.739      8.040
REMARK  6 active torsions:
REMARK  status: ('A' for Active; 'I' for Inactive)
REMARK    1  A    between atoms: N_2  and  C_5 
REMARK    2  A    between atoms: C_5  and  C_6 
REMARK    3  A    between atoms: C_6  and  N_7 
REMARK    4  A    between atoms: C_6  and  C_23 
REMARK       I    between atoms: N_7  and  C_8 
REMARK    5  A    between atoms: C_8  and  C_10 
REMARK    6  A    between atoms: C_13  and  C_17 
ROOT
HETATM    1  N   UNL     1       7.161  27.919  56.399  1.00  0.00    -0.347 N 
HETATM    2  C   UNL     1       6.360  26.803  56.485  1.00  0.00     0.252 C 
HETATM    3  O   UNL     1       5.257  26.842  57.026  1.00  0.00    -0.268 OA
HETATM    4  H   UNL     1       8.141  27.756  56.184  1.00  0.00     0.163 HD
ENDROOT
BRANCH   2   5
HETATM    5  C   UNL     1       6.880  25.540  55.900  1.00  0.00     0.032 A 
HETATM    6  C   UNL     1       7.050  24.440  56.743  1.00  0.00     0.018 A 
HETATM    7  C   UNL     1       7.505  23.227  56.226  1.00  0.00     0.014 A 
HETATM    8  C   UNL     1       7.790  23.088  54.858  1.00  0.00    -0.017 A 
HETATM    9  C   UNL     1       7.629  24.196  54.000  1.00  0.00    -0.050 A 
HETATM   10  C   UNL     1       7.910  24.120  52.521  1.00  0.00     0.049 C 
HETATM   11  C   UNL     1       7.159  25.414  54.533  1.00  0.00     0.024 A 
BRANCH   8  12
HETATM   12  C   UNL     1       8.217  21.790  54.372  1.00  0.00     0.011 A 
HETATM   13  C   UNL     1       7.957  21.121  53.155  1.00  0.00     0.152 A 
HETATM   14  N   UNL     1       8.533  19.919  53.098  1.00  0.00    -0.187 NA
HETATM   15  N   UNL     1       9.153  19.806  54.283  1.00  0.00    -0.289 N 
HETATM   16  H   UNL     1       9.668  18.954  54.478  1.00  0.00     0.188 HD
HETATM   17  C   UNL     1       8.990  20.900  55.087  1.00  0.00     0.123 A 
ENDBRANCH   8  12
ENDBRANCH   2   5
BRANCH   1  18
HETATM   18  C   UNL     1       6.867  29.167  57.113  1.00  0.00     0.143 C 
BRANCH  18  19
HETATM   19  C   UNL     1       5.958  30.169  56.327  1.00  0.00     0.263 C 
BRANCH  19  20
HETATM   20  N   UNL     1       4.492  29.765  56.292  1.00  0.00    -0.076 N 
HETATM   21  C   UNL     1       3.580  30.722  56.997  1.00  0.00     0.269 C 
HETATM   22  H   UNL     1       4.428  28.873  56.829  1.00  0.00     0.279 HD
HETATM   23  C   UNL     1       4.014  29.445  54.910  1.00  0.00     0.269 C 
ENDBRANCH  19  20
ENDBRANCH  18  19
BRANCH  18  24
HETATM   24  C   UNL     1       8.172  29.858  57.470  1.00  0.00    -0.034 A 
HETATM   25  C   UNL     1       8.193  30.843  58.469  1.00  0.00     0.009 A 
HETATM   26  C   UNL     1       9.382  31.499  58.792  1.00  0.00     0.001 A 
HETATM   27  C   UNL     1      10.562  31.178  58.125  1.00  0.00     0.000 A 
HETATM   28  C   UNL     1      10.558  30.199  57.135  1.00  0.00     0.001 A 
HETATM   29  C   UNL     1       9.371  29.540  56.809  1.00  0.00     0.009 A 
ENDBRANCH  18  24
ENDBRANCH   1  18
TORSDOF 6
ENDMDL
MODEL 3
REMARK VINA RESULT:      -8.3      5.165      8.013
REMARK  6 active torsions:
REMARK  status: ('A' for Active; 'I' for Inactive)
REMARK    1  A    between atoms: N_2  and  C_5 
REMARK    2  A    between atoms: C_5  and  C_6 
REMARK    3  A    between atoms: C_6  and  N_7 
REMARK    4  A    between atoms: C_6  and  C_23 
REMARK       I    between atoms: N_7  and  C_8 
REMARK    5  A    between atoms: C_8  and  C_10 
REMARK    6  A    between atoms: C_13  and  C_17 
ROOT
HETATM    1  N   UNL     1       4.756  26.907  51.403  1.00  0.00    -0.347 N 
HETATM    2  C   UNL     1       5.833  27.041  52.249  1.00  0.00     0.252 C 
HETATM    3  O   UNL     1       6.330  28.138  52.493  1.00  0.00    -0.268 OA
HETATM    4  H   UNL     1       4.572  25.973  51.049  1.00  0.00     0.163 HD
ENDROOT
BRANCH   2   5
HETATM    5  C   UNL     1       6.380  25.801  52.860  1.00  0.00     0.032 A 
HETATM    6  C   UNL     1       7.033  24.887  52.030  1.00  0.00     0.018 A 
HETATM    7  C   UNL     1       7.590  23.727  52.570  1.00  0.00     0.014 A 
HETATM    8  C   UNL     1       7.511  23.464  53.948  1.00  0.00    -0.017 A 
HETATM    9  C   UNL     1       6.847  24.379  54.792  1.00  0.00    -0.050 A 
HETATM   10  C   UNL     1       6.729  24.165  56.279  1.00  0.00     0.049 C 
HETATM   11  C   UNL     1       6.297  25.552  54.236  1.00  0.00     0.024 A 
BRANCH   8  12
HETATM   12  C   UNL     1       8.148  22.264  54.456  1.00  0.00     0.011 A 
HETATM   13  C   UNL     1       9.209  22.092  55.373  1.00  0.00     0.152 A 
HETATM   14  N   UNL     1       9.510  20.807  55.571  1.00  0.00    -0.187 NA
HETATM   15  N   UNL     1       8.653  20.151  54.773  1.00  0.00    -0.289 N 
HETATM   16  H   UNL     1       8.695  19.138  54.750  1.00  0.00     0.188 HD
HETATM   17  C   UNL     1       7.817  20.980  54.078  1.00  0.00     0.123 A 
ENDBRANCH   8  12
ENDBRANCH   2   5
BRANCH   1  18
HETATM   18  C   UNL     1       4.254  28.010  50.574  1.00  0.00     0.143 C 
BRANCH  18  19
HETATM   19  C   UNL     1       3.262  28.975  51.305  1.00  0.00     0.263 C 
BRANCH  19  20
HETATM   20  N   UNL     1       3.952  30.068  52.106  1.00  0.00    -0.076 N 
HETATM   21  C   UNL     1       3.924  31.414  51.451  1.00  0.00     0.269 C 
HETATM   22  H   UNL     1       4.959  29.800  52.148  1.00  0.00     0.279 HD
HETATM   23  C   UNL     1       3.485  30.123  53.527  1.00  0.00     0.269 C 
ENDBRANCH  19  20
ENDBRANCH  18  19
BRANCH  18  24
HETATM   24  C   UNL     1       3.573  27.440  49.342  1.00  0.00    -0.034 A 
HETATM   25  C   UNL     1       2.404  28.039  48.846  1.00  0.00     0.009 A 
HETATM   26  C   UNL     1       1.759  27.512  47.726  1.00  0.00     0.001 A 
HETATM   27  C   UNL     1       2.271  26.385  47.088  1.00  0.00     0.000 A 
HETATM   28  C   UNL     1       3.433  25.783  47.566  1.00  0.00     0.001 A 
HETATM   29  C   UNL     1       4.082  26.307  48.685  1.00  0.00     0.009 A 
ENDBRANCH  18  24
ENDBRANCH   1  18
TORSDOF 6
ENDMDL
MODEL 4
REMARK VINA RESULT:      -8.0      3.379      7.972
REMARK  6 active torsions:
REMARK  status: ('A' for Active; 'I' for Inactive)
REMARK    1  A    between atoms: N_2  and  C_5 
REMARK    2  A    between atoms: C_5  and  C_6 
REMARK    3  A    between atoms: C_6  and  N_7 
REMARK    4  A    between atoms: C_6  and  C_23 
REMARK       I    between atoms: N_7  and  C_8 
REMARK    5  A    between atoms: C_8  and  C_10 
REMARK    6  A    between atoms: C_13  and  C_17 
ROOT
HETATM    1  N   UNL     1       6.633  25.133  53.845  1.00  0.00    -0.347 N 
HETATM    2  C   UNL     1       5.696  26.138  53.925  1.00  0.00     0.252 C 
HETATM    3  O   UNL     1       5.296  26.562  55.006  1.00  0.00    -0.268 OA
HETATM    4  H   UNL     1       6.717  24.663  52.948  1.00  0.00     0.163 HD
ENDROOT
BRANCH   2   5
HETATM    5  C   UNL     1       5.180  26.694  52.646  1.00  0.00     0.032 A 
HETATM    6  C   UNL     1       5.456  26.003  51.465  1.00  0.00     0.018 A 
HETATM    7  C   UNL     1       4.961  26.474  50.249  1.00  0.00     0.014 A 
HETATM    8  C   UNL     1       4.177  27.638  50.191  1.00  0.00    -0.017 A 
HETATM    9  C   UNL     1       3.900  28.347  51.379  1.00  0.00    -0.050 A 
HETATM   10  C   UNL     1       3.062  29.599  51.395  1.00  0.00     0.049 C 
HETATM   11  C   UNL     1       4.398  27.855  52.604  1.00  0.00     0.024 A 
BRANCH   8  12
HETATM   12  C   UNL     1       3.654  28.053  48.904  1.00  0.00     0.011 A 
HETATM   13  C   UNL     1       4.091  29.048  48.000  1.00  0.00     0.152 A 
HETATM   14  N   UNL     1       3.319  29.126  46.914  1.00  0.00    -0.187 NA
HETATM   15  N   UNL     1       2.378  28.192  47.123  1.00  0.00    -0.289 N 
HETATM   16  H   UNL     1       1.660  28.066  46.418  1.00  0.00     0.188 HD
HETATM   17  C   UNL     1       2.531  27.523  48.305  1.00  0.00     0.123 A 
ENDBRANCH   8  12
ENDBRANCH   2   5
BRANCH   1  18
HETATM   18  C   UNL     1       7.067  24.355  55.012  1.00  0.00     0.143 C 
BRANCH  18  19
HETATM   19  C   UNL     1       8.267  24.977  55.801  1.00  0.00     0.263 C 
BRANCH  19  20
HETATM   20  N   UNL     1       7.854  25.683  57.083  1.00  0.00    -0.076 N 
HETATM   21  C   UNL     1       8.067  27.165  57.058  1.00  0.00     0.269 C 
HETATM   22  H   UNL     1       8.492  25.322  57.826  1.00  0.00     0.279 HD
HETATM   23  C   UNL     1       6.470  25.319  57.522  1.00  0.00     0.269 C 
ENDBRANCH  19  20
ENDBRANCH  18  19
BRANCH  18  24
HETATM   24  C   UNL     1       7.441  22.952  54.567  1.00  0.00    -0.034 A 
HETATM   25  C   UNL     1       7.588  21.930  55.518  1.00  0.00     0.009 A 
HETATM   26  C   UNL     1       7.951  20.641  55.122  1.00  0.00     0.001 A 
HETATM   27  C   UNL     1       8.169  20.357  53.776  1.00  0.00     0.000 A 
HETATM   28  C   UNL     1       8.021  21.360  52.821  1.00  0.00     0.001 A 
HETATM   29  C   UNL     1       7.658  22.650  53.212  1.00  0.00     0.009 A 
ENDBRANCH  18  24
ENDBRANCH   1  18
TORSDOF 6
ENDMDL
MODEL 5
REMARK VINA RESULT:      -7.8      5.695     10.994
REMARK  6 active torsions:
REMARK  status: ('A' for Active; 'I' for Inactive)
REMARK    1  A    between atoms: N_2  and  C_5 
REMARK    2  A    between atoms: C_5  and  C_6 
REMARK    3  A    between atoms: C_6  and  N_7 
REMARK    4  A    between atoms: C_6  and  C_23 
REMARK       I    between atoms: N_7  and  C_8 
REMARK    5  A    between atoms: C_8  and  C_10 
REMARK    6  A    between atoms: C_13  and  C_17 
ROOT
HETATM    1  N   UNL     1       5.059  33.858  62.867  1.00  0.00    -0.347 N 
HETATM    2  C   UNL     1       4.898  32.602  62.326  1.00  0.00     0.252 C 
HETATM    3  O   UNL     1       3.904  31.921  62.563  1.00  0.00    -0.268 OA
HETATM    4  H   UNL     1       5.999  34.243  62.844  1.00  0.00     0.163 HD
ENDROOT
BRANCH   2   5
HETATM    5  C   UNL     1       5.979  32.096  61.441  1.00  0.00     0.032 A 
HETATM    6  C   UNL     1       5.831  32.250  60.061  1.00  0.00     0.018 A 
HETATM    7  C   UNL     1       6.838  31.818  59.198  1.00  0.00     0.014 A 
HETATM    8  C   UNL     1       8.014  31.233  59.697  1.00  0.00    -0.017 A 
HETATM    9  C   UNL     1       8.168  31.067  61.089  1.00  0.00    -0.050 A 
HETATM   10  C   UNL     1       9.404  30.453  61.696  1.00  0.00     0.049 C 
HETATM   11  C   UNL     1       7.148  31.516  61.952  1.00  0.00     0.024 A 
BRANCH   8  12
HETATM   12  C   UNL     1       9.044  30.845  58.753  1.00  0.00     0.011 A 
HETATM   13  C   UNL     1       9.198  29.677  57.973  1.00  0.00     0.152 A 
HETATM   14  N   UNL     1      10.306  29.702  57.228  1.00  0.00    -0.187 NA
HETATM   15  N   UNL     1      10.872  30.879  57.537  1.00  0.00    -0.289 N 
HETATM   16  H   UNL     1      11.748  31.125  57.088  1.00  0.00     0.188 HD
HETATM   17  C   UNL     1      10.158  31.601  58.452  1.00  0.00     0.123 A 
ENDBRANCH   8  12
ENDBRANCH   2   5
BRANCH   1  18
HETATM   18  C   UNL     1       4.181  34.391  63.915  1.00  0.00     0.143 C 
BRANCH  18  19
HETATM   19  C   UNL     1       3.661  35.844  63.654  1.00  0.00     0.263 C 
BRANCH  19  20
HETATM   20  N   UNL     1       2.598  35.927  62.570  1.00  0.00    -0.076 N 
HETATM   21  C   UNL     1       3.113  36.398  61.246  1.00  0.00     0.269 C 
HETATM   22  H   UNL     1       1.925  36.660  62.884  1.00  0.00     0.279 HD
HETATM   23  C   UNL     1       1.799  34.667  62.449  1.00  0.00     0.269 C 
ENDBRANCH  19  20
ENDBRANCH  18  19
BRANCH  18  24
HETATM   24  C   UNL     1       4.913  34.359  65.246  1.00  0.00    -0.034 A 
HETATM   25  C   UNL     1       6.293  34.106  65.281  1.00  0.00     0.009 A 
HETATM   26  C   UNL     1       6.973  34.055  66.499  1.00  0.00     0.001 A 
HETATM   27  C   UNL     1       6.285  34.257  67.694  1.00  0.00     0.000 A 
HETATM   28  C   UNL     1       4.917  34.515  67.674  1.00  0.00     0.001 A 
HETATM   29  C   UNL     1       4.233  34.567  66.458  1.00  0.00     0.009 A 
ENDBRANCH  18  24
ENDBRANCH   1  18
TORSDOF 6
ENDMDL
MODEL 6
REMARK VINA RESULT:      -7.7      3.152      8.213
REMARK  6 active torsions:
REMARK  status: ('A' for Active; 'I' for Inactive)
REMARK    1  A    between atoms: N_2  and  C_5 
REMARK    2  A    between atoms: C_5  and  C_6 
REMARK    3  A    between atoms: C_6  and  N_7 
REMARK    4  A    between atoms: C_6  and  C_23 
REMARK       I    between atoms: N_7  and  C_8 
REMARK    5  A    between atoms: C_8  and  C_10 
REMARK    6  A    between atoms: C_13  and  C_17 
ROOT
HETATM    1  N   UNL     1       6.093  26.195  53.541  1.00  0.00    -0.347 N 
HETATM    2  C   UNL     1       5.088  27.137  53.519  1.00  0.00     0.252 C 
HETATM    3  O   UNL     1       4.648  27.635  54.552  1.00  0.00    -0.268 OA
HETATM    4  H   UNL     1       6.217  25.648  52.695  1.00  0.00     0.163 HD
ENDROOT
BRANCH   2   5
HETATM    5  C   UNL     1       4.549  27.530  52.191  1.00  0.00     0.032 A 
HETATM    6  C   UNL     1       3.722  28.652  52.118  1.00  0.00     0.018 A 
HETATM    7  C   UNL     1       3.223  29.074  50.885  1.00  0.00     0.014 A 
HETATM    8  C   UNL     1       3.547  28.386  49.704  1.00  0.00    -0.017 A 
HETATM    9  C   UNL     1       4.375  27.247  49.769  1.00  0.00    -0.050 A 
HETATM   10  C   UNL     1       4.768  26.463  48.543  1.00  0.00     0.049 C 
HETATM   11  C   UNL     1       4.881  26.837  51.020  1.00  0.00     0.024 A 
BRANCH   8  12
HETATM   12  C   UNL     1       3.034  28.898  48.447  1.00  0.00     0.011 A 
HETATM   13  C   UNL     1       3.584  29.813  47.522  1.00  0.00     0.152 A 
HETATM   14  N   UNL     1       2.780  30.034  46.480  1.00  0.00    -0.187 NA
HETATM   15  N   UNL     1       1.706  29.272  46.739  1.00  0.00    -0.289 N 
HETATM   16  H   UNL     1       0.939  29.277  46.075  1.00  0.00     0.188 HD
HETATM   17  C   UNL     1       1.806  28.574  47.911  1.00  0.00     0.123 A 
ENDBRANCH   8  12
ENDBRANCH   2   5
BRANCH   1  18
HETATM   18  C   UNL     1       6.566  25.566  54.780  1.00  0.00     0.143 C 
BRANCH  18  19
HETATM   19  C   UNL     1       7.705  26.348  55.514  1.00  0.00     0.263 C 
BRANCH  19  20
HETATM   20  N   UNL     1       7.236  27.636  56.172  1.00  0.00    -0.076 N 
HETATM   21  C   UNL     1       7.339  27.630  57.666  1.00  0.00     0.269 C 
HETATM   22  H   UNL     1       6.216  27.709  55.965  1.00  0.00     0.279 HD
HETATM   23  C   UNL     1       7.863  28.854  55.569  1.00  0.00     0.269 C 
ENDBRANCH  19  20
ENDBRANCH  18  19
BRANCH  18  24
HETATM   24  C   UNL     1       7.049  24.159  54.473  1.00  0.00    -0.034 A 
HETATM   25  C   UNL     1       7.274  23.251  55.520  1.00  0.00     0.009 A 
HETATM   26  C   UNL     1       7.737  21.962  55.251  1.00  0.00     0.001 A 
HETATM   27  C   UNL     1       7.978  21.564  53.938  1.00  0.00     0.000 A 
HETATM   28  C   UNL     1       7.753  22.452  52.889  1.00  0.00     0.001 A 
HETATM   29  C   UNL     1       7.290  23.742  53.153  1.00  0.00     0.009 A 
ENDBRANCH  18  24
ENDBRANCH   1  18
TORSDOF 6
ENDMDL
MODEL 7
REMARK VINA RESULT:      -7.7      3.606      8.907
REMARK  6 active torsions:
REMARK  status: ('A' for Active; 'I' for Inactive)
REMARK    1  A    between atoms: N_2  and  C_5 
REMARK    2  A    between atoms: C_5  and  C_6 
REMARK    3  A    between atoms: C_6  and  N_7 
REMARK    4  A    between atoms: C_6  and  C_23 
REMARK       I    between atoms: N_7  and  C_8 
REMARK    5  A    between atoms: C_8  and  C_10 
REMARK    6  A    between atoms: C_13  and  C_17 
ROOT
HETATM    1  N   UNL     1       5.933  27.163  52.690  1.00  0.00    -0.347 N 
HETATM    2  C   UNL     1       5.117  28.263  52.555  1.00  0.00     0.252 C 
HETATM    3  O   UNL     1       5.116  29.171  53.382  1.00  0.00    -0.268 OA
HETATM    4  H   UNL     1       5.696  26.352  52.127  1.00  0.00     0.163 HD
ENDROOT
BRANCH   2   5
HETATM    5  C   UNL     1       4.230  28.313  51.364  1.00  0.00     0.032 A 
HETATM    6  C   UNL     1       4.519  27.472  50.288  1.00  0.00     0.018 A 
HETATM    7  C   UNL     1       3.690  27.464  49.165  1.00  0.00     0.014 A 
HETATM    8  C   UNL     1       2.556  28.291  49.100  1.00  0.00    -0.017 A 
HETATM    9  C   UNL     1       2.262  29.149  50.180  1.00  0.00    -0.050 A 
HETATM   10  C   UNL     1       1.059  30.059  50.182  1.00  0.00     0.049 C 
HETATM   11  C   UNL     1       3.100  29.140  51.313  1.00  0.00     0.024 A 
BRANCH   8  12
HETATM   12  C   UNL     1       1.709  28.206  47.926  1.00  0.00     0.011 A 
HETATM   13  C   UNL     1       0.732  27.258  47.551  1.00  0.00     0.152 A 
HETATM   14  N   UNL     1       0.175  27.536  46.370  1.00  0.00    -0.187 NA
HETATM   15  N   UNL     1       0.803  28.655  45.978  1.00  0.00    -0.289 N 
HETATM   16  H   UNL     1       0.545  29.064  45.085  1.00  0.00     0.188 HD
HETATM   17  C   UNL     1       1.737  29.096  46.873  1.00  0.00     0.123 A 
ENDBRANCH   8  12
ENDBRANCH   2   5
BRANCH   1  18
HETATM   18  C   UNL     1       6.697  26.885  53.912  1.00  0.00     0.143 C 
BRANCH  18  19
HETATM   19  C   UNL     1       7.951  27.798  54.119  1.00  0.00     0.263 C 
BRANCH  19  20
HETATM   20  N   UNL     1       7.763  28.861  55.190  1.00  0.00    -0.076 N 
HETATM   21  C   UNL     1       6.799  28.474  56.269  1.00  0.00     0.269 C 
HETATM   22  H   UNL     1       7.329  29.679  54.710  1.00  0.00     0.279 HD
HETATM   23  C   UNL     1       9.062  29.356  55.746  1.00  0.00     0.269 C 
ENDBRANCH  19  20
ENDBRANCH  18  19
BRANCH  18  24
HETATM   24  C   UNL     1       7.139  25.431  53.906  1.00  0.00    -0.034 A 
HETATM   25  C   UNL     1       7.585  24.838  52.715  1.00  0.00     0.009 A 
HETATM   26  C   UNL     1       7.974  23.498  52.693  1.00  0.00     0.001 A 
HETATM   27  C   UNL     1       7.926  22.736  53.858  1.00  0.00     0.000 A 
HETATM   28  C   UNL     1       7.491  23.313  55.049  1.00  0.00     0.001 A 
HETATM   29  C   UNL     1       7.101  24.652  55.075  1.00  0.00     0.009 A 
ENDBRANCH  18  24
ENDBRANCH   1  18
TORSDOF 6
ENDMDL
MODEL 8
REMARK VINA RESULT:      -7.5      5.031      7.620
REMARK  6 active torsions:
REMARK  status: ('A' for Active; 'I' for Inactive)
REMARK    1  A    between atoms: N_2  and  C_5 
REMARK    2  A    between atoms: C_5  and  C_6 
REMARK    3  A    between atoms: C_6  and  N_7 
REMARK    4  A    between atoms: C_6  and  C_23 
REMARK       I    between atoms: N_7  and  C_8 
REMARK    5  A    between atoms: C_8  and  C_10 
REMARK    6  A    between atoms: C_13  and  C_17 
ROOT
HETATM    1  N   UNL     1       5.593  26.987  50.403  1.00  0.00    -0.347 N 
HETATM    2  C   UNL     1       5.082  26.956  51.681  1.00  0.00     0.252 C 
HETATM    3  O   UNL     1       4.103  27.625  52.000  1.00  0.00    -0.268 OA
HETATM    4  H   UNL     1       6.535  26.626  50.284  1.00  0.00     0.163 HD
ENDROOT
BRANCH   2   5
HETATM    5  C   UNL     1       5.765  26.079  52.668  1.00  0.00     0.032 A 
HETATM    6  C   UNL     1       5.490  26.270  54.023  1.00  0.00     0.018 A 
HETATM    7  C   UNL     1       6.084  25.445  54.979  1.00  0.00     0.014 A 
HETATM    8  C   UNL     1       6.956  24.412  54.598  1.00  0.00    -0.017 A 
HETATM    9  C   UNL     1       7.244  24.217  53.231  1.00  0.00    -0.050 A 
HETATM   10  C   UNL     1       8.165  23.125  52.749  1.00  0.00     0.049 C 
HETATM   11  C   UNL     1       6.630  25.050  52.274  1.00  0.00     0.024 A 
BRANCH   8  12
HETATM   12  C   UNL     1       7.508  23.560  55.634  1.00  0.00     0.011 A 
HETATM   13  C   UNL     1       7.661  22.157  55.701  1.00  0.00     0.152 A 
HETATM   14  N   UNL     1       8.211  21.756  56.849  1.00  0.00    -0.187 NA
HETATM   15  N   UNL     1       8.401  22.898  57.527  1.00  0.00    -0.289 N 
HETATM   16  H   UNL     1       8.814  22.846  58.453  1.00  0.00     0.188 HD
HETATM   17  C   UNL     1       7.991  24.010  56.845  1.00  0.00     0.123 A 
ENDBRANCH   8  12
ENDBRANCH   2   5
BRANCH   1  18
HETATM   18  C   UNL     1       5.154  27.959  49.394  1.00  0.00     0.143 C 
BRANCH  18  19
HETATM   19  C   UNL     1       4.852  29.389  49.955  1.00  0.00     0.263 C 
BRANCH  19  20
HETATM   20  N   UNL     1       5.528  30.505  49.175  1.00  0.00    -0.076 N 
HETATM   21  C   UNL     1       4.765  30.954  47.968  1.00  0.00     0.269 C 
HETATM   22  H   UNL     1       6.417  30.101  48.808  1.00  0.00     0.279 HD
HETATM   23  C   UNL     1       5.932  31.654  50.046  1.00  0.00     0.269 C 
ENDBRANCH  19  20
ENDBRANCH  18  19
BRANCH  18  24
HETATM   24  C   UNL     1       3.913  27.428  48.696  1.00  0.00    -0.034 A 
HETATM   25  C   UNL     1       4.006  26.308  47.855  1.00  0.00     0.009 A 
HETATM   26  C   UNL     1       2.877  25.824  47.193  1.00  0.00     0.001 A 
HETATM   27  C   UNL     1       1.643  26.449  47.364  1.00  0.00     0.000 A 
HETATM   28  C   UNL     1       1.535  27.558  48.200  1.00  0.00     0.001 A 
HETATM   29  C   UNL     1       2.662  28.045  48.864  1.00  0.00     0.009 A 
ENDBRANCH  18  24
ENDBRANCH   1  18
TORSDOF 6
ENDMDL
MODEL 9
REMARK VINA RESULT:      -7.4      4.703      7.831
REMARK  6 active torsions:
REMARK  status: ('A' for Active; 'I' for Inactive)
REMARK    1  A    between atoms: N_2  and  C_5 
REMARK    2  A    between atoms: C_5  and  C_6 
REMARK    3  A    between atoms: C_6  and  N_7 
REMARK    4  A    between atoms: C_6  and  C_23 
REMARK       I    between atoms: N_7  and  C_8 
REMARK    5  A    between atoms: C_8  and  C_10 
REMARK    6  A    between atoms: C_13  and  C_17 
ROOT
HETATM    1  N   UNL     1       5.394  27.395  52.955  1.00  0.00    -0.347 N 
HETATM    2  C   UNL     1       5.505  26.178  52.320  1.00  0.00     0.252 C 
HETATM    3  O   UNL     1       5.108  26.013  51.169  1.00  0.00    -0.268 OA
HETATM    4  H   UNL     1       5.496  27.388  53.966  1.00  0.00     0.163 HD
ENDROOT
BRANCH   2   5
HETATM    5  C   UNL     1       6.124  25.063  53.083  1.00  0.00     0.032 A 
HETATM    6  C   UNL     1       6.598  23.959  52.373  1.00  0.00     0.018 A 
HETATM    7  C   UNL     1       7.216  22.906  53.049  1.00  0.00     0.014 A 
HETATM    8  C   UNL     1       7.377  22.941  54.443  1.00  0.00    -0.017 A 
HETATM    9  C   UNL     1       6.894  24.049  55.170  1.00  0.00    -0.050 A 
HETATM   10  C   UNL     1       7.036  24.158  56.666  1.00  0.00     0.049 C 
HETATM   11  C   UNL     1       6.280  25.111  54.474  1.00  0.00     0.024 A 
BRANCH   8  12
HETATM   12  C   UNL     1       8.067  21.838  55.084  1.00  0.00     0.011 A 
HETATM   13  C   UNL     1       7.575  20.725  55.803  1.00  0.00     0.152 A 
HETATM   14  N   UNL     1       8.551  19.932  56.249  1.00  0.00    -0.187 NA
HETATM   15  N   UNL     1       9.672  20.539  55.829  1.00  0.00    -0.289 N 
HETATM   16  H   UNL     1      10.565  20.113  56.058  1.00  0.00     0.188 HD
HETATM   17  C   UNL     1       9.437  21.690  55.130  1.00  0.00     0.123 A 
ENDBRANCH   8  12
ENDBRANCH   2   5
BRANCH   1  18
HETATM   18  C   UNL     1       4.621  28.513  52.403  1.00  0.00     0.143 C 
BRANCH  18  19
HETATM   19  C   UNL     1       5.404  29.408  51.385  1.00  0.00     0.263 C 
BRANCH  19  20
HETATM   20  N   UNL     1       4.805  29.412  49.988  1.00  0.00    -0.076 N 
HETATM   21  C   UNL     1       5.672  28.767  48.952  1.00  0.00     0.269 C 
HETATM   22  H   UNL     1       4.736  30.415  49.709  1.00  0.00     0.279 HD
HETATM   23  C   UNL     1       3.404  28.883  49.960  1.00  0.00     0.269 C 
ENDBRANCH  19  20
ENDBRANCH  18  19
BRANCH  18  24
HETATM   24  C   UNL     1       4.116  29.383  53.541  1.00  0.00    -0.034 A 
HETATM   25  C   UNL     1       3.516  30.621  53.265  1.00  0.00     0.009 A 
HETATM   26  C   UNL     1       3.066  31.438  54.304  1.00  0.00     0.001 A 
HETATM   27  C   UNL     1       3.208  31.028  55.628  1.00  0.00     0.000 A 
HETATM   28  C   UNL     1       3.797  29.800  55.917  1.00  0.00     0.001 A 
HETATM   29  C   UNL     1       4.247  28.980  54.881  1.00  0.00     0.009 A 
ENDBRANCH  18  24
ENDBRANCH   1  18
TORSDOF 6
ENDMDL
MODEL 10
REMARK VINA RESULT:      -7.3      5.180      7.709
REMARK  6 active torsions:
REMARK  status: ('A' for Active; 'I' for Inactive)
REMARK    1  A    between atoms: N_2  and  C_5 
REMARK    2  A    between atoms: C_5  and  C_6 
REMARK    3  A    between atoms: C_6  and  N_7 
REMARK    4  A    between atoms: C_6  and  C_23 
REMARK       I    between atoms: N_7  and  C_8 
REMARK    5  A    between atoms: C_8  and  C_10 
REMARK    6  A    between atoms: C_13  and  C_17 
ROOT
HETATM    1  N   UNL     1       4.964  27.489  52.170  1.00  0.00    -0.347 N 
HETATM    2  C   UNL     1       5.208  26.183  51.810  1.00  0.00     0.252 C 
HETATM    3  O   UNL     1       4.879  25.745  50.710  1.00  0.00    -0.268 OA
HETATM    4  H   UNL     1       5.021  27.703  53.161  1.00  0.00     0.163 HD
ENDROOT
BRANCH   2   5
HETATM    5  C   UNL     1       5.887  25.315  52.807  1.00  0.00     0.032 A 
HETATM    6  C   UNL     1       5.571  25.485  54.156  1.00  0.00     0.018 A 
HETATM    7  C   UNL     1       6.162  24.667  55.120  1.00  0.00     0.014 A 
HETATM    8  C   UNL     1       7.072  23.661  54.753  1.00  0.00    -0.017 A 
HETATM    9  C   UNL     1       7.402  23.488  53.392  1.00  0.00    -0.050 A 
HETATM   10  C   UNL     1       8.365  22.427  52.924  1.00  0.00     0.049 C 
HETATM   11  C   UNL     1       6.791  24.314  52.427  1.00  0.00     0.024 A 
BRANCH   8  12
HETATM   12  C   UNL     1       7.619  22.814  55.795  1.00  0.00     0.011 A 
HETATM   13  C   UNL     1       7.739  21.409  55.884  1.00  0.00     0.152 A 
HETATM   14  N   UNL     1       8.298  21.014  57.030  1.00  0.00    -0.187 NA
HETATM   15  N   UNL     1       8.525  22.163  57.686  1.00  0.00    -0.289 N 
HETATM   16  H   UNL     1       8.950  22.116  58.606  1.00  0.00     0.188 HD
HETATM   17  C   UNL     1       8.131  23.272  56.991  1.00  0.00     0.123 A 
ENDBRANCH   8  12
ENDBRANCH   2   5
BRANCH   1  18
HETATM   18  C   UNL     1       4.121  28.390  51.374  1.00  0.00     0.143 C 
BRANCH  18  19
HETATM   19  C   UNL     1       4.781  28.900  50.050  1.00  0.00     0.263 C 
BRANCH  19  20
HETATM   20  N   UNL     1       4.371  28.107  48.818  1.00  0.00    -0.076 N 
HETATM   21  C   UNL     1       2.893  27.914  48.683  1.00  0.00     0.269 C 
HETATM   22  H   UNL     1       4.766  27.150  48.949  1.00  0.00     0.279 HD
HETATM   23  C   UNL     1       4.989  28.635  47.561  1.00  0.00     0.269 C 
ENDBRANCH  19  20
ENDBRANCH  18  19
BRANCH  18  24
HETATM   24  C   UNL     1       3.726  29.586  52.223  1.00  0.00    -0.034 A 
HETATM   25  C   UNL     1       3.840  29.522  53.621  1.00  0.00     0.009 A 
HETATM   26  C   UNL     1       3.462  30.608  54.412  1.00  0.00     0.001 A 
HETATM   27  C   UNL     1       2.968  31.768  53.819  1.00  0.00     0.000 A 
HETATM   28  C   UNL     1       2.855  31.847  52.434  1.00  0.00     0.001 A 
HETATM   29  C   UNL     1       3.232  30.764  51.639  1.00  0.00     0.009 A 
ENDBRANCH  18  24
ENDBRANCH   1  18
TORSDOF 6
ENDMDL
