MODEL 1
REMARK VINA RESULT:      -8.2      0.000      0.000
REMARK  5 active torsions:
REMARK  status: ('A' for Active; 'I' for Inactive)
REMARK    1  A    between atoms: C_2  and  C_3 
REMARK    2  A    between atoms: C_3  and  N_4 
REMARK       I    between atoms: N_4  and  C_5 
REMARK    3  A    between atoms: C_5  and  C_6 
REMARK    4  A    between atoms: C_7  and  O_8 
REMARK    5  A    between atoms: O_8  and  C_9 
ROOT
HETATM    1  C   UNL     1       7.907  28.412  57.007  1.00  0.00     0.121 C 
HETATM    2  C   UNL     1       7.889  27.107  57.735  1.00  0.00     0.091 C 
HETATM    3  N   UNL     1       7.864  26.075  58.267  1.00  0.00    -0.195 NA
HETATM    4  C   UNL     1       6.971  29.372  57.772  1.00  0.00     0.055 C 
ENDROOT
BRANCH   1   5
HETATM    5  C   UNL     1       9.375  28.966  56.941  1.00  0.00     0.020 C 
HETATM    6  C   UNL     1       9.632  30.098  57.950  1.00  0.00     0.013 C 
HETATM    7  C   UNL     1       9.800  29.439  55.541  1.00  0.00     0.013 C 
ENDBRANCH   1   5
BRANCH   1   8
HETATM    8  N   UNL     1       7.369  28.176  55.646  1.00  0.00    -0.335 N 
HETATM    9  C   UNL     1       6.089  27.758  55.368  1.00  0.00     0.257 C 
HETATM   10  O   UNL     1       5.266  27.523  56.247  1.00  0.00    -0.267 OA
HETATM   11  H   UNL     1       7.998  28.359  54.872  1.00  0.00     0.164 HD
BRANCH   9  12
HETATM   12  C   UNL     1       5.684  27.621  53.939  1.00  0.00     0.085 A 
HETATM   13  C   UNL     1       6.399  26.933  52.959  1.00  0.00     0.185 A 
HETATM   14  N   UNL     1       6.010  26.866  51.657  1.00  0.00    -0.236 NA
HETATM   15  C   UNL     1       4.853  27.472  51.320  1.00  0.00     0.119 A 
HETATM   16  C   UNL     1       4.060  28.156  52.220  1.00  0.00     0.020 A 
HETATM   17  C   UNL     1       4.484  28.230  53.545  1.00  0.00     0.023 A 
BRANCH  13  18
HETATM   18  O   UNL     1       7.597  26.324  53.317  1.00  0.00    -0.291 OA
BRANCH  18  19
HETATM   19  C   UNL     1       7.579  24.985  53.622  1.00  0.00     0.078 A 
HETATM   20  C   UNL     1       7.880  24.092  52.592  1.00  0.00     0.039 A 
HETATM   21  C   UNL     1       7.932  22.721  52.853  1.00  0.00     0.026 A 
HETATM   22  C   UNL     1       7.698  22.253  54.146  1.00  0.00     0.034 A 
HETATM   23 CL   UNL     1       7.756  20.564  54.465  1.00  0.00    -0.084 Cl
HETATM   24  C   UNL     1       7.424  23.145  55.182  1.00  0.00     0.026 A 
HETATM   25  C   UNL     1       7.376  24.517  54.924  1.00  0.00     0.039 A 
ENDBRANCH  18  19
ENDBRANCH  13  18
ENDBRANCH   9  12
ENDBRANCH   1   8
TORSDOF 5
ENDMDL
MODEL 2
REMARK VINA RESULT:      -8.0      1.190      1.977
REMARK  5 active torsions:
REMARK  status: ('A' for Active; 'I' for Inactive)
REMARK    1  A    between atoms: C_2  and  C_3 
REMARK    2  A    between atoms: C_3  and  N_4 
REMARK       I    between atoms: N_4  and  C_5 
REMARK    3  A    between atoms: C_5  and  C_6 
REMARK    4  A    between atoms: C_7  and  O_8 
REMARK    5  A    between atoms: O_8  and  C_9 
ROOT
HETATM    1  C   UNL     1       8.013  28.515  56.400  1.00  0.00     0.121 C 
HETATM    2  C   UNL     1       9.223  29.359  56.167  1.00  0.00     0.091 C 
HETATM    3  N   UNL     1      10.158  30.013  55.948  1.00  0.00    -0.195 NA
HETATM    4  C   UNL     1       8.459  27.302  57.244  1.00  0.00     0.055 C 
ENDROOT
BRANCH   1   5
HETATM    5  C   UNL     1       6.908  29.356  57.134  1.00  0.00     0.020 C 
HETATM    6  C   UNL     1       6.176  30.329  56.195  1.00  0.00     0.013 C 
HETATM    7  C   UNL     1       7.427  30.135  58.354  1.00  0.00     0.013 C 
ENDBRANCH   1   5
BRANCH   1   8
HETATM    8  N   UNL     1       7.530  28.047  55.079  1.00  0.00    -0.335 N 
HETATM    9  C   UNL     1       6.436  27.238  54.882  1.00  0.00     0.257 C 
HETATM   10  O   UNL     1       5.757  26.809  55.810  1.00  0.00    -0.267 OA
HETATM   11  H   UNL     1       8.044  28.373  54.267  1.00  0.00     0.164 HD
BRANCH   9  12
HETATM   12  C   UNL     1       6.046  26.902  53.482  1.00  0.00     0.085 A 
HETATM   13  C   UNL     1       6.766  26.076  52.619  1.00  0.00     0.185 A 
HETATM   14  N   UNL     1       6.392  25.827  51.335  1.00  0.00    -0.236 NA
HETATM   15  C   UNL     1       5.245  26.388  50.900  1.00  0.00     0.119 A 
HETATM   16  C   UNL     1       4.447  27.199  51.683  1.00  0.00     0.020 A 
HETATM   17  C   UNL     1       4.857  27.457  52.990  1.00  0.00     0.023 A 
BRANCH  13  18
HETATM   18  O   UNL     1       7.955  25.516  53.075  1.00  0.00    -0.291 OA
BRANCH  18  19
HETATM   19  C   UNL     1       7.897  24.295  53.705  1.00  0.00     0.078 A 
HETATM   20  C   UNL     1       7.847  23.162  52.892  1.00  0.00     0.039 A 
HETATM   21  C   UNL     1       7.843  21.891  53.471  1.00  0.00     0.026 A 
HETATM   22  C   UNL     1       7.906  21.762  54.858  1.00  0.00     0.034 A 
HETATM   23 CL   UNL     1       7.895  20.196  55.572  1.00  0.00    -0.084 Cl
HETATM   24  C   UNL     1       7.983  22.893  55.671  1.00  0.00     0.026 A 
HETATM   25  C   UNL     1       7.992  24.164  55.093  1.00  0.00     0.039 A 
ENDBRANCH  18  19
ENDBRANCH  13  18
ENDBRANCH   9  12
ENDBRANCH   1   8
TORSDOF 5
ENDMDL
MODEL 3
REMARK VINA RESULT:      -7.5      1.513      5.005
REMARK  5 active torsions:
REMARK  status: ('A' for Active; 'I' for Inactive)
REMARK    1  A    between atoms: C_2  and  C_3 
REMARK    2  A    between atoms: C_3  and  N_4 
REMARK       I    between atoms: N_4  and  C_5 
REMARK    3  A    between atoms: C_5  and  C_6 
REMARK    4  A    between atoms: C_7  and  O_8 
REMARK    5  A    between atoms: O_8  and  C_9 
ROOT
HETATM    1  C   UNL     1       5.070  28.735  51.739  1.00  0.00     0.121 C 
HETATM    2  C   UNL     1       5.000  27.440  50.998  1.00  0.00     0.091 C 
HETATM    3  N   UNL     1       4.965  26.415  50.451  1.00  0.00    -0.195 NA
HETATM    4  C   UNL     1       5.671  29.779  50.774  1.00  0.00     0.055 C 
ENDROOT
BRANCH   1   5
HETATM    5  C   UNL     1       3.635  29.152  52.223  1.00  0.00     0.020 C 
HETATM    6  C   UNL     1       2.594  29.131  51.091  1.00  0.00     0.013 C 
HETATM    7  C   UNL     1       3.587  30.522  52.919  1.00  0.00     0.013 C 
ENDBRANCH   1   5
BRANCH   1   8
HETATM    8  N   UNL     1       5.982  28.545  52.892  1.00  0.00    -0.335 N 
HETATM    9  C   UNL     1       5.691  27.801  54.011  1.00  0.00     0.257 C 
HETATM   10  O   UNL     1       4.615  27.230  54.163  1.00  0.00    -0.267 OA
HETATM   11  H   UNL     1       6.894  28.986  52.827  1.00  0.00     0.164 HD
BRANCH   9  12
HETATM   12  C   UNL     1       6.740  27.661  55.061  1.00  0.00     0.085 A 
HETATM   13  C   UNL     1       7.011  26.499  55.784  1.00  0.00     0.185 A 
HETATM   14  N   UNL     1       7.954  26.429  56.762  1.00  0.00    -0.236 NA
HETATM   15  C   UNL     1       8.680  27.538  57.010  1.00  0.00     0.119 A 
HETATM   16  C   UNL     1       8.508  28.729  56.333  1.00  0.00     0.020 A 
HETATM   17  C   UNL     1       7.524  28.788  55.348  1.00  0.00     0.023 A 
BRANCH  13  18
HETATM   18  O   UNL     1       6.246  25.366  55.529  1.00  0.00    -0.291 OA
BRANCH  18  19
HETATM   19  C   UNL     1       6.841  24.314  54.876  1.00  0.00     0.078 A 
HETATM   20  C   UNL     1       7.187  23.201  55.644  1.00  0.00     0.039 A 
HETATM   21  C   UNL     1       7.745  22.078  55.030  1.00  0.00     0.026 A 
HETATM   22  C   UNL     1       7.939  22.069  53.648  1.00  0.00     0.034 A 
HETATM   23 CL   UNL     1       8.632  20.688  52.892  1.00  0.00    -0.084 Cl
HETATM   24  C   UNL     1       7.569  23.170  52.875  1.00  0.00     0.026 A 
HETATM   25  C   UNL     1       7.007  24.292  53.488  1.00  0.00     0.039 A 
ENDBRANCH  18  19
ENDBRANCH  13  18
ENDBRANCH   9  12
ENDBRANCH   1   8
TORSDOF 5
ENDMDL
MODEL 4
REMARK VINA RESULT:      -7.5      2.729      5.570
REMARK  5 active torsions:
REMARK  status: ('A' for Active; 'I' for Inactive)
REMARK    1  A    between atoms: C_2  and  C_3 
REMARK    2  A    between atoms: C_3  and  N_4 
REMARK       I    between atoms: N_4  and  C_5 
REMARK    3  A    between atoms: C_5  and  C_6 
REMARK    4  A    between atoms: C_7  and  O_8 
REMARK    5  A    between atoms: O_8  and  C_9 
ROOT
HETATM    1  C   UNL     1       8.478  22.725  55.078  1.00  0.00     0.121 C 
HETATM    2  C   UNL     1       8.648  23.374  56.413  1.00  0.00     0.091 C 
HETATM    3  N   UNL     1       8.759  23.908  57.439  1.00  0.00    -0.195 NA
HETATM    4  C   UNL     1       9.891  22.449  54.523  1.00  0.00     0.055 C 
ENDROOT
BRANCH   1   5
HETATM    5  C   UNL     1       7.647  21.401  55.230  1.00  0.00     0.020 C 
HETATM    6  C   UNL     1       8.040  20.588  56.475  1.00  0.00     0.013 C 
HETATM    7  C   UNL     1       7.705  20.485  53.996  1.00  0.00     0.013 C 
ENDBRANCH   1   5
BRANCH   1   8
HETATM    8  N   UNL     1       7.779  23.690  54.195  1.00  0.00    -0.335 N 
HETATM    9  C   UNL     1       6.593  24.317  54.497  1.00  0.00     0.257 C 
HETATM   10  O   UNL     1       5.987  24.112  55.545  1.00  0.00    -0.267 OA
HETATM   11  H   UNL     1       8.233  23.909  53.314  1.00  0.00     0.164 HD
BRANCH   9  12
HETATM   12  C   UNL     1       6.047  25.306  53.524  1.00  0.00     0.085 A 
HETATM   13  C   UNL     1       5.589  26.584  53.842  1.00  0.00     0.185 A 
HETATM   14  N   UNL     1       5.062  27.440  52.925  1.00  0.00    -0.236 NA
HETATM   15  C   UNL     1       5.020  27.030  51.641  1.00  0.00     0.119 A 
HETATM   16  C   UNL     1       5.472  25.794  51.220  1.00  0.00     0.020 A 
HETATM   17  C   UNL     1       5.990  24.924  52.176  1.00  0.00     0.023 A 
BRANCH  13  18
HETATM   18  O   UNL     1       5.625  26.990  55.172  1.00  0.00    -0.291 OA
BRANCH  18  19
HETATM   19  C   UNL     1       6.758  27.619  55.628  1.00  0.00     0.078 A 
HETATM   20  C   UNL     1       7.244  27.228  56.877  1.00  0.00     0.039 A 
HETATM   21  C   UNL     1       8.423  27.790  57.372  1.00  0.00     0.026 A 
HETATM   22  C   UNL     1       9.116  28.728  56.607  1.00  0.00     0.034 A 
HETATM   23 CL   UNL     1      10.565  29.426  57.218  1.00  0.00    -0.084 Cl
HETATM   24  C   UNL     1       8.647  29.100  55.347  1.00  0.00     0.026 A 
HETATM   25  C   UNL     1       7.471  28.535  54.849  1.00  0.00     0.039 A 
ENDBRANCH  18  19
ENDBRANCH  13  18
ENDBRANCH   9  12
ENDBRANCH   1   8
TORSDOF 5
ENDMDL
MODEL 5
REMARK VINA RESULT:      -7.5      2.658      6.286
REMARK  5 active torsions:
REMARK  status: ('A' for Active; 'I' for Inactive)
REMARK    1  A    between atoms: C_2  and  C_3 
REMARK    2  A    between atoms: C_3  and  N_4 
REMARK       I    between atoms: N_4  and  C_5 
REMARK    3  A    between atoms: C_5  and  C_6 
REMARK    4  A    between atoms: C_7  and  O_8 
REMARK    5  A    between atoms: O_8  and  C_9 
ROOT
HETATM    1  C   UNL     1       5.017  27.737  51.619  1.00  0.00     0.121 C 
HETATM    2  C   UNL     1       4.710  27.004  50.354  1.00  0.00     0.091 C 
HETATM    3  N   UNL     1       4.489  26.402  49.385  1.00  0.00    -0.195 NA
HETATM    4  C   UNL     1       5.776  29.022  51.227  1.00  0.00     0.055 C 
ENDROOT
BRANCH   1   5
HETATM    5  C   UNL     1       3.685  28.062  52.385  1.00  0.00     0.020 C 
HETATM    6  C   UNL     1       2.812  29.095  51.652  1.00  0.00     0.013 C 
HETATM    7  C   UNL     1       3.898  28.527  53.835  1.00  0.00     0.013 C 
ENDBRANCH   1   5
BRANCH   1   8
HETATM    8  N   UNL     1       5.899  26.871  52.438  1.00  0.00    -0.335 N 
HETATM    9  C   UNL     1       5.617  25.574  52.794  1.00  0.00     0.257 C 
HETATM   10  O   UNL     1       4.575  25.012  52.472  1.00  0.00    -0.267 OA
HETATM   11  H   UNL     1       6.783  27.273  52.732  1.00  0.00     0.164 HD
BRANCH   9  12
HETATM   12  C   UNL     1       6.637  24.816  53.576  1.00  0.00     0.085 A 
HETATM   13  C   UNL     1       6.989  25.067  54.902  1.00  0.00     0.185 A 
HETATM   14  N   UNL     1       7.955  24.373  55.564  1.00  0.00    -0.236 NA
HETATM   15  C   UNL     1       8.570  23.373  54.901  1.00  0.00     0.119 A 
HETATM   16  C   UNL     1       8.276  23.029  53.596  1.00  0.00     0.020 A 
HETATM   17  C   UNL     1       7.297  23.762  52.928  1.00  0.00     0.023 A 
BRANCH  13  18
HETATM   18  O   UNL     1       6.358  26.111  55.570  1.00  0.00    -0.291 OA
BRANCH  18  19
HETATM   19  C   UNL     1       7.127  27.164  56.003  1.00  0.00     0.078 A 
HETATM   20  C   UNL     1       7.279  27.315  57.383  1.00  0.00     0.039 A 
HETATM   21  C   UNL     1       8.094  28.332  57.885  1.00  0.00     0.026 A 
HETATM   22  C   UNL     1       8.763  29.182  57.004  1.00  0.00     0.034 A 
HETATM   23 CL   UNL     1       9.762  30.439  57.622  1.00  0.00    -0.084 Cl
HETATM   24  C   UNL     1       8.634  29.015  55.625  1.00  0.00     0.026 A 
HETATM   25  C   UNL     1       7.823  27.995  55.121  1.00  0.00     0.039 A 
ENDBRANCH  18  19
ENDBRANCH  13  18
ENDBRANCH   9  12
ENDBRANCH   1   8
TORSDOF 5
ENDMDL
MODEL 6
REMARK VINA RESULT:      -7.4      5.355      7.996
REMARK  5 active torsions:
REMARK  status: ('A' for Active; 'I' for Inactive)
REMARK    1  A    between atoms: C_2  and  C_3 
REMARK    2  A    between atoms: C_3  and  N_4 
REMARK       I    between atoms: N_4  and  C_5 
REMARK    3  A    between atoms: C_5  and  C_6 
REMARK    4  A    between atoms: C_7  and  O_8 
REMARK    5  A    between atoms: O_8  and  C_9 
ROOT
HETATM    1  C   UNL     1       6.626  32.318  61.829  1.00  0.00     0.121 C 
HETATM    2  C   UNL     1       5.535  31.700  62.642  1.00  0.00     0.091 C 
HETATM    3  N   UNL     1       4.686  31.190  63.250  1.00  0.00    -0.195 NA
HETATM    4  C   UNL     1       6.167  33.745  61.463  1.00  0.00     0.055 C 
ENDROOT
BRANCH   1   5
HETATM    5  C   UNL     1       7.963  32.334  62.654  1.00  0.00     0.020 C 
HETATM    6  C   UNL     1       8.591  30.938  62.800  1.00  0.00     0.013 C 
HETATM    7  C   UNL     1       7.827  32.969  64.047  1.00  0.00     0.013 C 
ENDBRANCH   1   5
BRANCH   1   8
HETATM    8  N   UNL     1       6.776  31.514  60.593  1.00  0.00    -0.335 N 
HETATM    9  C   UNL     1       7.708  31.749  59.610  1.00  0.00     0.257 C 
HETATM   10  O   UNL     1       8.505  32.681  59.665  1.00  0.00    -0.267 OA
HETATM   11  H   UNL     1       6.151  30.721  60.489  1.00  0.00     0.164 HD
BRANCH   9  12
HETATM   12  C   UNL     1       7.767  30.812  58.451  1.00  0.00     0.085 A 
HETATM   13  C   UNL     1       6.669  30.368  57.714  1.00  0.00     0.185 A 
HETATM   14  N   UNL     1       6.767  29.481  56.687  1.00  0.00    -0.236 NA
HETATM   15  C   UNL     1       7.999  29.044  56.355  1.00  0.00     0.119 A 
HETATM   16  C   UNL     1       9.150  29.443  57.005  1.00  0.00     0.020 A 
HETATM   17  C   UNL     1       9.028  30.337  58.066  1.00  0.00     0.023 A 
BRANCH  13  18
HETATM   18  O   UNL     1       5.403  30.815  58.076  1.00  0.00    -0.291 OA
BRANCH  18  19
HETATM   19  C   UNL     1       4.646  31.458  57.127  1.00  0.00     0.078 A 
HETATM   20  C   UNL     1       3.468  30.830  56.718  1.00  0.00     0.039 A 
HETATM   21  C   UNL     1       2.628  31.459  55.797  1.00  0.00     0.026 A 
HETATM   22  C   UNL     1       2.963  32.720  55.303  1.00  0.00     0.034 A 
HETATM   23 CL   UNL     1       1.931  33.493  54.164  1.00  0.00    -0.084 Cl
HETATM   24  C   UNL     1       4.125  33.362  55.731  1.00  0.00     0.026 A 
HETATM   25  C   UNL     1       4.964  32.735  56.655  1.00  0.00     0.039 A 
ENDBRANCH  18  19
ENDBRANCH  13  18
ENDBRANCH   9  12
ENDBRANCH   1   8
TORSDOF 5
ENDMDL
MODEL 7
REMARK VINA RESULT:      -7.3      1.656      5.083
REMARK  5 active torsions:
REMARK  status: ('A' for Active; 'I' for Inactive)
REMARK    1  A    between atoms: C_2  and  C_3 
REMARK    2  A    between atoms: C_3  and  N_4 
REMARK       I    between atoms: N_4  and  C_5 
REMARK    3  A    between atoms: C_5  and  C_6 
REMARK    4  A    between atoms: C_7  and  O_8 
REMARK    5  A    between atoms: O_8  and  C_9 
ROOT
HETATM    1  C   UNL     1       4.883  28.752  51.172  1.00  0.00     0.121 C 
HETATM    2  C   UNL     1       4.932  27.367  50.615  1.00  0.00     0.091 C 
HETATM    3  N   UNL     1       4.982  26.277  50.216  1.00  0.00    -0.195 NA
HETATM    4  C   UNL     1       5.715  29.650  50.231  1.00  0.00     0.055 C 
ENDROOT
BRANCH   1   5
HETATM    5  C   UNL     1       3.392  29.238  51.266  1.00  0.00     0.020 C 
HETATM    6  C   UNL     1       2.579  28.920  50.000  1.00  0.00     0.013 C 
HETATM    7  C   UNL     1       3.245  30.733  51.592  1.00  0.00     0.013 C 
ENDBRANCH   1   5
BRANCH   1   8
HETATM    8  N   UNL     1       5.515  28.720  52.513  1.00  0.00    -0.335 N 
HETATM    9  C   UNL     1       4.941  28.181  53.640  1.00  0.00     0.257 C 
HETATM   10  O   UNL     1       3.820  27.683  53.636  1.00  0.00    -0.267 OA
HETATM   11  H   UNL     1       6.449  29.111  52.583  1.00  0.00     0.164 HD
BRANCH   9  12
HETATM   12  C   UNL     1       5.732  28.177  54.904  1.00  0.00     0.085 A 
HETATM   13  C   UNL     1       7.020  27.663  55.050  1.00  0.00     0.185 A 
HETATM   14  N   UNL     1       7.690  27.646  56.234  1.00  0.00    -0.236 NA
HETATM   15  C   UNL     1       7.076  28.189  57.306  1.00  0.00     0.119 A 
HETATM   16  C   UNL     1       5.814  28.746  57.260  1.00  0.00     0.020 A 
HETATM   17  C   UNL     1       5.136  28.737  56.043  1.00  0.00     0.023 A 
BRANCH  13  18
HETATM   18  O   UNL     1       7.636  27.093  53.941  1.00  0.00    -0.291 OA
BRANCH  18  19
HETATM   19  C   UNL     1       7.580  25.727  53.797  1.00  0.00     0.078 A 
HETATM   20  C   UNL     1       7.964  25.201  52.562  1.00  0.00     0.039 A 
HETATM   21  C   UNL     1       7.981  23.817  52.372  1.00  0.00     0.026 A 
HETATM   22  C   UNL     1       7.629  22.969  53.422  1.00  0.00     0.034 A 
HETATM   23 CL   UNL     1       7.644  21.265  53.185  1.00  0.00    -0.084 Cl
HETATM   24  C   UNL     1       7.272  23.492  54.665  1.00  0.00     0.026 A 
HETATM   25  C   UNL     1       7.258  24.875  54.858  1.00  0.00     0.039 A 
ENDBRANCH  18  19
ENDBRANCH  13  18
ENDBRANCH   9  12
ENDBRANCH   1   8
TORSDOF 5
ENDMDL
MODEL 8
REMARK VINA RESULT:      -7.1      2.935      6.793
REMARK  5 active torsions:
REMARK  status: ('A' for Active; 'I' for Inactive)
REMARK    1  A    between atoms: C_2  and  C_3 
REMARK    2  A    between atoms: C_3  and  N_4 
REMARK       I    between atoms: N_4  and  C_5 
REMARK    3  A    between atoms: C_5  and  C_6 
REMARK    4  A    between atoms: C_7  and  O_8 
REMARK    5  A    between atoms: O_8  and  C_9 
ROOT
HETATM    1  C   UNL     1       4.588  28.099  50.099  1.00  0.00     0.121 C 
HETATM    2  C   UNL     1       5.469  29.282  49.864  1.00  0.00     0.091 C 
HETATM    3  N   UNL     1       6.184  30.183  49.697  1.00  0.00    -0.195 NA
HETATM    4  C   UNL     1       3.375  28.590  50.917  1.00  0.00     0.055 C 
ENDROOT
BRANCH   1   5
HETATM    5  C   UNL     1       4.147  27.480  48.724  1.00  0.00     0.020 C 
HETATM    6  C   UNL     1       3.810  25.983  48.824  1.00  0.00     0.013 C 
HETATM    7  C   UNL     1       5.167  27.688  47.593  1.00  0.00     0.013 C 
ENDBRANCH   1   5
BRANCH   1   8
HETATM    8  N   UNL     1       5.359  27.116  50.898  1.00  0.00    -0.335 N 
HETATM    9  C   UNL     1       5.998  27.394  52.084  1.00  0.00     0.257 C 
HETATM   10  O   UNL     1       5.999  28.514  52.586  1.00  0.00    -0.267 OA
HETATM   11  H   UNL     1       5.392  26.167  50.542  1.00  0.00     0.164 HD
BRANCH   9  12
HETATM   12  C   UNL     1       6.685  26.279  52.796  1.00  0.00     0.085 A 
HETATM   13  C   UNL     1       6.802  26.155  54.181  1.00  0.00     0.185 A 
HETATM   14  N   UNL     1       7.472  25.138  54.787  1.00  0.00    -0.236 NA
HETATM   15  C   UNL     1       8.019  24.192  53.996  1.00  0.00     0.119 A 
HETATM   16  C   UNL     1       7.937  24.210  52.617  1.00  0.00     0.020 A 
HETATM   17  C   UNL     1       7.262  25.269  52.014  1.00  0.00     0.023 A 
BRANCH  13  18
HETATM   18  O   UNL     1       6.246  27.144  54.985  1.00  0.00    -0.291 OA
BRANCH  18  19
HETATM   19  C   UNL     1       7.095  27.925  55.732  1.00  0.00     0.078 A 
HETATM   20  C   UNL     1       6.901  27.933  57.115  1.00  0.00     0.039 A 
HETATM   21  C   UNL     1       7.765  28.663  57.934  1.00  0.00     0.026 A 
HETATM   22  C   UNL     1       8.827  29.368  57.366  1.00  0.00     0.034 A 
HETATM   23 CL   UNL     1       9.887  30.272  58.374  1.00  0.00    -0.084 Cl
HETATM   24  C   UNL     1       9.038  29.340  55.988  1.00  0.00     0.026 A 
HETATM   25  C   UNL     1       8.178  28.606  55.168  1.00  0.00     0.039 A 
ENDBRANCH  18  19
ENDBRANCH  13  18
ENDBRANCH   9  12
ENDBRANCH   1   8
TORSDOF 5
ENDMDL
MODEL 9
REMARK VINA RESULT:      -7.1      3.247      6.755
REMARK  5 active torsions:
REMARK  status: ('A' for Active; 'I' for Inactive)
REMARK    1  A    between atoms: C_2  and  C_3 
REMARK    2  A    between atoms: C_3  and  N_4 
REMARK       I    between atoms: N_4  and  C_5 
REMARK    3  A    between atoms: C_5  and  C_6 
REMARK    4  A    between atoms: C_7  and  O_8 
REMARK    5  A    between atoms: O_8  and  C_9 
ROOT
HETATM    1  C   UNL     1       3.335  27.350  48.326  1.00  0.00     0.121 C 
HETATM    2  C   UNL     1       3.178  25.868  48.232  1.00  0.00     0.091 C 
HETATM    3  N   UNL     1       3.051  24.713  48.198  1.00  0.00    -0.195 NA
HETATM    4  C   UNL     1       4.650  27.714  47.603  1.00  0.00     0.055 C 
ENDROOT
BRANCH   1   5
HETATM    5  C   UNL     1       2.098  28.062  47.669  1.00  0.00     0.020 C 
HETATM    6  C   UNL     1       1.780  29.422  48.314  1.00  0.00     0.013 C 
HETATM    7  C   UNL     1       0.822  27.204  47.656  1.00  0.00     0.013 C 
ENDBRANCH   1   5
BRANCH   1   8
HETATM    8  N   UNL     1       3.447  27.701  49.762  1.00  0.00    -0.335 N 
HETATM    9  C   UNL     1       4.539  27.437  50.554  1.00  0.00     0.257 C 
HETATM   10  O   UNL     1       5.536  26.858  50.132  1.00  0.00    -0.267 OA
HETATM   11  H   UNL     1       2.658  28.190  50.172  1.00  0.00     0.164 HD
BRANCH   9  12
HETATM   12  C   UNL     1       4.518  27.906  51.969  1.00  0.00     0.085 A 
HETATM   13  C   UNL     1       4.585  27.084  53.094  1.00  0.00     0.185 A 
HETATM   14  N   UNL     1       4.524  27.554  54.369  1.00  0.00    -0.236 NA
HETATM   15  C   UNL     1       4.427  28.889  54.538  1.00  0.00     0.119 A 
HETATM   16  C   UNL     1       4.379  29.788  53.492  1.00  0.00     0.020 A 
HETATM   17  C   UNL     1       4.424  29.287  52.193  1.00  0.00     0.023 A 
BRANCH  13  18
HETATM   18  O   UNL     1       4.671  25.709  52.906  1.00  0.00    -0.291 OA
BRANCH  18  19
HETATM   19  C   UNL     1       5.797  25.061  53.355  1.00  0.00     0.078 A 
HETATM   20  C   UNL     1       5.826  24.696  54.702  1.00  0.00     0.039 A 
HETATM   21  C   UNL     1       6.919  23.986  55.206  1.00  0.00     0.026 A 
HETATM   22  C   UNL     1       7.967  23.633  54.356  1.00  0.00     0.034 A 
HETATM   23 CL   UNL     1       9.315  22.765  54.979  1.00  0.00    -0.084 Cl
HETATM   24  C   UNL     1       7.927  23.974  53.004  1.00  0.00     0.026 A 
HETATM   25  C   UNL     1       6.833  24.680  52.498  1.00  0.00     0.039 A 
ENDBRANCH  18  19
ENDBRANCH  13  18
ENDBRANCH   9  12
ENDBRANCH   1   8
TORSDOF 5
ENDMDL
MODEL 10
REMARK VINA RESULT:      -7.1      9.736     12.361
REMARK  5 active torsions:
REMARK  status: ('A' for Active; 'I' for Inactive)
REMARK    1  A    between atoms: C_2  and  C_3 
REMARK    2  A    between atoms: C_3  and  N_4 
REMARK       I    between atoms: N_4  and  C_5 
REMARK    3  A    between atoms: C_5  and  C_6 
REMARK    4  A    between atoms: C_7  and  O_8 
REMARK    5  A    between atoms: O_8  and  C_9 
ROOT
HETATM    1  C   UNL     1       3.360  35.337  60.426  1.00  0.00     0.121 C 
HETATM    2  C   UNL     1       1.944  35.119  60.001  1.00  0.00     0.091 C 
HETATM    3  N   UNL     1       0.833  34.946  59.708  1.00  0.00    -0.195 NA
HETATM    4  C   UNL     1       4.220  34.282  59.699  1.00  0.00     0.055 C 
ENDROOT
BRANCH   1   5
HETATM    5  C   UNL     1       3.807  36.798  60.063  1.00  0.00     0.020 C 
HETATM    6  C   UNL     1       2.802  37.864  60.530  1.00  0.00     0.013 C 
HETATM    7  C   UNL     1       4.096  37.007  58.567  1.00  0.00     0.013 C 
ENDBRANCH   1   5
BRANCH   1   8
HETATM    8  N   UNL     1       3.430  35.111  61.889  1.00  0.00    -0.335 N 
HETATM    9  C   UNL     1       4.519  35.396  62.678  1.00  0.00     0.257 C 
HETATM   10  O   UNL     1       5.561  35.858  62.223  1.00  0.00    -0.267 OA
HETATM   11  H   UNL     1       2.597  34.736  62.331  1.00  0.00     0.164 HD
BRANCH   9  12
HETATM   12  C   UNL     1       4.411  35.162  64.147  1.00  0.00     0.085 A 
HETATM   13  C   UNL     1       4.456  33.916  64.772  1.00  0.00     0.185 A 
HETATM   14  N   UNL     1       4.315  33.747  66.115  1.00  0.00    -0.236 NA
HETATM   15  C   UNL     1       4.157  34.853  66.870  1.00  0.00     0.119 A 
HETATM   16  C   UNL     1       4.124  36.133  66.351  1.00  0.00     0.020 A 
HETATM   17  C   UNL     1       4.252  36.284  64.971  1.00  0.00     0.023 A 
BRANCH  13  18
HETATM   18  O   UNL     1       4.605  32.782  63.981  1.00  0.00    -0.291 OA
BRANCH  18  19
HETATM   19  C   UNL     1       5.808  32.586  63.346  1.00  0.00     0.078 A 
HETATM   20  C   UNL     1       6.965  32.891  64.067  1.00  0.00     0.039 A 
HETATM   21  C   UNL     1       8.219  32.662  63.497  1.00  0.00     0.026 A 
HETATM   22  C   UNL     1       8.309  32.115  62.217  1.00  0.00     0.034 A 
HETATM   23 CL   UNL     1       9.854  31.839  61.512  1.00  0.00    -0.084 Cl
HETATM   24  C   UNL     1       7.155  31.785  61.506  1.00  0.00     0.026 A 
HETATM   25  C   UNL     1       5.900  32.010  62.076  1.00  0.00     0.039 A 
ENDBRANCH  18  19
ENDBRANCH  13  18
ENDBRANCH   9  12
ENDBRANCH   1   8
TORSDOF 5
ENDMDL
