MODEL 1
REMARK VINA RESULT:     -12.0      0.000      0.000
REMARK  9 active torsions:
REMARK  status: ('A' for Active; 'I' for Inactive)
REMARK       I    between atoms: C_2  and  N_3 
REMARK    1  A    between atoms: N_3  and  C_4 
REMARK    2  A    between atoms: C_7  and  O_8 
REMARK    3  A    between atoms: O_8  and  C_9 
REMARK    4  A    between atoms: C_9  and  C_10 
REMARK    5  A    between atoms: C_11  and  O_12 
REMARK    6  A    between atoms: C_16  and  C_17 
REMARK    7  A    between atoms: C_31  and  O_32 
REMARK    8  A    between atoms: O_32  and  C_33 
REMARK    9  A    between atoms: C_33  and  C_34 
ROOT
HETATM    1  C   UNL     1       7.140  31.867  58.982  1.00  0.00     0.269 C 
HETATM    2  N   UNL     1       8.485  32.060  59.637  1.00  0.00    -0.061 N 
HETATM    3  H   UNL     1       8.483  31.532  60.516  1.00  0.00     0.278 HD
HETATM    4  H   UNL     1       8.580  33.050  59.889  1.00  0.00     0.278 HD
HETATM    5  C   UNL     1       9.644  31.601  58.788  1.00  0.00     0.238 C 
HETATM    6  C   UNL     1       9.573  30.084  58.525  1.00  0.00     0.069 C 
HETATM    7  C   UNL     1       8.183  29.678  58.168  1.00  0.00    -0.019 A 
HETATM    8  C   UNL     1       7.092  30.491  58.417  1.00  0.00     0.052 A 
HETATM    9  N   UNL     1       5.966  29.837  57.986  1.00  0.00    -0.356 N 
HETATM   10  H   UNL     1       5.012  30.178  58.035  1.00  0.00     0.166 HD
HETATM   11  C   UNL     1       6.318  28.615  57.454  1.00  0.00     0.043 A 
HETATM   12  C   UNL     1       7.706  28.490  57.549  1.00  0.00     0.002 A 
HETATM   13  C   UNL     1       5.512  27.621  56.894  1.00  0.00     0.033 A 
HETATM   14  C   UNL     1       6.147  26.473  56.413  1.00  0.00     0.039 A 
HETATM   15  C   UNL     1       7.532  26.317  56.480  1.00  0.00     0.070 A 
HETATM   16  C   UNL     1       8.323  27.320  57.053  1.00  0.00     0.051 A 
ENDROOT
BRANCH   1  17
HETATM   17  C   UNL     1       6.014  32.197  59.937  1.00  0.00    -0.021 A 
HETATM   18  C   UNL     1       4.746  32.596  59.495  1.00  0.00     0.012 A 
HETATM   19  C   UNL     1       3.724  32.877  60.410  1.00  0.00     0.038 A 
HETATM   20  C   UNL     1       3.952  32.790  61.787  1.00  0.00     0.076 A 
HETATM   21  C   UNL     1       5.227  32.435  62.251  1.00  0.00    -0.000 A 
HETATM   22  C   UNL     1       6.239  32.122  61.320  1.00  0.00     0.021 A 
BRANCH  20  23
HETATM   23  O   UNL     1       3.008  33.029  62.748  1.00  0.00    -0.355 OA
HETATM   24  C   UNL     1       2.385  34.307  62.771  1.00  0.00     0.210 C 
ENDBRANCH  20  23
BRANCH  21  25
HETATM   25  C   UNL     1       5.554  32.377  63.732  1.00  0.00     0.217 C 
BRANCH  25  26
HETATM   26  O   UNL     1       5.834  33.712  64.164  1.00  0.00    -0.347 OA
BRANCH  26  27
HETATM   27  C   UNL     1       5.850  33.938  65.511  1.00  0.00     0.069 A 
HETATM   28  C   UNL     1       4.592  33.999  66.109  1.00  0.00     0.039 A 
HETATM   29  C   UNL     1       4.460  34.238  67.482  1.00  0.00     0.032 A 
HETATM   30  C   UNL     1       5.589  34.429  68.276  1.00  0.00     0.034 A 
HETATM   31  C   UNL     1       6.851  34.370  67.672  1.00  0.00     0.032 A 
HETATM   32  C   UNL     1       6.983  34.127  66.298  1.00  0.00     0.039 A 
BRANCH  30  33
HETATM   33  N   UNL     1       5.547  34.682  69.664  1.00  0.00    -0.328 N 
HETATM   34  C   UNL     1       6.055  33.889  70.677  1.00  0.00     0.218 C 
HETATM   35  C   UNL     1       5.828  34.468  72.053  1.00  0.00     0.117 C 
HETATM   36  O   UNL     1       6.633  32.815  70.547  1.00  0.00    -0.274 OA
HETATM   37  H   UNL     1       5.087  35.539  69.942  1.00  0.00     0.169 HD
ENDBRANCH  30  33
ENDBRANCH  26  27
ENDBRANCH  25  26
ENDBRANCH  21  25
ENDBRANCH   1  17
BRANCH  15  38
HETATM   38  O   UNL     1       7.989  25.137  55.958  1.00  0.00    -0.347 OA
BRANCH  38  39
HETATM   39  C   UNL     1       7.386  23.932  56.423  1.00  0.00     0.214 C 
BRANCH  39  40
HETATM   40  C   UNL     1       7.603  22.857  55.387  1.00  0.00    -0.034 A 
HETATM   41  C   UNL     1       7.663  23.171  54.023  1.00  0.00     0.009 A 
HETATM   42  C   UNL     1       7.870  22.168  53.074  1.00  0.00     0.001 A 
HETATM   43  C   UNL     1       8.016  20.842  53.478  1.00  0.00     0.000 A 
HETATM   44  C   UNL     1       7.951  20.517  54.832  1.00  0.00     0.001 A 
HETATM   45  C   UNL     1       7.744  21.517  55.781  1.00  0.00     0.009 A 
ENDBRANCH  39  40
ENDBRANCH  38  39
ENDBRANCH  15  38
TORSDOF 9
ENDMDL
MODEL 2
REMARK VINA RESULT:     -11.8      2.537      3.719
REMARK  9 active torsions:
REMARK  status: ('A' for Active; 'I' for Inactive)
REMARK       I    between atoms: C_2  and  N_3 
REMARK    1  A    between atoms: N_3  and  C_4 
REMARK    2  A    between atoms: C_7  and  O_8 
REMARK    3  A    between atoms: O_8  and  C_9 
REMARK    4  A    between atoms: C_9  and  C_10 
REMARK    5  A    between atoms: C_11  and  O_12 
REMARK    6  A    between atoms: C_16  and  C_17 
REMARK    7  A    between atoms: C_31  and  O_32 
REMARK    8  A    between atoms: O_32  and  C_33 
REMARK    9  A    between atoms: C_33  and  C_34 
ROOT
HETATM    1  C   UNL     1       8.500  31.505  58.879  1.00  0.00     0.269 C 
HETATM    2  N   UNL     1       9.998  31.334  58.902  1.00  0.00    -0.061 N 
HETATM    3  H   UNL     1      10.223  30.642  59.626  1.00  0.00     0.278 HD
HETATM    4  H   UNL     1      10.418  32.221  59.202  1.00  0.00     0.278 HD
HETATM    5  C   UNL     1      10.576  30.877  57.585  1.00  0.00     0.238 C 
HETATM    6  C   UNL     1      10.048  29.481  57.203  1.00  0.00     0.069 C 
HETATM    7  C   UNL     1       8.578  29.392  57.440  1.00  0.00    -0.019 A 
HETATM    8  C   UNL     1       7.904  30.304  58.232  1.00  0.00     0.052 A 
HETATM    9  N   UNL     1       6.580  29.948  58.260  1.00  0.00    -0.356 N 
HETATM   10  H   UNL     1       5.836  30.424  58.758  1.00  0.00     0.166 HD
HETATM   11  C   UNL     1       6.389  28.823  57.487  1.00  0.00     0.043 A 
HETATM   12  C   UNL     1       7.626  28.454  56.954  1.00  0.00     0.002 A 
HETATM   13  C   UNL     1       5.216  28.114  57.220  1.00  0.00     0.033 A 
HETATM   14  C   UNL     1       5.313  27.002  56.379  1.00  0.00     0.039 A 
HETATM   15  C   UNL     1       6.529  26.609  55.818  1.00  0.00     0.070 A 
HETATM   16  C   UNL     1       7.696  27.327  56.105  1.00  0.00     0.051 A 
ENDROOT
BRANCH   1  17
HETATM   17  C   UNL     1       7.963  31.810  60.260  1.00  0.00    -0.021 A 
HETATM   18  C   UNL     1       8.730  31.638  61.419  1.00  0.00     0.012 A 
HETATM   19  C   UNL     1       8.203  31.948  62.679  1.00  0.00     0.038 A 
HETATM   20  C   UNL     1       6.891  32.411  62.813  1.00  0.00     0.076 A 
HETATM   21  C   UNL     1       6.091  32.548  61.668  1.00  0.00    -0.000 A 
HETATM   22  C   UNL     1       6.643  32.266  60.402  1.00  0.00     0.021 A 
BRANCH  20  23
HETATM   23  O   UNL     1       6.304  32.753  63.999  1.00  0.00    -0.355 OA
HETATM   24  C   UNL     1       7.025  33.605  64.882  1.00  0.00     0.210 C 
ENDBRANCH  20  23
BRANCH  21  25
HETATM   25  C   UNL     1       4.643  32.994  61.750  1.00  0.00     0.217 C 
BRANCH  25  26
HETATM   26  O   UNL     1       4.591  34.365  61.342  1.00  0.00    -0.347 OA
BRANCH  26  27
HETATM   27  C   UNL     1       4.758  35.308  62.316  1.00  0.00     0.069 A 
HETATM   28  C   UNL     1       5.834  36.173  62.115  1.00  0.00     0.039 A 
HETATM   29  C   UNL     1       6.129  37.179  63.042  1.00  0.00     0.032 A 
HETATM   30  C   UNL     1       5.355  37.330  64.191  1.00  0.00     0.034 A 
HETATM   31  C   UNL     1       4.277  36.458  64.391  1.00  0.00     0.032 A 
HETATM   32  C   UNL     1       3.979  35.452  63.462  1.00  0.00     0.039 A 
BRANCH  30  33
HETATM   33  N   UNL     1       5.586  38.311  65.178  1.00  0.00    -0.328 N 
HETATM   34  C   UNL     1       5.885  39.647  64.979  1.00  0.00     0.218 C 
HETATM   35  C   UNL     1       6.074  40.410  66.269  1.00  0.00     0.117 C 
HETATM   36  O   UNL     1       6.007  40.218  63.900  1.00  0.00    -0.274 OA
HETATM   37  H   UNL     1       5.531  37.993  66.137  1.00  0.00     0.169 HD
ENDBRANCH  30  33
ENDBRANCH  26  27
ENDBRANCH  25  26
ENDBRANCH  21  25
ENDBRANCH   1  17
BRANCH  15  38
HETATM   38  O   UNL     1       6.446  25.504  55.014  1.00  0.00    -0.347 OA
BRANCH  38  39
HETATM   39  C   UNL     1       7.612  25.131  54.284  1.00  0.00     0.214 C 
BRANCH  39  40
HETATM   40  C   UNL     1       7.713  23.625  54.283  1.00  0.00    -0.034 A 
HETATM   41  C   UNL     1       7.657  22.897  55.479  1.00  0.00     0.009 A 
HETATM   42  C   UNL     1       7.746  21.503  55.464  1.00  0.00     0.001 A 
HETATM   43  C   UNL     1       7.895  20.825  54.256  1.00  0.00     0.000 A 
HETATM   44  C   UNL     1       7.959  21.539  53.061  1.00  0.00     0.001 A 
HETATM   45  C   UNL     1       7.871  22.931  53.073  1.00  0.00     0.009 A 
ENDBRANCH  39  40
ENDBRANCH  38  39
ENDBRANCH  15  38
TORSDOF 9
ENDMDL
MODEL 3
REMARK VINA RESULT:     -11.7      3.139      6.408
REMARK  9 active torsions:
REMARK  status: ('A' for Active; 'I' for Inactive)
REMARK       I    between atoms: C_2  and  N_3 
REMARK    1  A    between atoms: N_3  and  C_4 
REMARK    2  A    between atoms: C_7  and  O_8 
REMARK    3  A    between atoms: O_8  and  C_9 
REMARK    4  A    between atoms: C_9  and  C_10 
REMARK    5  A    between atoms: C_11  and  O_12 
REMARK    6  A    between atoms: C_16  and  C_17 
REMARK    7  A    between atoms: C_31  and  O_32 
REMARK    8  A    between atoms: O_32  and  C_33 
REMARK    9  A    between atoms: C_33  and  C_34 
ROOT
HETATM    1  C   UNL     1       8.592  31.255  58.707  1.00  0.00     0.269 C 
HETATM    2  N   UNL     1      10.090  31.075  58.721  1.00  0.00    -0.061 N 
HETATM    3  H   UNL     1      10.316  30.393  59.453  1.00  0.00     0.278 HD
HETATM    4  H   UNL     1      10.517  31.963  59.005  1.00  0.00     0.278 HD
HETATM    5  C   UNL     1      10.655  30.595  57.407  1.00  0.00     0.238 C 
HETATM    6  C   UNL     1      10.115  29.196  57.050  1.00  0.00     0.069 C 
HETATM    7  C   UNL     1       8.647  29.120  57.299  1.00  0.00    -0.019 A 
HETATM    8  C   UNL     1       7.985  30.048  58.082  1.00  0.00     0.052 A 
HETATM    9  N   UNL     1       6.659  29.701  58.126  1.00  0.00    -0.356 N 
HETATM   10  H   UNL     1       5.921  30.189  58.622  1.00  0.00     0.166 HD
HETATM   11  C   UNL     1       6.455  28.565  57.371  1.00  0.00     0.043 A 
HETATM   12  C   UNL     1       7.686  28.181  56.835  1.00  0.00     0.002 A 
HETATM   13  C   UNL     1       5.276  27.859  57.124  1.00  0.00     0.033 A 
HETATM   14  C   UNL     1       5.359  26.734  56.299  1.00  0.00     0.039 A 
HETATM   15  C   UNL     1       6.569  26.326  55.735  1.00  0.00     0.070 A 
HETATM   16  C   UNL     1       7.743  27.041  56.002  1.00  0.00     0.051 A 
ENDROOT
BRANCH   1  17
HETATM   17  C   UNL     1       8.068  31.584  60.086  1.00  0.00    -0.021 A 
HETATM   18  C   UNL     1       8.511  30.919  61.237  1.00  0.00     0.012 A 
HETATM   19  C   UNL     1       8.014  31.264  62.500  1.00  0.00     0.038 A 
HETATM   20  C   UNL     1       7.045  32.261  62.641  1.00  0.00     0.076 A 
HETATM   21  C   UNL     1       6.555  32.909  61.496  1.00  0.00    -0.000 A 
HETATM   22  C   UNL     1       7.088  32.578  60.234  1.00  0.00     0.021 A 
BRANCH  20  23
HETATM   23  O   UNL     1       6.519  32.673  63.834  1.00  0.00    -0.355 OA
HETATM   24  C   UNL     1       7.358  33.407  64.718  1.00  0.00     0.210 C 
ENDBRANCH  20  23
BRANCH  21  25
HETATM   25  C   UNL     1       5.465  33.962  61.575  1.00  0.00     0.217 C 
BRANCH  25  26
HETATM   26  O   UNL     1       4.216  33.306  61.337  1.00  0.00    -0.347 OA
BRANCH  26  27
HETATM   27  C   UNL     1       3.957  32.910  60.055  1.00  0.00     0.069 A 
HETATM   28  C   UNL     1       3.669  31.554  59.908  1.00  0.00     0.039 A 
HETATM   29  C   UNL     1       3.397  31.010  58.647  1.00  0.00     0.032 A 
HETATM   30  C   UNL     1       3.421  31.817  57.511  1.00  0.00     0.034 A 
HETATM   31  C   UNL     1       3.715  33.178  57.662  1.00  0.00     0.032 A 
HETATM   32  C   UNL     1       3.983  33.723  58.925  1.00  0.00     0.039 A 
BRANCH  30  33
HETATM   33  N   UNL     1       3.167  31.350  56.204  1.00  0.00    -0.328 N 
HETATM   34  C   UNL     1       4.096  30.945  55.262  1.00  0.00     0.218 C 
HETATM   35  C   UNL     1       3.468  30.506  53.961  1.00  0.00     0.117 C 
HETATM   36  O   UNL     1       5.315  30.923  55.397  1.00  0.00    -0.274 OA
HETATM   37  H   UNL     1       2.194  31.315  55.929  1.00  0.00     0.169 HD
ENDBRANCH  30  33
ENDBRANCH  26  27
ENDBRANCH  25  26
ENDBRANCH  21  25
ENDBRANCH   1  17
BRANCH  15  38
HETATM   38  O   UNL     1       6.472  25.210  54.948  1.00  0.00    -0.347 OA
BRANCH  38  39
HETATM   39  C   UNL     1       7.626  24.826  54.204  1.00  0.00     0.214 C 
BRANCH  39  40
HETATM   40  C   UNL     1       7.741  23.322  54.241  1.00  0.00    -0.034 A 
HETATM   41  C   UNL     1       7.673  22.623  55.453  1.00  0.00     0.009 A 
HETATM   42  C   UNL     1       7.775  21.230  55.474  1.00  0.00     0.001 A 
HETATM   43  C   UNL     1       7.948  20.524  54.285  1.00  0.00     0.000 A 
HETATM   44  C   UNL     1       8.024  21.209  53.074  1.00  0.00     0.001 A 
HETATM   45  C   UNL     1       7.923  22.601  53.051  1.00  0.00     0.009 A 
ENDBRANCH  39  40
ENDBRANCH  38  39
ENDBRANCH  15  38
TORSDOF 9
ENDMDL
MODEL 4
REMARK VINA RESULT:     -11.6      2.114     13.120
REMARK  9 active torsions:
REMARK  status: ('A' for Active; 'I' for Inactive)
REMARK       I    between atoms: C_2  and  N_3 
REMARK    1  A    between atoms: N_3  and  C_4 
REMARK    2  A    between atoms: C_7  and  O_8 
REMARK    3  A    between atoms: O_8  and  C_9 
REMARK    4  A    between atoms: C_9  and  C_10 
REMARK    5  A    between atoms: C_11  and  O_12 
REMARK    6  A    between atoms: C_16  and  C_17 
REMARK    7  A    between atoms: C_31  and  O_32 
REMARK    8  A    between atoms: O_32  and  C_33 
REMARK    9  A    between atoms: C_33  and  C_34 
ROOT
HETATM    1  C   UNL     1       5.899  32.618  59.893  1.00  0.00     0.269 C 
HETATM    2  N   UNL     1       4.552  32.018  59.574  1.00  0.00    -0.061 N 
HETATM    3  H   UNL     1       4.565  31.040  59.881  1.00  0.00     0.278 HD
HETATM    4  H   UNL     1       4.440  32.005  58.554  1.00  0.00     0.278 HD
HETATM    5  C   UNL     1       3.399  32.730  60.238  1.00  0.00     0.238 C 
HETATM    6  C   UNL     1       3.497  32.631  61.772  1.00  0.00     0.069 C 
HETATM    7  C   UNL     1       4.893  32.891  62.229  1.00  0.00    -0.019 A 
HETATM    8  C   UNL     1       5.970  32.846  61.362  1.00  0.00     0.052 A 
HETATM    9  N   UNL     1       7.106  33.119  62.080  1.00  0.00    -0.356 N 
HETATM   10  H   UNL     1       8.054  33.157  61.721  1.00  0.00     0.166 HD
HETATM   11  C   UNL     1       6.775  33.348  63.398  1.00  0.00     0.043 A 
HETATM   12  C   UNL     1       5.389  33.218  63.520  1.00  0.00     0.002 A 
HETATM   13  C   UNL     1       7.597  33.664  64.481  1.00  0.00     0.033 A 
HETATM   14  C   UNL     1       6.981  33.860  65.721  1.00  0.00     0.039 A 
HETATM   15  C   UNL     1       5.599  33.750  65.880  1.00  0.00     0.070 A 
HETATM   16  C   UNL     1       4.792  33.423  64.784  1.00  0.00     0.051 A 
ENDROOT
BRANCH   1  17
HETATM   17  C   UNL     1       7.021  31.774  59.330  1.00  0.00    -0.021 A 
HETATM   18  C   UNL     1       8.371  32.062  59.569  1.00  0.00     0.012 A 
HETATM   19  C   UNL     1       9.381  31.246  59.044  1.00  0.00     0.038 A 
HETATM   20  C   UNL     1       9.068  30.140  58.248  1.00  0.00     0.076 A 
HETATM   21  C   UNL     1       7.723  29.860  57.960  1.00  0.00    -0.000 A 
HETATM   22  C   UNL     1       6.713  30.668  58.522  1.00  0.00     0.021 A 
BRANCH  20  23
HETATM   23  O   UNL     1       9.987  29.282  57.712  1.00  0.00    -0.355 OA
HETATM   24  C   UNL     1      10.747  29.728  56.594  1.00  0.00     0.210 C 
ENDBRANCH  20  23
BRANCH  21  25
HETATM   25  C   UNL     1       7.319  28.708  57.059  1.00  0.00     0.217 C 
BRANCH  25  26
HETATM   26  O   UNL     1       7.239  27.534  57.873  1.00  0.00    -0.347 OA
BRANCH  26  27
HETATM   27  C   UNL     1       7.374  26.330  57.240  1.00  0.00     0.069 A 
HETATM   28  C   UNL     1       6.294  25.968  56.436  1.00  0.00     0.039 A 
HETATM   29  C   UNL     1       6.293  24.754  55.739  1.00  0.00     0.032 A 
HETATM   30  C   UNL     1       7.372  23.878  55.846  1.00  0.00     0.034 A 
HETATM   31  C   UNL     1       8.454  24.244  56.657  1.00  0.00     0.032 A 
HETATM   32  C   UNL     1       8.456  25.461  57.352  1.00  0.00     0.039 A 
BRANCH  30  33
HETATM   33  N   UNL     1       7.449  22.634  55.185  1.00  0.00    -0.328 N 
HETATM   34  C   UNL     1       7.884  22.395  53.894  1.00  0.00     0.218 C 
HETATM   35  C   UNL     1       7.831  20.935  53.511  1.00  0.00     0.117 C 
HETATM   36  O   UNL     1       8.279  23.231  53.087  1.00  0.00    -0.274 OA
HETATM   37  H   UNL     1       7.146  21.831  55.721  1.00  0.00     0.169 HD
ENDBRANCH  30  33
ENDBRANCH  26  27
ENDBRANCH  25  26
ENDBRANCH  21  25
ENDBRANCH   1  17
BRANCH  15  38
HETATM   38  O   UNL     1       5.161  33.978  67.157  1.00  0.00    -0.347 OA
BRANCH  38  39
HETATM   39  C   UNL     1       5.703  35.101  67.848  1.00  0.00     0.214 C 
BRANCH  39  40
HETATM   40  C   UNL     1       6.526  34.595  69.009  1.00  0.00    -0.034 A 
HETATM   41  C   UNL     1       7.782  35.146  69.296  1.00  0.00     0.009 A 
HETATM   42  C   UNL     1       8.531  34.674  70.376  1.00  0.00     0.001 A 
HETATM   43  C   UNL     1       8.035  33.646  71.175  1.00  0.00     0.000 A 
HETATM   44  C   UNL     1       6.790  33.085  70.894  1.00  0.00     0.001 A 
HETATM   45  C   UNL     1       6.040  33.555  69.816  1.00  0.00     0.009 A 
ENDBRANCH  39  40
ENDBRANCH  38  39
ENDBRANCH  15  38
TORSDOF 9
ENDMDL
MODEL 5
REMARK VINA RESULT:     -11.4      3.167      6.348
REMARK  9 active torsions:
REMARK  status: ('A' for Active; 'I' for Inactive)
REMARK       I    between atoms: C_2  and  N_3 
REMARK    1  A    between atoms: N_3  and  C_4 
REMARK    2  A    between atoms: C_7  and  O_8 
REMARK    3  A    between atoms: O_8  and  C_9 
REMARK    4  A    between atoms: C_9  and  C_10 
REMARK    5  A    between atoms: C_11  and  O_12 
REMARK    6  A    between atoms: C_16  and  C_17 
REMARK    7  A    between atoms: C_31  and  O_32 
REMARK    8  A    between atoms: O_32  and  C_33 
REMARK    9  A    between atoms: C_33  and  C_34 
ROOT
HETATM    1  C   UNL     1       8.624  31.206  58.651  1.00  0.00     0.269 C 
HETATM    2  N   UNL     1      10.122  31.024  58.643  1.00  0.00    -0.061 N 
HETATM    3  H   UNL     1      10.357  30.338  59.368  1.00  0.00     0.278 HD
HETATM    4  H   UNL     1      10.554  31.911  58.925  1.00  0.00     0.278 HD
HETATM    5  C   UNL     1      10.667  30.551  57.318  1.00  0.00     0.238 C 
HETATM    6  C   UNL     1      10.121  29.155  56.961  1.00  0.00     0.069 C 
HETATM    7  C   UNL     1       8.656  29.079  57.231  1.00  0.00    -0.019 A 
HETATM    8  C   UNL     1       8.007  30.003  58.029  1.00  0.00     0.052 A 
HETATM    9  N   UNL     1       6.681  29.657  58.089  1.00  0.00    -0.356 N 
HETATM   10  H   UNL     1       5.951  30.143  58.599  1.00  0.00     0.166 HD
HETATM   11  C   UNL     1       6.465  28.526  57.331  1.00  0.00     0.043 A 
HETATM   12  C   UNL     1       7.688  28.143  56.775  1.00  0.00     0.002 A 
HETATM   13  C   UNL     1       5.282  27.823  57.097  1.00  0.00     0.033 A 
HETATM   14  C   UNL     1       5.353  26.702  56.265  1.00  0.00     0.039 A 
HETATM   15  C   UNL     1       6.553  26.296  55.681  1.00  0.00     0.070 A 
HETATM   16  C   UNL     1       7.732  27.008  55.935  1.00  0.00     0.051 A 
ENDROOT
BRANCH   1  17
HETATM   17  C   UNL     1       8.120  31.528  60.040  1.00  0.00    -0.021 A 
HETATM   18  C   UNL     1       8.654  30.932  61.190  1.00  0.00     0.012 A 
HETATM   19  C   UNL     1       8.171  31.268  62.461  1.00  0.00     0.038 A 
HETATM   20  C   UNL     1       7.129  32.187  62.612  1.00  0.00     0.076 A 
HETATM   21  C   UNL     1       6.550  32.763  61.470  1.00  0.00    -0.000 A 
HETATM   22  C   UNL     1       7.067  32.442  60.197  1.00  0.00     0.021 A 
BRANCH  20  23
HETATM   23  O   UNL     1       6.610  32.586  63.812  1.00  0.00    -0.355 OA
HETATM   24  C   UNL     1       7.410  33.420  64.643  1.00  0.00     0.210 C 
ENDBRANCH  20  23
BRANCH  21  25
HETATM   25  C   UNL     1       5.381  33.725  61.561  1.00  0.00     0.217 C 
BRANCH  25  26
HETATM   26  O   UNL     1       4.244  33.076  60.983  1.00  0.00    -0.347 OA
BRANCH  26  27
HETATM   27  C   UNL     1       3.708  33.646  59.863  1.00  0.00     0.069 A 
HETATM   28  C   UNL     1       2.875  34.738  60.104  1.00  0.00     0.039 A 
HETATM   29  C   UNL     1       2.248  35.410  59.048  1.00  0.00     0.032 A 
HETATM   30  C   UNL     1       2.439  34.990  57.732  1.00  0.00     0.034 A 
HETATM   31  C   UNL     1       3.273  33.890  57.494  1.00  0.00     0.032 A 
HETATM   32  C   UNL     1       3.904  33.220  58.551  1.00  0.00     0.039 A 
BRANCH  30  33
HETATM   33  N   UNL     1       1.841  35.604  56.611  1.00  0.00    -0.328 N 
HETATM   34  C   UNL     1       0.548  35.433  56.151  1.00  0.00     0.218 C 
HETATM   35  C   UNL     1       0.245  36.249  54.917  1.00  0.00     0.117 C 
HETATM   36  O   UNL     1      -0.314  34.708  56.638  1.00  0.00    -0.274 OA
HETATM   37  H   UNL     1       2.432  36.235  56.087  1.00  0.00     0.169 HD
ENDBRANCH  30  33
ENDBRANCH  26  27
ENDBRANCH  25  26
ENDBRANCH  21  25
ENDBRANCH   1  17
BRANCH  15  38
HETATM   38  O   UNL     1       6.444  25.184  54.889  1.00  0.00    -0.347 OA
BRANCH  38  39
HETATM   39  C   UNL     1       7.591  24.796  54.137  1.00  0.00     0.214 C 
BRANCH  39  40
HETATM   40  C   UNL     1       7.718  23.294  54.199  1.00  0.00    -0.034 A 
HETATM   41  C   UNL     1       7.692  22.618  55.426  1.00  0.00     0.009 A 
HETATM   42  C   UNL     1       7.805  21.227  55.470  1.00  0.00     0.001 A 
HETATM   43  C   UNL     1       7.949  20.499  54.291  1.00  0.00     0.000 A 
HETATM   44  C   UNL     1       7.983  21.161  53.065  1.00  0.00     0.001 A 
HETATM   45  C   UNL     1       7.871  22.551  53.018  1.00  0.00     0.009 A 
ENDBRANCH  39  40
ENDBRANCH  38  39
ENDBRANCH  15  38
TORSDOF 9
ENDMDL
MODEL 6
REMARK VINA RESULT:     -10.9      1.706      2.554
REMARK  9 active torsions:
REMARK  status: ('A' for Active; 'I' for Inactive)
REMARK       I    between atoms: C_2  and  N_3 
REMARK    1  A    between atoms: N_3  and  C_4 
REMARK    2  A    between atoms: C_7  and  O_8 
REMARK    3  A    between atoms: O_8  and  C_9 
REMARK    4  A    between atoms: C_9  and  C_10 
REMARK    5  A    between atoms: C_11  and  O_12 
REMARK    6  A    between atoms: C_16  and  C_17 
REMARK    7  A    between atoms: C_31  and  O_32 
REMARK    8  A    between atoms: O_32  and  C_33 
REMARK    9  A    between atoms: C_33  and  C_34 
ROOT
HETATM    1  C   UNL     1       6.788  31.153  57.630  1.00  0.00     0.269 C 
HETATM    2  N   UNL     1       7.679  30.731  58.772  1.00  0.00    -0.061 N 
HETATM    3  H   UNL     1       7.090  30.275  59.476  1.00  0.00     0.278 HD
HETATM    4  H   UNL     1       8.061  31.577  59.210  1.00  0.00     0.278 HD
HETATM    5  C   UNL     1       8.781  29.786  58.362  1.00  0.00     0.238 C 
HETATM    6  C   UNL     1       8.204  28.459  57.831  1.00  0.00     0.069 C 
HETATM    7  C   UNL     1       7.063  28.715  56.905  1.00  0.00    -0.019 A 
HETATM    8  C   UNL     1       6.415  29.936  56.857  1.00  0.00     0.052 A 
HETATM    9  N   UNL     1       5.416  29.852  55.922  1.00  0.00    -0.356 N 
HETATM   10  H   UNL     1       4.767  30.586  55.662  1.00  0.00     0.166 HD
HETATM   11  C   UNL     1       5.416  28.594  55.359  1.00  0.00     0.043 A 
HETATM   12  C   UNL     1       6.445  27.859  55.953  1.00  0.00     0.002 A 
HETATM   13  C   UNL     1       4.588  28.059  54.370  1.00  0.00     0.033 A 
HETATM   14  C   UNL     1       4.827  26.740  53.974  1.00  0.00     0.039 A 
HETATM   15  C   UNL     1       5.852  25.979  54.536  1.00  0.00     0.070 A 
HETATM   16  C   UNL     1       6.666  26.528  55.533  1.00  0.00     0.051 A 
ENDROOT
BRANCH   1  17
HETATM   17  C   UNL     1       5.615  31.970  58.125  1.00  0.00    -0.021 A 
HETATM   18  C   UNL     1       4.823  32.745  57.267  1.00  0.00     0.012 A 
HETATM   19  C   UNL     1       3.735  33.474  57.762  1.00  0.00     0.038 A 
HETATM   20  C   UNL     1       3.427  33.468  59.125  1.00  0.00     0.076 A 
HETATM   21  C   UNL     1       4.234  32.733  60.008  1.00  0.00    -0.000 A 
HETATM   22  C   UNL     1       5.307  31.975  59.494  1.00  0.00     0.021 A 
BRANCH  20  23
HETATM   23  O   UNL     1       2.375  34.135  59.689  1.00  0.00    -0.355 OA
HETATM   24  C   UNL     1       1.867  35.278  59.012  1.00  0.00     0.210 C 
ENDBRANCH  20  23
BRANCH  21  25
HETATM   25  C   UNL     1       3.987  32.728  61.505  1.00  0.00     0.217 C 
BRANCH  25  26
HETATM   26  O   UNL     1       5.211  32.347  62.141  1.00  0.00    -0.347 OA
BRANCH  26  27
HETATM   27  C   UNL     1       5.472  32.898  63.363  1.00  0.00     0.069 A 
HETATM   28  C   UNL     1       6.823  32.949  63.705  1.00  0.00     0.039 A 
HETATM   29  C   UNL     1       7.234  33.477  64.935  1.00  0.00     0.032 A 
HETATM   30  C   UNL     1       6.293  33.954  65.847  1.00  0.00     0.034 A 
HETATM   31  C   UNL     1       4.937  33.899  65.501  1.00  0.00     0.032 A 
HETATM   32  C   UNL     1       4.527  33.374  64.268  1.00  0.00     0.039 A 
BRANCH  30  33
HETATM   33  N   UNL     1       6.619  34.495  67.109  1.00  0.00    -0.328 N 
HETATM   34  C   UNL     1       5.895  34.382  68.282  1.00  0.00     0.218 C 
HETATM   35  C   UNL     1       6.542  35.092  69.448  1.00  0.00     0.117 C 
HETATM   36  O   UNL     1       4.831  33.790  68.433  1.00  0.00    -0.274 OA
HETATM   37  H   UNL     1       7.478  35.029  67.152  1.00  0.00     0.169 HD
ENDBRANCH  30  33
ENDBRANCH  26  27
ENDBRANCH  25  26
ENDBRANCH  21  25
ENDBRANCH   1  17
BRANCH  15  38
HETATM   38  O   UNL     1       5.951  24.711  54.029  1.00  0.00    -0.347 OA
BRANCH  38  39
HETATM   39  C   UNL     1       7.193  24.331  53.442  1.00  0.00     0.214 C 
BRANCH  39  40
HETATM   40  C   UNL     1       7.536  22.937  53.909  1.00  0.00    -0.034 A 
HETATM   41  C   UNL     1       7.427  22.581  55.260  1.00  0.00     0.009 A 
HETATM   42  C   UNL     1       7.742  21.287  55.678  1.00  0.00     0.001 A 
HETATM   43  C   UNL     1       8.171  20.338  54.753  1.00  0.00     0.000 A 
HETATM   44  C   UNL     1       8.291  20.682  53.408  1.00  0.00     0.001 A 
HETATM   45  C   UNL     1       7.977  21.975  52.987  1.00  0.00     0.009 A 
ENDBRANCH  39  40
ENDBRANCH  38  39
ENDBRANCH  15  38
TORSDOF 9
ENDMDL
MODEL 7
REMARK VINA RESULT:     -10.7      3.097     13.323
REMARK  9 active torsions:
REMARK  status: ('A' for Active; 'I' for Inactive)
REMARK       I    between atoms: C_2  and  N_3 
REMARK    1  A    between atoms: N_3  and  C_4 
REMARK    2  A    between atoms: C_7  and  O_8 
REMARK    3  A    between atoms: O_8  and  C_9 
REMARK    4  A    between atoms: C_9  and  C_10 
REMARK    5  A    between atoms: C_11  and  O_12 
REMARK    6  A    between atoms: C_16  and  C_17 
REMARK    7  A    between atoms: C_31  and  O_32 
REMARK    8  A    between atoms: O_32  and  C_33 
REMARK    9  A    between atoms: C_33  and  C_34 
ROOT
HETATM    1  C   UNL     1       7.052  29.939  56.991  1.00  0.00     0.269 C 
HETATM    2  N   UNL     1       5.683  30.264  56.447  1.00  0.00    -0.061 N 
HETATM    3  H   UNL     1       5.002  29.682  56.946  1.00  0.00     0.278 HD
HETATM    4  H   UNL     1       5.652  29.974  55.463  1.00  0.00     0.278 HD
HETATM    5  C   UNL     1       5.299  31.715  56.599  1.00  0.00     0.238 C 
HETATM    6  C   UNL     1       5.213  32.113  58.085  1.00  0.00     0.069 C 
HETATM    7  C   UNL     1       6.376  31.568  58.843  1.00  0.00    -0.019 A 
HETATM    8  C   UNL     1       7.175  30.559  58.339  1.00  0.00     0.052 A 
HETATM    9  N   UNL     1       8.144  30.277  59.268  1.00  0.00    -0.356 N 
HETATM   10  H   UNL     1       8.877  29.581  59.186  1.00  0.00     0.166 HD
HETATM   11  C   UNL     1       7.986  31.099  60.362  1.00  0.00     0.043 A 
HETATM   12  C   UNL     1       6.886  31.926  60.121  1.00  0.00     0.002 A 
HETATM   13  C   UNL     1       8.735  31.173  61.538  1.00  0.00     0.033 A 
HETATM   14  C   UNL     1       8.352  32.124  62.488  1.00  0.00     0.039 A 
HETATM   15  C   UNL     1       7.267  32.975  62.278  1.00  0.00     0.070 A 
HETATM   16  C   UNL     1       6.521  32.881  61.097  1.00  0.00     0.051 A 
ENDROOT
BRANCH   1  17
HETATM   17  C   UNL     1       7.316  28.451  56.953  1.00  0.00    -0.021 A 
HETATM   18  C   UNL     1       8.585  27.906  57.195  1.00  0.00     0.012 A 
HETATM   19  C   UNL     1       8.786  26.520  57.168  1.00  0.00     0.038 A 
HETATM   20  C   UNL     1       7.733  25.649  56.874  1.00  0.00     0.076 A 
HETATM   21  C   UNL     1       6.465  26.176  56.585  1.00  0.00    -0.000 A 
HETATM   22  C   UNL     1       6.266  27.571  56.649  1.00  0.00     0.021 A 
BRANCH  20  23
HETATM   23  O   UNL     1       7.837  24.286  56.844  1.00  0.00    -0.355 OA
HETATM   24  C   UNL     1       8.815  23.707  55.989  1.00  0.00     0.210 C 
ENDBRANCH  20  23
BRANCH  21  25
HETATM   25  C   UNL     1       5.295  25.288  56.206  1.00  0.00     0.217 C 
BRANCH  25  26
HETATM   26  O   UNL     1       5.665  24.570  55.025  1.00  0.00    -0.347 OA
BRANCH  26  27
HETATM   27  C   UNL     1       5.582  25.243  53.839  1.00  0.00     0.069 A 
HETATM   28  C   UNL     1       6.534  24.873  52.889  1.00  0.00     0.039 A 
HETATM   29  C   UNL     1       6.573  25.491  51.633  1.00  0.00     0.032 A 
HETATM   30  C   UNL     1       5.663  26.497  51.313  1.00  0.00     0.034 A 
HETATM   31  C   UNL     1       4.710  26.867  52.270  1.00  0.00     0.032 A 
HETATM   32  C   UNL     1       4.669  26.246  53.526  1.00  0.00     0.039 A 
BRANCH  30  33
HETATM   33  N   UNL     1       5.636  27.175  50.076  1.00  0.00    -0.328 N 
HETATM   34  C   UNL     1       4.809  26.920  48.997  1.00  0.00     0.218 C 
HETATM   35  C   UNL     1       5.058  27.845  47.829  1.00  0.00     0.117 C 
HETATM   36  O   UNL     1       3.948  26.050  48.923  1.00  0.00    -0.274 OA
HETATM   37  H   UNL     1       6.304  27.928  49.972  1.00  0.00     0.169 HD
ENDBRANCH  30  33
ENDBRANCH  26  27
ENDBRANCH  25  26
ENDBRANCH  21  25
ENDBRANCH   1  17
BRANCH  15  38
HETATM   38  O   UNL     1       7.033  33.850  63.305  1.00  0.00    -0.347 OA
BRANCH  38  39
HETATM   39  C   UNL     1       7.507  33.489  64.599  1.00  0.00     0.214 C 
BRANCH  39  40
HETATM   40  C   UNL     1       6.445  33.839  65.613  1.00  0.00    -0.034 A 
HETATM   41  C   UNL     1       6.789  34.213  66.918  1.00  0.00     0.009 A 
HETATM   42  C   UNL     1       5.797  34.540  67.845  1.00  0.00     0.001 A 
HETATM   43  C   UNL     1       4.454  34.492  67.478  1.00  0.00     0.000 A 
HETATM   44  C   UNL     1       4.099  34.114  66.185  1.00  0.00     0.001 A 
HETATM   45  C   UNL     1       5.089  33.786  65.257  1.00  0.00     0.009 A 
ENDBRANCH  39  40
ENDBRANCH  38  39
ENDBRANCH  15  38
TORSDOF 9
ENDMDL
MODEL 8
REMARK VINA RESULT:     -10.7      2.639     12.904
REMARK  9 active torsions:
REMARK  status: ('A' for Active; 'I' for Inactive)
REMARK       I    between atoms: C_2  and  N_3 
REMARK    1  A    between atoms: N_3  and  C_4 
REMARK    2  A    between atoms: C_7  and  O_8 
REMARK    3  A    between atoms: O_8  and  C_9 
REMARK    4  A    between atoms: C_9  and  C_10 
REMARK    5  A    between atoms: C_11  and  O_12 
REMARK    6  A    between atoms: C_16  and  C_17 
REMARK    7  A    between atoms: C_31  and  O_32 
REMARK    8  A    between atoms: O_32  and  C_33 
REMARK    9  A    between atoms: C_33  and  C_34 
ROOT
HETATM    1  C   UNL     1       7.581  30.895  59.651  1.00  0.00     0.269 C 
HETATM    2  N   UNL     1       8.986  31.276  59.253  1.00  0.00    -0.061 N 
HETATM    3  H   UNL     1       8.963  32.242  58.913  1.00  0.00     0.278 HD
HETATM    4  H   UNL     1       9.263  30.690  58.457  1.00  0.00     0.278 HD
HETATM    5  C   UNL     1       9.984  31.171  60.379  1.00  0.00     0.238 C 
HETATM    6  C   UNL     1       9.641  32.153  61.517  1.00  0.00     0.069 C 
HETATM    7  C   UNL     1       8.179  32.123  61.814  1.00  0.00    -0.019 A 
HETATM    8  C   UNL     1       7.261  31.577  60.935  1.00  0.00     0.052 A 
HETATM    9  N   UNL     1       6.013  31.710  61.487  1.00  0.00    -0.356 N 
HETATM   10  H   UNL     1       5.135  31.405  61.079  1.00  0.00     0.166 HD
HETATM   11  C   UNL     1       6.114  32.326  62.715  1.00  0.00     0.043 A 
HETATM   12  C   UNL     1       7.465  32.593  62.950  1.00  0.00     0.002 A 
HETATM   13  C   UNL     1       5.114  32.661  63.630  1.00  0.00     0.033 A 
HETATM   14  C   UNL     1       5.510  33.277  64.821  1.00  0.00     0.039 A 
HETATM   15  C   UNL     1       6.851  33.549  65.096  1.00  0.00     0.070 A 
HETATM   16  C   UNL     1       7.839  33.215  64.162  1.00  0.00     0.051 A 
ENDROOT
BRANCH   1  17
HETATM   17  C   UNL     1       6.602  31.168  58.531  1.00  0.00    -0.021 A 
HETATM   18  C   UNL     1       5.774  32.299  58.515  1.00  0.00     0.012 A 
HETATM   19  C   UNL     1       4.893  32.526  57.451  1.00  0.00     0.038 A 
HETATM   20  C   UNL     1       4.798  31.618  56.392  1.00  0.00     0.076 A 
HETATM   21  C   UNL     1       5.586  30.457  56.411  1.00  0.00    -0.000 A 
HETATM   22  C   UNL     1       6.495  30.256  57.470  1.00  0.00     0.021 A 
BRANCH  20  23
HETATM   23  O   UNL     1       3.980  31.770  55.307  1.00  0.00    -0.355 OA
HETATM   24  C   UNL     1       2.576  31.814  55.529  1.00  0.00     0.210 C 
ENDBRANCH  20  23
BRANCH  21  25
HETATM   25  C   UNL     1       5.492  29.406  55.321  1.00  0.00     0.217 C 
BRANCH  25  26
HETATM   26  O   UNL     1       4.894  28.241  55.898  1.00  0.00    -0.347 OA
BRANCH  26  27
HETATM   27  C   UNL     1       5.360  27.029  55.473  1.00  0.00     0.069 A 
HETATM   28  C   UNL     1       6.142  26.345  56.403  1.00  0.00     0.039 A 
HETATM   29  C   UNL     1       6.697  25.097  56.096  1.00  0.00     0.032 A 
HETATM   30  C   UNL     1       6.484  24.519  54.846  1.00  0.00     0.034 A 
HETATM   31  C   UNL     1       5.701  25.210  53.913  1.00  0.00     0.032 A 
HETATM   32  C   UNL     1       5.142  26.458  54.222  1.00  0.00     0.039 A 
BRANCH  30  33
HETATM   33  N   UNL     1       7.010  23.270  54.451  1.00  0.00    -0.328 N 
HETATM   34  C   UNL     1       7.878  23.019  53.404  1.00  0.00     0.218 C 
HETATM   35  C   UNL     1       8.234  21.557  53.268  1.00  0.00     0.117 C 
HETATM   36  O   UNL     1       8.344  23.843  52.624  1.00  0.00    -0.274 OA
HETATM   37  H   UNL     1       6.711  22.473  54.998  1.00  0.00     0.169 HD
ENDBRANCH  30  33
ENDBRANCH  26  27
ENDBRANCH  25  26
ENDBRANCH  21  25
ENDBRANCH   1  17
BRANCH  15  38
HETATM   38  O   UNL     1       7.065  34.149  66.308  1.00  0.00    -0.347 OA
BRANCH  38  39
HETATM   39  C   UNL     1       5.966  34.214  67.214  1.00  0.00     0.214 C 
BRANCH  39  40
HETATM   40  C   UNL     1       6.502  34.493  68.597  1.00  0.00    -0.034 A 
HETATM   41  C   UNL     1       7.874  34.672  68.815  1.00  0.00     0.009 A 
HETATM   42  C   UNL     1       8.357  34.936  70.099  1.00  0.00     0.001 A 
HETATM   43  C   UNL     1       7.476  35.020  71.175  1.00  0.00     0.000 A 
HETATM   44  C   UNL     1       6.110  34.836  70.970  1.00  0.00     0.001 A 
HETATM   45  C   UNL     1       5.624  34.572  69.689  1.00  0.00     0.009 A 
ENDBRANCH  39  40
ENDBRANCH  38  39
ENDBRANCH  15  38
TORSDOF 9
ENDMDL
MODEL 9
REMARK VINA RESULT:     -10.7      5.189     13.987
REMARK  9 active torsions:
REMARK  status: ('A' for Active; 'I' for Inactive)
REMARK       I    between atoms: C_2  and  N_3 
REMARK    1  A    between atoms: N_3  and  C_4 
REMARK    2  A    between atoms: C_7  and  O_8 
REMARK    3  A    between atoms: O_8  and  C_9 
REMARK    4  A    between atoms: C_9  and  C_10 
REMARK    5  A    between atoms: C_11  and  O_12 
REMARK    6  A    between atoms: C_16  and  C_17 
REMARK    7  A    between atoms: C_31  and  O_32 
REMARK    8  A    between atoms: O_32  and  C_33 
REMARK    9  A    between atoms: C_33  and  C_34 
ROOT
HETATM    1  C   UNL     1       5.148  28.819  55.343  1.00  0.00     0.269 C 
HETATM    2  N   UNL     1       3.757  28.815  55.927  1.00  0.00    -0.061 N 
HETATM    3  H   UNL     1       3.708  28.055  56.614  1.00  0.00     0.278 HD
HETATM    4  H   UNL     1       3.096  28.579  55.179  1.00  0.00     0.278 HD
HETATM    5  C   UNL     1       3.379  30.112  56.598  1.00  0.00     0.238 C 
HETATM    6  C   UNL     1       4.289  30.397  57.808  1.00  0.00     0.069 C 
HETATM    7  C   UNL     1       5.716  30.125  57.467  1.00  0.00    -0.019 A 
HETATM    8  C   UNL     1       6.078  29.378  56.362  1.00  0.00     0.052 A 
HETATM    9  N   UNL     1       7.447  29.302  56.329  1.00  0.00    -0.356 N 
HETATM   10  H   UNL     1       8.010  28.819  55.637  1.00  0.00     0.166 HD
HETATM   11  C   UNL     1       7.974  29.999  57.394  1.00  0.00     0.043 A 
HETATM   12  C   UNL     1       6.909  30.533  58.124  1.00  0.00     0.002 A 
HETATM   13  C   UNL     1       9.307  30.198  57.759  1.00  0.00     0.033 A 
HETATM   14  C   UNL     1       9.555  30.971  58.897  1.00  0.00     0.039 A 
HETATM   15  C   UNL     1       8.519  31.531  59.645  1.00  0.00     0.070 A 
HETATM   16  C   UNL     1       7.187  31.313  59.269  1.00  0.00     0.051 A 
ENDROOT
BRANCH   1  17
HETATM   17  C   UNL     1       5.527  27.449  54.826  1.00  0.00    -0.021 A 
HETATM   18  C   UNL     1       5.834  26.382  55.680  1.00  0.00     0.012 A 
HETATM   19  C   UNL     1       6.165  25.123  55.163  1.00  0.00     0.038 A 
HETATM   20  C   UNL     1       6.221  24.907  53.783  1.00  0.00     0.076 A 
HETATM   21  C   UNL     1       5.960  25.974  52.910  1.00  0.00    -0.000 A 
HETATM   22  C   UNL     1       5.595  27.228  53.442  1.00  0.00     0.021 A 
BRANCH  20  23
HETATM   23  O   UNL     1       6.516  23.709  53.194  1.00  0.00    -0.355 OA
HETATM   24  C   UNL     1       7.866  23.262  53.226  1.00  0.00     0.210 C 
ENDBRANCH  20  23
BRANCH  21  25
HETATM   25  C   UNL     1       6.058  25.821  51.404  1.00  0.00     0.217 C 
BRANCH  25  26
HETATM   26  O   UNL     1       5.692  27.074  50.819  1.00  0.00    -0.347 OA
BRANCH  26  27
HETATM   27  C   UNL     1       4.593  27.083  50.007  1.00  0.00     0.069 A 
HETATM   28  C   UNL     1       3.702  28.130  50.239  1.00  0.00     0.039 A 
HETATM   29  C   UNL     1       2.527  28.253  49.489  1.00  0.00     0.032 A 
HETATM   30  C   UNL     1       2.221  27.321  48.499  1.00  0.00     0.034 A 
HETATM   31  C   UNL     1       3.117  26.269  48.270  1.00  0.00     0.032 A 
HETATM   32  C   UNL     1       4.295  26.148  49.019  1.00  0.00     0.039 A 
BRANCH  30  33
HETATM   33  N   UNL     1       1.057  27.366  47.702  1.00  0.00    -0.328 N 
HETATM   34  C   UNL     1       0.735  28.305  46.740  1.00  0.00     0.218 C 
HETATM   35  C   UNL     1      -0.599  28.044  46.081  1.00  0.00     0.117 C 
HETATM   36  O   UNL     1       1.408  29.275  46.408  1.00  0.00    -0.274 OA
HETATM   37  H   UNL     1       0.384  26.627  47.863  1.00  0.00     0.169 HD
ENDBRANCH  30  33
ENDBRANCH  26  27
ENDBRANCH  25  26
ENDBRANCH  21  25
ENDBRANCH   1  17
BRANCH  15  38
HETATM   38  O   UNL     1       8.937  32.263  60.723  1.00  0.00    -0.347 OA
BRANCH  38  39
HETATM   39  C   UNL     1       8.646  31.751  62.021  1.00  0.00     0.214 C 
BRANCH  39  40
HETATM   40  C   UNL     1       7.789  32.757  62.751  1.00  0.00    -0.034 A 
HETATM   41  C   UNL     1       7.890  32.917  64.139  1.00  0.00     0.009 A 
HETATM   42  C   UNL     1       7.096  33.855  64.802  1.00  0.00     0.001 A 
HETATM   43  C   UNL     1       6.192  34.637  64.086  1.00  0.00     0.000 A 
HETATM   44  C   UNL     1       6.077  34.480  62.706  1.00  0.00     0.001 A 
HETATM   45  C   UNL     1       6.869  33.544  62.041  1.00  0.00     0.009 A 
ENDBRANCH  39  40
ENDBRANCH  38  39
ENDBRANCH  15  38
TORSDOF 9
ENDMDL
MODEL 10
REMARK VINA RESULT:     -10.5      2.729      4.745
REMARK  9 active torsions:
REMARK  status: ('A' for Active; 'I' for Inactive)
REMARK       I    between atoms: C_2  and  N_3 
REMARK    1  A    between atoms: N_3  and  C_4 
REMARK    2  A    between atoms: C_7  and  O_8 
REMARK    3  A    between atoms: O_8  and  C_9 
REMARK    4  A    between atoms: C_9  and  C_10 
REMARK    5  A    between atoms: C_11  and  O_12 
REMARK    6  A    between atoms: C_16  and  C_17 
REMARK    7  A    between atoms: C_31  and  O_32 
REMARK    8  A    between atoms: O_32  and  C_33 
REMARK    9  A    between atoms: C_33  and  C_34 
ROOT
HETATM    1  C   UNL     1       7.976  32.059  59.646  1.00  0.00     0.269 C 
HETATM    2  N   UNL     1       9.458  31.894  59.878  1.00  0.00    -0.061 N 
HETATM    3  H   UNL     1       9.585  31.135  60.555  1.00  0.00     0.278 HD
HETATM    4  H   UNL     1       9.809  32.749  60.325  1.00  0.00     0.278 HD
HETATM    5  C   UNL     1      10.236  31.577  58.625  1.00  0.00     0.238 C 
HETATM    6  C   UNL     1       9.800  30.224  58.030  1.00  0.00     0.069 C 
HETATM    7  C   UNL     1       8.313  30.103  58.033  1.00  0.00    -0.019 A 
HETATM    8  C   UNL     1       7.510  30.926  58.801  1.00  0.00     0.052 A 
HETATM    9  N   UNL     1       6.204  30.562  58.592  1.00  0.00    -0.356 N 
HETATM   10  H   UNL     1       5.384  30.981  59.017  1.00  0.00     0.166 HD
HETATM   11  C   UNL     1       6.154  29.520  57.692  1.00  0.00     0.043 A 
HETATM   12  C   UNL     1       7.465  29.214  57.318  1.00  0.00     0.002 A 
HETATM   13  C   UNL     1       5.050  28.835  57.182  1.00  0.00     0.033 A 
HETATM   14  C   UNL     1       5.295  27.814  56.258  1.00  0.00     0.039 A 
HETATM   15  C   UNL     1       6.589  27.487  55.851  1.00  0.00     0.070 A 
HETATM   16  C   UNL     1       7.685  28.179  56.381  1.00  0.00     0.051 A 
ENDROOT
BRANCH   1  17
HETATM   17  C   UNL     1       7.232  32.219  60.953  1.00  0.00    -0.021 A 
HETATM   18  C   UNL     1       7.877  32.168  62.196  1.00  0.00     0.012 A 
HETATM   19  C   UNL     1       7.156  32.337  63.384  1.00  0.00     0.038 A 
HETATM   20  C   UNL     1       5.772  32.536  63.361  1.00  0.00     0.076 A 
HETATM   21  C   UNL     1       5.101  32.547  62.129  1.00  0.00    -0.000 A 
HETATM   22  C   UNL     1       5.842  32.409  60.937  1.00  0.00     0.021 A 
BRANCH  20  23
HETATM   23  O   UNL     1       4.995  32.729  64.469  1.00  0.00    -0.355 OA
HETATM   24  C   UNL     1       5.315  33.815  65.331  1.00  0.00     0.210 C 
ENDBRANCH  20  23
BRANCH  21  25
HETATM   25  C   UNL     1       3.595  32.704  62.038  1.00  0.00     0.217 C 
BRANCH  25  26
HETATM   26  O   UNL     1       3.317  33.552  60.919  1.00  0.00    -0.347 OA
BRANCH  26  27
HETATM   27  C   UNL     1       3.576  34.885  61.072  1.00  0.00     0.069 A 
HETATM   28  C   UNL     1       3.276  35.398  62.334  1.00  0.00     0.039 A 
HETATM   29  C   UNL     1       3.480  36.752  62.625  1.00  0.00     0.032 A 
HETATM   30  C   UNL     1       3.979  37.616  61.652  1.00  0.00     0.034 A 
HETATM   31  C   UNL     1       4.277  37.097  60.386  1.00  0.00     0.032 A 
HETATM   32  C   UNL     1       4.076  35.741  60.095  1.00  0.00     0.039 A 
BRANCH  30  33
HETATM   33  N   UNL     1       4.207  38.993  61.859  1.00  0.00    -0.328 N 
HETATM   34  C   UNL     1       3.368  40.041  61.529  1.00  0.00     0.218 C 
HETATM   35  C   UNL     1       3.935  41.392  61.894  1.00  0.00     0.117 C 
HETATM   36  O   UNL     1       2.269  39.959  60.990  1.00  0.00    -0.274 OA
HETATM   37  H   UNL     1       5.089  39.233  62.293  1.00  0.00     0.169 HD
ENDBRANCH  30  33
ENDBRANCH  26  27
ENDBRANCH  25  26
ENDBRANCH  21  25
ENDBRANCH   1  17
BRANCH  15  38
HETATM   38  O   UNL     1       6.650  26.470  54.938  1.00  0.00    -0.347 OA
BRANCH  38  39
HETATM   39  C   UNL     1       6.150  25.196  55.336  1.00  0.00     0.214 C 
BRANCH  39  40
HETATM   40  C   UNL     1       7.061  24.129  54.780  1.00  0.00    -0.034 A 
HETATM   41  C   UNL     1       7.996  23.480  55.598  1.00  0.00     0.009 A 
HETATM   42  C   UNL     1       8.829  22.491  55.072  1.00  0.00     0.001 A 
HETATM   43  C   UNL     1       8.740  22.144  53.725  1.00  0.00     0.000 A 
HETATM   44  C   UNL     1       7.820  22.788  52.901  1.00  0.00     0.001 A 
HETATM   45  C   UNL     1       6.986  23.777  53.423  1.00  0.00     0.009 A 
ENDBRANCH  39  40
ENDBRANCH  38  39
ENDBRANCH  15  38
TORSDOF 9
ENDMDL
