MODEL 1
REMARK VINA RESULT:     -10.7      0.000      0.000
REMARK  5 active torsions:
REMARK  status: ('A' for Active; 'I' for Inactive)
REMARK    1  A    between atoms: C_2  and  O_3 
REMARK    2  A    between atoms: O_3  and  C_4 
REMARK    3  A    between atoms: C_7  and  C_8 
REMARK       I    between atoms: N_11  and  C_12 
REMARK    4  A    between atoms: C_12  and  C_13 
REMARK    5  A    between atoms: C_16  and  C_17 
ROOT
HETATM    1  C   UNL     1       8.194  28.171  56.683  1.00  0.00    -0.049 C 
HETATM    2  C   UNL     1       9.207  29.165  56.166  1.00  0.00     0.059 C 
HETATM    3  C   UNL     1       9.870  29.962  57.288  1.00  0.00     0.131 C 
HETATM    4  N   UNL     1       8.908  30.455  58.268  1.00  0.00    -0.344 N 
HETATM    5  C   UNL     1       9.261  31.628  58.948  1.00  0.00     0.254 C 
HETATM    6  O   UNL     1      10.222  32.331  58.646  1.00  0.00    -0.267 OA
HETATM    7  C   UNL     1       8.022  29.456  58.862  1.00  0.00     0.154 C 
HETATM    8  C   UNL     1       7.675  28.345  57.915  1.00  0.00     0.001 C 
ENDROOT
BRANCH   5   9
HETATM    9  C   UNL     1       8.481  32.028  60.139  1.00  0.00     0.032 A 
HETATM   10  C   UNL     1       9.079  31.897  61.395  1.00  0.00     0.018 A 
HETATM   11  C   UNL     1       8.358  32.233  62.543  1.00  0.00     0.016 A 
HETATM   12  C   UNL     1       7.040  32.706  62.447  1.00  0.00     0.014 A 
HETATM   13  C   UNL     1       6.469  32.872  61.174  1.00  0.00     0.016 A 
HETATM   14  C   UNL     1       7.190  32.547  60.020  1.00  0.00     0.018 A 
BRANCH  12  15
HETATM   15  C   UNL     1       6.265  33.002  63.648  1.00  0.00     0.181 A 
HETATM   16  N   UNL     1       4.950  32.761  63.775  1.00  0.00    -0.152 NA
HETATM   17  N   UNL     1       4.695  33.227  65.005  1.00  0.00    -0.263 N 
HETATM   18  H   UNL     1       3.752  33.171  65.372  1.00  0.00     0.190 HD
HETATM   19  C   UNL     1       5.815  33.744  65.587  1.00  0.00     0.118 A 
HETATM   20  C   UNL     1       5.821  34.367  66.926  1.00  0.00     0.093 C 
HETATM   21  N   UNL     1       6.825  33.606  64.757  1.00  0.00    -0.212 NA
ENDBRANCH  12  15
ENDBRANCH   5   9
BRANCH   1  22
HETATM   22  C   UNL     1       7.795  27.044  55.801  1.00  0.00    -0.030 A 
HETATM   23  C   UNL     1       7.504  27.254  54.443  1.00  0.00     0.014 A 
HETATM   24  C   UNL     1       7.162  26.192  53.593  1.00  0.00     0.037 A 
HETATM   25  C   UNL     1       7.100  24.892  54.084  1.00  0.00     0.068 A 
HETATM   26  C   UNL     1       7.377  24.666  55.431  1.00  0.00     0.037 A 
HETATM   27  C   UNL     1       7.730  25.725  56.275  1.00  0.00     0.014 A 
BRANCH  25  28
HETATM   28  O   UNL     1       6.780  23.772  53.368  1.00  0.00    -0.352 OA
BRANCH  28  29
HETATM   29  C   UNL     1       7.859  23.053  52.774  1.00  0.00     0.171 C 
HETATM   30  C   UNL     1       7.810  21.626  53.290  1.00  0.00     0.034 C 
ENDBRANCH  28  29
ENDBRANCH  25  28
ENDBRANCH   1  22
TORSDOF 5
ENDMDL
MODEL 2
REMARK VINA RESULT:     -10.2      0.389      1.315
REMARK  5 active torsions:
REMARK  status: ('A' for Active; 'I' for Inactive)
REMARK    1  A    between atoms: C_2  and  O_3 
REMARK    2  A    between atoms: O_3  and  C_4 
REMARK    3  A    between atoms: C_7  and  C_8 
REMARK       I    between atoms: N_11  and  C_12 
REMARK    4  A    between atoms: C_12  and  C_13 
REMARK    5  A    between atoms: C_16  and  C_17 
ROOT
HETATM    1  C   UNL     1       8.144  28.318  56.634  1.00  0.00    -0.049 C 
HETATM    2  C   UNL     1       9.112  29.372  56.152  1.00  0.00     0.059 C 
HETATM    3  C   UNL     1       9.792  30.113  57.301  1.00  0.00     0.131 C 
HETATM    4  N   UNL     1       8.851  30.513  58.343  1.00  0.00    -0.344 N 
HETATM    5  C   UNL     1       9.196  31.650  59.086  1.00  0.00     0.254 C 
HETATM    6  O   UNL     1      10.127  32.398  58.801  1.00  0.00    -0.267 OA
HETATM    7  C   UNL     1       8.013  29.453  58.897  1.00  0.00     0.154 C 
HETATM    8  C   UNL     1       7.663  28.396  57.891  1.00  0.00     0.001 C 
ENDROOT
BRANCH   5   9
HETATM    9  C   UNL     1       8.447  31.949  60.326  1.00  0.00     0.032 A 
HETATM   10  C   UNL     1       7.119  32.370  60.210  1.00  0.00     0.018 A 
HETATM   11  C   UNL     1       6.394  32.695  61.358  1.00  0.00     0.016 A 
HETATM   12  C   UNL     1       6.983  32.597  62.628  1.00  0.00     0.014 A 
HETATM   13  C   UNL     1       8.305  32.131  62.730  1.00  0.00     0.016 A 
HETATM   14  C   UNL     1       9.033  31.795  61.584  1.00  0.00     0.018 A 
BRANCH  12  15
HETATM   15  C   UNL     1       6.246  32.991  63.825  1.00  0.00     0.181 A 
HETATM   16  N   UNL     1       4.916  32.862  63.966  1.00  0.00    -0.152 NA
HETATM   17  N   UNL     1       4.710  33.383  65.183  1.00  0.00    -0.263 N 
HETATM   18  H   UNL     1       3.769  33.414  65.557  1.00  0.00     0.190 HD
HETATM   19  C   UNL     1       5.873  33.824  65.742  1.00  0.00     0.118 A 
HETATM   20  C   UNL     1       5.941  34.485  67.062  1.00  0.00     0.093 C 
HETATM   21  N   UNL     1       6.861  33.580  64.911  1.00  0.00    -0.212 NA
ENDBRANCH  12  15
ENDBRANCH   5   9
BRANCH   1  22
HETATM   22  C   UNL     1       7.745  27.240  55.693  1.00  0.00    -0.030 A 
HETATM   23  C   UNL     1       7.344  25.979  56.164  1.00  0.00     0.014 A 
HETATM   24  C   UNL     1       6.929  24.965  55.288  1.00  0.00     0.037 A 
HETATM   25  C   UNL     1       6.908  25.190  53.915  1.00  0.00     0.068 A 
HETATM   26  C   UNL     1       7.311  26.432  53.429  1.00  0.00     0.037 A 
HETATM   27  C   UNL     1       7.713  27.447  54.306  1.00  0.00     0.014 A 
BRANCH  25  28
HETATM   28  O   UNL     1       6.530  24.293  52.955  1.00  0.00    -0.352 OA
BRANCH  28  29
HETATM   29  C   UNL     1       7.570  23.587  52.283  1.00  0.00     0.171 C 
HETATM   30  C   UNL     1       8.328  22.773  53.317  1.00  0.00     0.034 C 
ENDBRANCH  28  29
ENDBRANCH  25  28
ENDBRANCH   1  22
TORSDOF 5
ENDMDL
MODEL 3
REMARK VINA RESULT:     -10.0      3.252     10.715
REMARK  5 active torsions:
REMARK  status: ('A' for Active; 'I' for Inactive)
REMARK    1  A    between atoms: C_2  and  O_3 
REMARK    2  A    between atoms: O_3  and  C_4 
REMARK    3  A    between atoms: C_7  and  C_8 
REMARK       I    between atoms: N_11  and  C_12 
REMARK    4  A    between atoms: C_12  and  C_13 
REMARK    5  A    between atoms: C_16  and  C_17 
ROOT
HETATM    1  C   UNL     1       7.987  32.105  60.958  1.00  0.00    -0.049 C 
HETATM    2  C   UNL     1       9.484  31.980  60.803  1.00  0.00     0.059 C 
HETATM    3  C   UNL     1       9.899  31.662  59.368  1.00  0.00     0.131 C 
HETATM    4  N   UNL     1       9.087  30.605  58.773  1.00  0.00    -0.344 N 
HETATM    5  C   UNL     1       9.703  29.836  57.776  1.00  0.00     0.254 C 
HETATM    6  O   UNL     1      10.902  29.892  57.512  1.00  0.00    -0.267 OA
HETATM    7  C   UNL     1       7.640  30.804  58.810  1.00  0.00     0.154 C 
HETATM    8  C   UNL     1       7.183  31.549  60.029  1.00  0.00     0.001 C 
ENDROOT
BRANCH   5   9
HETATM    9  C   UNL     1       8.870  28.946  56.940  1.00  0.00     0.032 A 
HETATM   10  C   UNL     1       8.749  29.241  55.580  1.00  0.00     0.018 A 
HETATM   11  C   UNL     1       7.941  28.441  54.768  1.00  0.00     0.016 A 
HETATM   12  C   UNL     1       7.253  27.341  55.305  1.00  0.00     0.014 A 
HETATM   13  C   UNL     1       7.420  27.034  56.666  1.00  0.00     0.016 A 
HETATM   14  C   UNL     1       8.236  27.825  57.482  1.00  0.00     0.018 A 
BRANCH  12  15
HETATM   15  C   UNL     1       6.364  26.539  54.471  1.00  0.00     0.181 A 
HETATM   16  N   UNL     1       5.534  25.595  54.945  1.00  0.00    -0.152 NA
HETATM   17  N   UNL     1       4.973  25.124  53.824  1.00  0.00    -0.263 N 
HETATM   18  H   UNL     1       4.285  24.382  53.887  1.00  0.00     0.190 HD
HETATM   19  C   UNL     1       5.461  25.752  52.717  1.00  0.00     0.118 A 
HETATM   20  C   UNL     1       5.054  25.405  51.340  1.00  0.00     0.093 C 
HETATM   21  N   UNL     1       6.334  26.658  53.096  1.00  0.00    -0.212 NA
ENDBRANCH  12  15
ENDBRANCH   5   9
BRANCH   1  22
HETATM   22  C   UNL     1       7.455  32.826  62.144  1.00  0.00    -0.030 A 
HETATM   23  C   UNL     1       6.390  33.734  62.023  1.00  0.00     0.014 A 
HETATM   24  C   UNL     1       5.856  34.392  63.140  1.00  0.00     0.037 A 
HETATM   25  C   UNL     1       6.378  34.158  64.408  1.00  0.00     0.068 A 
HETATM   26  C   UNL     1       7.440  33.267  64.546  1.00  0.00     0.037 A 
HETATM   27  C   UNL     1       7.964  32.601  63.431  1.00  0.00     0.014 A 
BRANCH  25  28
HETATM   28  O   UNL     1       5.954  34.730  65.575  1.00  0.00    -0.352 OA
BRANCH  28  29
HETATM   29  C   UNL     1       4.727  34.252  66.122  1.00  0.00     0.171 C 
HETATM   30  C   UNL     1       3.828  35.449  66.372  1.00  0.00     0.034 C 
ENDBRANCH  28  29
ENDBRANCH  25  28
ENDBRANCH   1  22
TORSDOF 5
ENDMDL
MODEL 4
REMARK VINA RESULT:      -9.1      4.521      8.552
REMARK  5 active torsions:
REMARK  status: ('A' for Active; 'I' for Inactive)
REMARK    1  A    between atoms: C_2  and  O_3 
REMARK    2  A    between atoms: O_3  and  C_4 
REMARK    3  A    between atoms: C_7  and  C_8 
REMARK       I    between atoms: N_11  and  C_12 
REMARK    4  A    between atoms: C_12  and  C_13 
REMARK    5  A    between atoms: C_16  and  C_17 
ROOT
HETATM    1  C   UNL     1       7.150  33.228  62.936  1.00  0.00    -0.049 C 
HETATM    2  C   UNL     1       5.953  34.146  62.857  1.00  0.00     0.059 C 
HETATM    3  C   UNL     1       5.863  35.095  64.050  1.00  0.00     0.131 C 
HETATM    4  N   UNL     1       6.086  34.416  65.322  1.00  0.00    -0.344 N 
HETATM    5  C   UNL     1       5.465  34.981  66.444  1.00  0.00     0.254 C 
HETATM    6  O   UNL     1       4.633  35.882  66.384  1.00  0.00    -0.267 OA
HETATM    7  C   UNL     1       7.319  33.639  65.432  1.00  0.00     0.154 C 
HETATM    8  C   UNL     1       7.739  33.021  64.131  1.00  0.00     0.001 C 
ENDROOT
BRANCH   5   9
HETATM    9  C   UNL     1       5.867  34.523  67.792  1.00  0.00     0.032 A 
HETATM   10  C   UNL     1       7.065  35.006  68.323  1.00  0.00     0.018 A 
HETATM   11  C   UNL     1       7.492  34.566  69.579  1.00  0.00     0.016 A 
HETATM   12  C   UNL     1       6.726  33.649  70.314  1.00  0.00     0.014 A 
HETATM   13  C   UNL     1       5.502  33.206  69.783  1.00  0.00     0.016 A 
HETATM   14  C   UNL     1       5.065  33.650  68.531  1.00  0.00     0.018 A 
BRANCH  12  15
HETATM   15  C   UNL     1       7.198  33.145  71.600  1.00  0.00     0.181 A 
HETATM   16  N   UNL     1       7.287  33.890  72.714  1.00  0.00    -0.152 NA
HETATM   17  N   UNL     1       7.796  33.019  73.595  1.00  0.00    -0.263 N 
HETATM   18  H   UNL     1       7.971  33.320  74.547  1.00  0.00     0.190 HD
HETATM   19  C   UNL     1       8.018  31.801  73.025  1.00  0.00     0.118 A 
HETATM   20  C   UNL     1       8.615  30.661  73.750  1.00  0.00     0.093 C 
HETATM   21  N   UNL     1       7.640  31.848  71.767  1.00  0.00    -0.212 NA
ENDBRANCH  12  15
ENDBRANCH   5   9
BRANCH   1  22
HETATM   22  C   UNL     1       7.624  32.574  61.689  1.00  0.00    -0.030 A 
HETATM   23  C   UNL     1       6.782  32.445  60.573  1.00  0.00     0.014 A 
HETATM   24  C   UNL     1       7.230  31.862  59.378  1.00  0.00     0.037 A 
HETATM   25  C   UNL     1       8.535  31.391  59.274  1.00  0.00     0.068 A 
HETATM   26  C   UNL     1       9.382  31.502  60.374  1.00  0.00     0.037 A 
HETATM   27  C   UNL     1       8.937  32.095  61.562  1.00  0.00     0.014 A 
BRANCH  25  28
HETATM   28  O   UNL     1       9.096  30.804  58.174  1.00  0.00    -0.352 OA
BRANCH  28  29
HETATM   29  C   UNL     1      10.476  31.070  57.931  1.00  0.00     0.171 C 
HETATM   30  C   UNL     1      11.061  29.876  57.199  1.00  0.00     0.034 C 
ENDBRANCH  28  29
ENDBRANCH  25  28
ENDBRANCH   1  22
TORSDOF 5
ENDMDL
MODEL 5
REMARK VINA RESULT:      -9.1      1.736      2.372
REMARK  5 active torsions:
REMARK  status: ('A' for Active; 'I' for Inactive)
REMARK    1  A    between atoms: C_2  and  O_3 
REMARK    2  A    between atoms: O_3  and  C_4 
REMARK    3  A    between atoms: C_7  and  C_8 
REMARK       I    between atoms: N_11  and  C_12 
REMARK    4  A    between atoms: C_12  and  C_13 
REMARK    5  A    between atoms: C_16  and  C_17 
ROOT
HETATM    1  C   UNL     1       7.282  27.400  56.572  1.00  0.00    -0.049 C 
HETATM    2  C   UNL     1       6.458  28.247  55.631  1.00  0.00     0.059 C 
HETATM    3  C   UNL     1       6.602  29.742  55.910  1.00  0.00     0.131 C 
HETATM    4  N   UNL     1       6.504  30.056  57.332  1.00  0.00    -0.344 N 
HETATM    5  C   UNL     1       6.026  31.334  57.652  1.00  0.00     0.254 C 
HETATM    6  O   UNL     1       5.540  32.109  56.832  1.00  0.00    -0.267 OA
HETATM    7  C   UNL     1       7.405  29.324  58.219  1.00  0.00     0.154 C 
HETATM    8  C   UNL     1       7.687  27.929  57.744  1.00  0.00     0.001 C 
ENDROOT
BRANCH   5   9
HETATM    9  C   UNL     1       6.163  31.822  59.042  1.00  0.00     0.032 A 
HETATM   10  C   UNL     1       7.450  32.040  59.541  1.00  0.00     0.018 A 
HETATM   11  C   UNL     1       7.616  32.467  60.861  1.00  0.00     0.016 A 
HETATM   12  C   UNL     1       6.503  32.685  61.688  1.00  0.00     0.014 A 
HETATM   13  C   UNL     1       5.215  32.502  61.156  1.00  0.00     0.016 A 
HETATM   14  C   UNL     1       5.042  32.084  59.832  1.00  0.00     0.018 A 
BRANCH  12  15
HETATM   15  C   UNL     1       6.677  33.075  63.084  1.00  0.00     0.181 A 
HETATM   16  N   UNL     1       7.849  33.030  63.738  1.00  0.00    -0.152 NA
HETATM   17  N   UNL     1       7.502  33.436  64.966  1.00  0.00    -0.263 N 
HETATM   18  H   UNL     1       8.211  33.500  65.687  1.00  0.00     0.190 HD
HETATM   19  C   UNL     1       6.166  33.699  65.049  1.00  0.00     0.118 A 
HETATM   20  C   UNL     1       5.497  34.121  66.295  1.00  0.00     0.093 C 
HETATM   21  N   UNL     1       5.622  33.489  63.871  1.00  0.00    -0.212 NA
ENDBRANCH  12  15
ENDBRANCH   5   9
BRANCH   1  22
HETATM   22  C   UNL     1       7.600  26.004  56.175  1.00  0.00    -0.030 A 
HETATM   23  C   UNL     1       8.267  25.135  57.054  1.00  0.00     0.014 A 
HETATM   24  C   UNL     1       8.540  23.804  56.704  1.00  0.00     0.037 A 
HETATM   25  C   UNL     1       8.153  23.312  55.461  1.00  0.00     0.068 A 
HETATM   26  C   UNL     1       7.498  24.163  54.573  1.00  0.00     0.037 A 
HETATM   27  C   UNL     1       7.216  25.488  54.928  1.00  0.00     0.014 A 
BRANCH  25  28
HETATM   28  O   UNL     1       8.356  22.043  54.996  1.00  0.00    -0.352 OA
BRANCH  28  29
HETATM   29  C   UNL     1       8.838  21.913  53.660  1.00  0.00     0.171 C 
HETATM   30  C   UNL     1       8.245  20.646  53.070  1.00  0.00     0.034 C 
ENDBRANCH  28  29
ENDBRANCH  25  28
ENDBRANCH   1  22
TORSDOF 5
ENDMDL
MODEL 6
REMARK VINA RESULT:      -9.0      8.410     12.105
REMARK  5 active torsions:
REMARK  status: ('A' for Active; 'I' for Inactive)
REMARK    1  A    between atoms: C_2  and  O_3 
REMARK    2  A    between atoms: O_3  and  C_4 
REMARK    3  A    between atoms: C_7  and  C_8 
REMARK       I    between atoms: N_11  and  C_12 
REMARK    4  A    between atoms: C_12  and  C_13 
REMARK    5  A    between atoms: C_16  and  C_17 
ROOT
HETATM    1  C   UNL     1       6.893  25.551  53.047  1.00  0.00    -0.049 C 
HETATM    2  C   UNL     1       7.398  26.956  53.269  1.00  0.00     0.059 C 
HETATM    3  C   UNL     1       6.329  28.013  52.998  1.00  0.00     0.131 C 
HETATM    4  N   UNL     1       5.601  27.765  51.758  1.00  0.00    -0.344 N 
HETATM    5  C   UNL     1       5.071  28.892  51.114  1.00  0.00     0.254 C 
HETATM    6  O   UNL     1       5.328  30.049  51.437  1.00  0.00    -0.267 OA
HETATM    7  C   UNL     1       5.000  26.441  51.615  1.00  0.00     0.154 C 
HETATM    8  C   UNL     1       5.800  25.361  52.282  1.00  0.00     0.001 C 
ENDROOT
BRANCH   5   9
HETATM    9  C   UNL     1       4.094  28.699  50.021  1.00  0.00     0.032 A 
HETATM   10  C   UNL     1       2.745  28.942  50.290  1.00  0.00     0.018 A 
HETATM   11  C   UNL     1       1.791  28.735  49.290  1.00  0.00     0.016 A 
HETATM   12  C   UNL     1       2.177  28.292  48.015  1.00  0.00     0.014 A 
HETATM   13  C   UNL     1       3.542  28.093  47.749  1.00  0.00     0.016 A 
HETATM   14  C   UNL     1       4.503  28.308  48.744  1.00  0.00     0.018 A 
BRANCH  12  15
HETATM   15  C   UNL     1       1.177  28.021  46.987  1.00  0.00     0.181 A 
HETATM   16  N   UNL     1       1.016  26.829  46.388  1.00  0.00    -0.152 NA
HETATM   17  N   UNL     1       0.032  27.083  45.516  1.00  0.00    -0.263 N 
HETATM   18  H   UNL     1      -0.302  26.338  44.914  1.00  0.00     0.190 HD
HETATM   19  C   UNL     1      -0.370  28.384  45.578  1.00  0.00     0.118 A 
HETATM   20  C   UNL     1      -1.410  28.956  44.699  1.00  0.00     0.093 C 
HETATM   21  N   UNL     1       0.329  28.998  46.506  1.00  0.00    -0.212 NA
ENDBRANCH  12  15
ENDBRANCH   5   9
BRANCH   1  22
HETATM   22  C   UNL     1       7.635  24.425  53.671  1.00  0.00    -0.030 A 
HETATM   23  C   UNL     1       7.985  24.453  55.031  1.00  0.00     0.014 A 
HETATM   24  C   UNL     1       8.652  23.380  55.640  1.00  0.00     0.037 A 
HETATM   25  C   UNL     1       8.988  22.251  54.899  1.00  0.00     0.068 A 
HETATM   26  C   UNL     1       8.656  22.210  53.546  1.00  0.00     0.037 A 
HETATM   27  C   UNL     1       7.979  23.276  52.943  1.00  0.00     0.014 A 
BRANCH  25  28
HETATM   28  O   UNL     1       9.636  21.142  55.365  1.00  0.00    -0.352 OA
BRANCH  28  29
HETATM   29  C   UNL     1       8.866  19.949  55.496  1.00  0.00     0.171 C 
HETATM   30  C   UNL     1       7.608  20.286  56.275  1.00  0.00     0.034 C 
ENDBRANCH  28  29
ENDBRANCH  25  28
ENDBRANCH   1  22
TORSDOF 5
ENDMDL
MODEL 7
REMARK VINA RESULT:      -9.0      2.097      2.629
REMARK  5 active torsions:
REMARK  status: ('A' for Active; 'I' for Inactive)
REMARK    1  A    between atoms: C_2  and  O_3 
REMARK    2  A    between atoms: O_3  and  C_4 
REMARK    3  A    between atoms: C_7  and  C_8 
REMARK       I    between atoms: N_11  and  C_12 
REMARK    4  A    between atoms: C_12  and  C_13 
REMARK    5  A    between atoms: C_16  and  C_17 
ROOT
HETATM    1  C   UNL     1       7.068  27.171  56.132  1.00  0.00    -0.049 C 
HETATM    2  C   UNL     1       6.385  28.000  55.070  1.00  0.00     0.059 C 
HETATM    3  C   UNL     1       6.429  29.496  55.377  1.00  0.00     0.131 C 
HETATM    4  N   UNL     1       6.084  29.792  56.764  1.00  0.00    -0.344 N 
HETATM    5  C   UNL     1       5.516  31.050  57.007  1.00  0.00     0.254 C 
HETATM    6  O   UNL     1       5.148  31.817  56.121  1.00  0.00    -0.267 OA
HETATM    7  C   UNL     1       6.848  29.080  57.786  1.00  0.00     0.154 C 
HETATM    8  C   UNL     1       7.254  27.701  57.358  1.00  0.00     0.001 C 
ENDROOT
BRANCH   5   9
HETATM    9  C   UNL     1       5.402  31.527  58.402  1.00  0.00     0.032 A 
HETATM   10  C   UNL     1       6.563  31.959  59.049  1.00  0.00     0.018 A 
HETATM   11  C   UNL     1       6.497  32.383  60.378  1.00  0.00     0.016 A 
HETATM   12  C   UNL     1       5.275  32.385  61.069  1.00  0.00     0.014 A 
HETATM   13  C   UNL     1       4.111  31.988  60.390  1.00  0.00     0.016 A 
HETATM   14  C   UNL     1       4.169  31.572  59.055  1.00  0.00     0.018 A 
BRANCH  12  15
HETATM   15  C   UNL     1       5.214  32.773  62.474  1.00  0.00     0.181 A 
HETATM   16  N   UNL     1       4.072  32.990  63.147  1.00  0.00    -0.152 NA
HETATM   17  N   UNL     1       4.521  33.351  64.356  1.00  0.00    -0.263 N 
HETATM   18  H   UNL     1       3.855  33.579  65.085  1.00  0.00     0.190 HD
HETATM   19  C   UNL     1       5.884  33.365  64.401  1.00  0.00     0.118 A 
HETATM   20  C   UNL     1       6.653  33.767  65.595  1.00  0.00     0.093 C 
HETATM   21  N   UNL     1       6.349  32.994  63.229  1.00  0.00    -0.212 NA
ENDBRANCH  12  15
ENDBRANCH   5   9
BRANCH   1  22
HETATM   22  C   UNL     1       7.496  25.791  55.786  1.00  0.00    -0.030 A 
HETATM   23  C   UNL     1       7.286  25.268  54.500  1.00  0.00     0.014 A 
HETATM   24  C   UNL     1       7.718  23.980  54.151  1.00  0.00     0.037 A 
HETATM   25  C   UNL     1       8.371  23.182  55.086  1.00  0.00     0.068 A 
HETATM   26  C   UNL     1       8.579  23.681  56.370  1.00  0.00     0.037 A 
HETATM   27  C   UNL     1       8.158  24.971  56.713  1.00  0.00     0.014 A 
BRANCH  25  28
HETATM   28  O   UNL     1       8.840  21.915  54.879  1.00  0.00    -0.352 OA
BRANCH  28  29
HETATM   29  C   UNL     1       7.910  20.952  54.389  1.00  0.00     0.171 C 
HETATM   30  C   UNL     1       8.336  20.561  52.986  1.00  0.00     0.034 C 
ENDBRANCH  28  29
ENDBRANCH  25  28
ENDBRANCH   1  22
TORSDOF 5
ENDMDL
MODEL 8
REMARK VINA RESULT:      -8.9      8.965     12.053
REMARK  5 active torsions:
REMARK  status: ('A' for Active; 'I' for Inactive)
REMARK    1  A    between atoms: C_2  and  O_3 
REMARK    2  A    between atoms: O_3  and  C_4 
REMARK    3  A    between atoms: C_7  and  C_8 
REMARK       I    between atoms: N_11  and  C_12 
REMARK    4  A    between atoms: C_12  and  C_13 
REMARK    5  A    between atoms: C_16  and  C_17 
ROOT
HETATM    1  C   UNL     1       3.230  27.951  49.095  1.00  0.00    -0.049 C 
HETATM    2  C   UNL     1       3.560  29.084  50.037  1.00  0.00     0.059 C 
HETATM    3  C   UNL     1       4.924  28.915  50.703  1.00  0.00     0.131 C 
HETATM    4  N   UNL     1       5.135  27.561  51.206  1.00  0.00    -0.344 N 
HETATM    5  C   UNL     1       6.000  27.434  52.301  1.00  0.00     0.254 C 
HETATM    6  O   UNL     1       6.436  28.387  52.944  1.00  0.00    -0.267 OA
HETATM    7  C   UNL     1       4.943  26.477  50.245  1.00  0.00     0.154 C 
HETATM    8  C   UNL     1       3.880  26.778  49.229  1.00  0.00     0.001 C 
ENDROOT
BRANCH   5   9
HETATM    9  C   UNL     1       6.479  26.088  52.684  1.00  0.00     0.032 A 
HETATM   10  C   UNL     1       5.869  25.455  53.770  1.00  0.00     0.018 A 
HETATM   11  C   UNL     1       6.320  24.198  54.181  1.00  0.00     0.016 A 
HETATM   12  C   UNL     1       7.377  23.563  53.510  1.00  0.00     0.014 A 
HETATM   13  C   UNL     1       7.950  24.196  52.393  1.00  0.00     0.016 A 
HETATM   14  C   UNL     1       7.495  25.450  51.971  1.00  0.00     0.018 A 
BRANCH  12  15
HETATM   15  C   UNL     1       7.887  22.277  53.972  1.00  0.00     0.181 A 
HETATM   16  N   UNL     1       7.885  21.155  53.233  1.00  0.00    -0.152 NA
HETATM   17  N   UNL     1       8.403  20.257  54.082  1.00  0.00    -0.263 N 
HETATM   18  H   UNL     1       8.521  19.298  53.778  1.00  0.00     0.190 HD
HETATM   19  C   UNL     1       8.690  20.818  55.291  1.00  0.00     0.118 A 
HETATM   20  C   UNL     1       9.231  20.053  56.433  1.00  0.00     0.093 C 
HETATM   21  N   UNL     1       8.384  22.095  55.247  1.00  0.00    -0.212 NA
ENDBRANCH  12  15
ENDBRANCH   5   9
BRANCH   1  22
HETATM   22  C   UNL     1       2.184  28.169  48.063  1.00  0.00    -0.030 A 
HETATM   23  C   UNL     1       2.010  29.426  47.462  1.00  0.00     0.014 A 
HETATM   24  C   UNL     1       1.050  29.635  46.460  1.00  0.00     0.037 A 
HETATM   25  C   UNL     1       0.238  28.587  46.037  1.00  0.00     0.068 A 
HETATM   26  C   UNL     1       0.390  27.335  46.629  1.00  0.00     0.037 A 
HETATM   27  C   UNL     1       1.357  27.125  47.620  1.00  0.00     0.014 A 
BRANCH  25  28
HETATM   28  O   UNL     1      -0.732  28.654  45.077  1.00  0.00    -0.352 OA
BRANCH  28  29
HETATM   29  C   UNL     1      -1.528  29.836  45.042  1.00  0.00     0.171 C 
HETATM   30  C   UNL     1      -2.669  29.661  46.028  1.00  0.00     0.034 C 
ENDBRANCH  28  29
ENDBRANCH  25  28
ENDBRANCH   1  22
TORSDOF 5
ENDMDL
MODEL 9
REMARK VINA RESULT:      -8.7      1.444      2.127
REMARK  5 active torsions:
REMARK  status: ('A' for Active; 'I' for Inactive)
REMARK    1  A    between atoms: C_2  and  O_3 
REMARK    2  A    between atoms: O_3  and  C_4 
REMARK    3  A    between atoms: C_7  and  C_8 
REMARK       I    between atoms: N_11  and  C_12 
REMARK    4  A    between atoms: C_12  and  C_13 
REMARK    5  A    between atoms: C_16  and  C_17 
ROOT
HETATM    1  C   UNL     1       8.210  27.528  56.612  1.00  0.00    -0.049 C 
HETATM    2  C   UNL     1       9.214  28.565  56.168  1.00  0.00     0.059 C 
HETATM    3  C   UNL     1       9.637  29.495  57.303  1.00  0.00     0.131 C 
HETATM    4  N   UNL     1       8.501  29.974  58.085  1.00  0.00    -0.344 N 
HETATM    5  C   UNL     1       8.657  31.220  58.707  1.00  0.00     0.254 C 
HETATM    6  O   UNL     1       9.599  31.979  58.492  1.00  0.00    -0.267 OA
HETATM    7  C   UNL     1       7.609  28.949  58.624  1.00  0.00     0.154 C 
HETATM    8  C   UNL     1       7.496  27.746  57.734  1.00  0.00     0.001 C 
ENDROOT
BRANCH   5   9
HETATM    9  C   UNL     1       7.675  31.637  59.731  1.00  0.00     0.032 A 
HETATM   10  C   UNL     1       6.415  32.061  59.303  1.00  0.00     0.018 A 
HETATM   11  C   UNL     1       5.475  32.496  60.241  1.00  0.00     0.016 A 
HETATM   12  C   UNL     1       5.784  32.507  61.610  1.00  0.00     0.014 A 
HETATM   13  C   UNL     1       7.041  32.037  62.027  1.00  0.00     0.016 A 
HETATM   14  C   UNL     1       7.982  31.590  61.092  1.00  0.00     0.018 A 
BRANCH  12  15
HETATM   15  C   UNL     1       4.825  33.015  62.586  1.00  0.00     0.181 A 
HETATM   16  N   UNL     1       5.041  33.038  63.912  1.00  0.00    -0.152 NA
HETATM   17  N   UNL     1       3.889  33.541  64.376  1.00  0.00    -0.263 N 
HETATM   18  H   UNL     1       3.771  33.673  65.373  1.00  0.00     0.190 HD
HETATM   19  C   UNL     1       3.010  33.794  63.365  1.00  0.00     0.118 A 
HETATM   20  C   UNL     1       1.644  34.312  63.587  1.00  0.00     0.093 C 
HETATM   21  N   UNL     1       3.578  33.481  62.222  1.00  0.00    -0.212 NA
ENDBRANCH  12  15
ENDBRANCH   5   9
BRANCH   1  22
HETATM   22  C   UNL     1       8.035  26.309  55.780  1.00  0.00    -0.030 A 
HETATM   23  C   UNL     1       8.179  25.027  56.334  1.00  0.00     0.014 A 
HETATM   24  C   UNL     1       7.980  23.869  55.568  1.00  0.00     0.037 A 
HETATM   25  C   UNL     1       7.634  23.968  54.224  1.00  0.00     0.068 A 
HETATM   26  C   UNL     1       7.496  25.232  53.655  1.00  0.00     0.037 A 
HETATM   27  C   UNL     1       7.683  26.387  54.424  1.00  0.00     0.014 A 
BRANCH  25  28
HETATM   28  O   UNL     1       7.414  22.926  53.367  1.00  0.00    -0.352 OA
BRANCH  28  29
HETATM   29  C   UNL     1       8.484  22.003  53.182  1.00  0.00     0.171 C 
HETATM   30  C   UNL     1       7.881  20.630  52.942  1.00  0.00     0.034 C 
ENDBRANCH  28  29
ENDBRANCH  25  28
ENDBRANCH   1  22
TORSDOF 5
ENDMDL
MODEL 10
REMARK VINA RESULT:      -8.4      4.935      7.821
REMARK  5 active torsions:
REMARK  status: ('A' for Active; 'I' for Inactive)
REMARK    1  A    between atoms: C_2  and  O_3 
REMARK    2  A    between atoms: O_3  and  C_4 
REMARK    3  A    between atoms: C_7  and  C_8 
REMARK       I    between atoms: N_11  and  C_12 
REMARK    4  A    between atoms: C_12  and  C_13 
REMARK    5  A    between atoms: C_16  and  C_17 
ROOT
HETATM    1  C   UNL     1       4.675  27.209  51.083  1.00  0.00    -0.049 C 
HETATM    2  C   UNL     1       5.476  25.929  51.069  1.00  0.00     0.059 C 
HETATM    3  C   UNL     1       5.874  25.471  52.471  1.00  0.00     0.131 C 
HETATM    4  N   UNL     1       6.396  26.563  53.287  1.00  0.00    -0.344 N 
HETATM    5  C   UNL     1       7.308  26.207  54.289  1.00  0.00     0.254 C 
HETATM    6  O   UNL     1       7.804  25.088  54.397  1.00  0.00    -0.267 OA
HETATM    7  C   UNL     1       5.547  27.747  53.402  1.00  0.00     0.154 C 
HETATM    8  C   UNL     1       4.742  28.011  52.164  1.00  0.00     0.001 C 
ENDROOT
BRANCH   5   9
HETATM    9  C   UNL     1       7.661  27.202  55.325  1.00  0.00     0.032 A 
HETATM   10  C   UNL     1       8.346  28.353  54.928  1.00  0.00     0.018 A 
HETATM   11  C   UNL     1       8.725  29.297  55.885  1.00  0.00     0.016 A 
HETATM   12  C   UNL     1       8.420  29.103  57.241  1.00  0.00     0.014 A 
HETATM   13  C   UNL     1       7.693  27.961  57.617  1.00  0.00     0.016 A 
HETATM   14  C   UNL     1       7.301  27.017  56.661  1.00  0.00     0.018 A 
BRANCH  12  15
HETATM   15  C   UNL     1       8.865  30.060  58.250  1.00  0.00     0.181 A 
HETATM   16  N   UNL     1       9.697  31.084  58.000  1.00  0.00    -0.152 NA
HETATM   17  N   UNL     1       9.837  31.636  59.213  1.00  0.00    -0.263 N 
HETATM   18  H   UNL     1      10.427  32.452  59.323  1.00  0.00     0.190 HD
HETATM   19  C   UNL     1       9.126  30.956  60.157  1.00  0.00     0.118 A 
HETATM   20  C   UNL     1       9.129  31.313  61.590  1.00  0.00     0.093 C 
HETATM   21  N   UNL     1       8.494  29.961  59.575  1.00  0.00    -0.212 NA
ENDBRANCH  12  15
ENDBRANCH   5   9
BRANCH   1  22
HETATM   22  C   UNL     1       3.855  27.545  49.891  1.00  0.00    -0.030 A 
HETATM   23  C   UNL     1       3.957  26.795  48.707  1.00  0.00     0.014 A 
HETATM   24  C   UNL     1       3.161  27.079  47.587  1.00  0.00     0.037 A 
HETATM   25  C   UNL     1       2.243  28.125  47.626  1.00  0.00     0.068 A 
HETATM   26  C   UNL     1       2.135  28.885  48.789  1.00  0.00     0.037 A 
HETATM   27  C   UNL     1       2.922  28.592  49.910  1.00  0.00     0.014 A 
BRANCH  25  28
HETATM   28  O   UNL     1       1.412  28.507  46.611  1.00  0.00    -0.352 OA
BRANCH  28  29
HETATM   29  C   UNL     1       0.392  27.587  46.227  1.00  0.00     0.171 C 
HETATM   30  C   UNL     1      -0.835  28.388  45.831  1.00  0.00     0.034 C 
ENDBRANCH  28  29
ENDBRANCH  25  28
ENDBRANCH   1  22
TORSDOF 5
ENDMDL
