MODEL 1
REMARK VINA RESULT:      -8.5      0.000      0.000
REMARK  5 active torsions:
REMARK  status: ('A' for Active; 'I' for Inactive)
REMARK    1  A    between atoms: C_2  and  O_3 
REMARK    2  A    between atoms: O_3  and  C_4 
REMARK    3  A    between atoms: C_6  and  C_7 
REMARK    4  A    between atoms: C_7  and  N_8 
REMARK       I    between atoms: N_8  and  C_9 
REMARK       I    between atoms: C_9  and  N_10 
REMARK    5  A    between atoms: N_10  and  C_11 
ROOT
HETATM    1  N   UNL     1       7.198  25.015  57.284  1.00  0.00    -0.335 N 
HETATM    2  C   UNL     1       7.842  23.967  56.701  1.00  0.00     0.321 C 
HETATM    3  N   UNL     1       7.177  23.334  55.691  1.00  0.00    -0.307 N 
HETATM    4  O   UNL     1       8.939  23.654  57.152  1.00  0.00    -0.247 OA
HETATM    5  H   UNL     1       7.787  25.422  58.000  1.00  0.00     0.165 HD
HETATM    6  H   UNL     1       6.190  23.513  55.641  1.00  0.00     0.170 HD
ENDROOT
BRANCH   1   7
HETATM    7  C   UNL     1       6.136  25.871  56.766  1.00  0.00     0.115 C 
HETATM    8  C   UNL     1       4.784  25.402  57.305  1.00  0.00     0.037 C 
BRANCH   7   9
HETATM    9  C   UNL     1       6.366  27.331  57.115  1.00  0.00    -0.033 A 
HETATM   10  C   UNL     1       7.588  27.781  57.648  1.00  0.00     0.046 A 
HETATM   11  C   UNL     1       7.780  29.120  58.005  1.00  0.00     0.069 A 
HETATM   12  C   UNL     1       6.736  30.027  57.843  1.00  0.00     0.037 A 
HETATM   13  C   UNL     1       5.514  29.598  57.322  1.00  0.00     0.003 A 
HETATM   14  C   UNL     1       5.329  28.262  56.960  1.00  0.00     0.009 A 
BRANCH  11  15
HETATM   15  O   UNL     1       9.023  29.400  58.503  1.00  0.00    -0.352 OA
BRANCH  15  16
HETATM   16  C   UNL     1       9.796  30.380  57.812  1.00  0.00     0.171 C 
HETATM   17  C   UNL     1      10.796  29.651  56.934  1.00  0.00     0.034 C 
ENDBRANCH  15  16
ENDBRANCH  11  15
ENDBRANCH   7   9
ENDBRANCH   1   7
BRANCH   3  18
HETATM   18  C   UNL     1       7.666  22.269  54.895  1.00  0.00     0.059 A 
HETATM   19  C   UNL     1       7.933  22.492  53.530  1.00  0.00    -0.032 A 
HETATM   20  C   UNL     1       7.706  23.821  52.866  1.00  0.00     0.050 C 
HETATM   21  C   UNL     1       8.420  21.428  52.755  1.00  0.00     0.028 A 
HETATM   22  C   UNL     1       8.632  20.198  53.353  1.00  0.00     0.117 A 
HETATM   23  N   UNL     1       8.397  19.954  54.654  1.00  0.00    -0.271 NA
HETATM   24  C   UNL     1       7.921  20.990  55.393  1.00  0.00     0.146 A 
ENDBRANCH   3  18
TORSDOF 5
ENDMDL
MODEL 2
REMARK VINA RESULT:      -8.2      1.644      2.766
REMARK  5 active torsions:
REMARK  status: ('A' for Active; 'I' for Inactive)
REMARK    1  A    between atoms: C_2  and  O_3 
REMARK    2  A    between atoms: O_3  and  C_4 
REMARK    3  A    between atoms: C_6  and  C_7 
REMARK    4  A    between atoms: C_7  and  N_8 
REMARK       I    between atoms: N_8  and  C_9 
REMARK       I    between atoms: C_9  and  N_10 
REMARK    5  A    between atoms: N_10  and  C_11 
ROOT
HETATM    1  N   UNL     1       8.226  26.435  57.518  1.00  0.00    -0.335 N 
HETATM    2  C   UNL     1       8.382  25.197  56.973  1.00  0.00     0.321 C 
HETATM    3  N   UNL     1       7.687  24.949  55.825  1.00  0.00    -0.307 N 
HETATM    4  O   UNL     1       9.095  24.398  57.574  1.00  0.00    -0.247 OA
HETATM    5  H   UNL     1       8.801  26.517  58.349  1.00  0.00     0.165 HD
HETATM    6  H   UNL     1       6.934  25.582  55.627  1.00  0.00     0.170 HD
ENDROOT
BRANCH   1   7
HETATM    7  C   UNL     1       7.817  27.690  56.896  1.00  0.00     0.115 C 
HETATM    8  C   UNL     1       6.354  27.980  57.233  1.00  0.00     0.037 C 
BRANCH   7   9
HETATM    9  C   UNL     1       8.698  28.849  57.329  1.00  0.00    -0.033 A 
HETATM   10  C   UNL     1       8.229  29.851  58.197  1.00  0.00     0.046 A 
HETATM   11  C   UNL     1       9.033  30.937  58.560  1.00  0.00     0.069 A 
HETATM   12  C   UNL     1      10.321  31.039  58.040  1.00  0.00     0.037 A 
HETATM   13  C   UNL     1      10.801  30.056  57.171  1.00  0.00     0.003 A 
HETATM   14  C   UNL     1       9.998  28.970  56.818  1.00  0.00     0.009 A 
BRANCH  11  15
HETATM   15  O   UNL     1       8.436  31.822  59.415  1.00  0.00    -0.352 OA
BRANCH  15  16
HETATM   16  C   UNL     1       8.212  31.384  60.754  1.00  0.00     0.171 C 
HETATM   17  C   UNL     1       9.432  31.757  61.578  1.00  0.00     0.034 C 
ENDBRANCH  15  16
ENDBRANCH  11  15
ENDBRANCH   7   9
ENDBRANCH   1   7
BRANCH   3  18
HETATM   18  C   UNL     1       7.740  23.768  55.044  1.00  0.00     0.059 A 
HETATM   19  C   UNL     1       7.865  23.868  53.645  1.00  0.00    -0.032 A 
HETATM   20  C   UNL     1       7.933  25.188  52.930  1.00  0.00     0.050 C 
HETATM   21  C   UNL     1       7.919  22.690  52.886  1.00  0.00     0.028 A 
HETATM   22  C   UNL     1       7.856  21.466  53.531  1.00  0.00     0.117 A 
HETATM   23  N   UNL     1       7.746  21.335  54.865  1.00  0.00    -0.271 NA
HETATM   24  C   UNL     1       7.690  22.483  55.588  1.00  0.00     0.146 A 
ENDBRANCH   3  18
TORSDOF 5
ENDMDL
MODEL 3
REMARK VINA RESULT:      -8.0      2.566      7.865
REMARK  5 active torsions:
REMARK  status: ('A' for Active; 'I' for Inactive)
REMARK    1  A    between atoms: C_2  and  O_3 
REMARK    2  A    between atoms: O_3  and  C_4 
REMARK    3  A    between atoms: C_6  and  C_7 
REMARK    4  A    between atoms: C_7  and  N_8 
REMARK       I    between atoms: N_8  and  C_9 
REMARK       I    between atoms: C_9  and  N_10 
REMARK    5  A    between atoms: N_10  and  C_11 
ROOT
HETATM    1  N   UNL     1       6.209  27.539  56.067  1.00  0.00    -0.335 N 
HETATM    2  C   UNL     1       6.699  28.749  56.451  1.00  0.00     0.321 C 
HETATM    3  N   UNL     1       7.552  28.747  57.516  1.00  0.00    -0.307 N 
HETATM    4  O   UNL     1       6.306  29.740  55.842  1.00  0.00    -0.247 OA
HETATM    5  H   UNL     1       5.608  27.655  55.259  1.00  0.00     0.165 HD
HETATM    6  H   UNL     1       7.541  27.917  58.080  1.00  0.00     0.170 HD
ENDROOT
BRANCH   1   7
HETATM    7  C   UNL     1       6.745  26.198  56.279  1.00  0.00     0.115 C 
HETATM    8  C   UNL     1       5.713  25.340  57.012  1.00  0.00     0.037 C 
BRANCH   7   9
HETATM    9  C   UNL     1       7.150  25.538  54.973  1.00  0.00    -0.033 A 
HETATM   10  C   UNL     1       7.787  24.285  54.943  1.00  0.00     0.046 A 
HETATM   11  C   UNL     1       8.194  23.700  53.739  1.00  0.00     0.069 A 
HETATM   12  C   UNL     1       7.976  24.378  52.542  1.00  0.00     0.037 A 
HETATM   13  C   UNL     1       7.350  25.627  52.552  1.00  0.00     0.003 A 
HETATM   14  C   UNL     1       6.940  26.203  53.756  1.00  0.00     0.009 A 
BRANCH  11  15
HETATM   15  O   UNL     1       8.794  22.478  53.877  1.00  0.00    -0.352 OA
BRANCH  15  16
HETATM   16  C   UNL     1       7.938  21.344  54.005  1.00  0.00     0.171 C 
HETATM   17  C   UNL     1       8.221  20.412  52.841  1.00  0.00     0.034 C 
ENDBRANCH  15  16
ENDBRANCH  11  15
ENDBRANCH   7   9
ENDBRANCH   1   7
BRANCH   3  18
HETATM   18  C   UNL     1       8.237  29.865  58.053  1.00  0.00     0.059 A 
HETATM   19  C   UNL     1       9.592  30.069  57.727  1.00  0.00    -0.032 A 
HETATM   20  C   UNL     1      10.360  29.136  56.834  1.00  0.00     0.050 C 
HETATM   21  C   UNL     1      10.255  31.183  58.264  1.00  0.00     0.028 A 
HETATM   22  C   UNL     1       9.560  32.051  59.089  1.00  0.00     0.117 A 
HETATM   23  N   UNL     1       8.265  31.890  59.413  1.00  0.00    -0.271 NA
HETATM   24  C   UNL     1       7.635  30.806  58.891  1.00  0.00     0.146 A 
ENDBRANCH   3  18
TORSDOF 5
ENDMDL
MODEL 4
REMARK VINA RESULT:      -7.9      5.506      8.349
REMARK  5 active torsions:
REMARK  status: ('A' for Active; 'I' for Inactive)
REMARK    1  A    between atoms: C_2  and  O_3 
REMARK    2  A    between atoms: O_3  and  C_4 
REMARK    3  A    between atoms: C_6  and  C_7 
REMARK    4  A    between atoms: C_7  and  N_8 
REMARK       I    between atoms: N_8  and  C_9 
REMARK       I    between atoms: C_9  and  N_10 
REMARK    5  A    between atoms: N_10  and  C_11 
ROOT
HETATM    1  N   UNL     1       7.452  32.083  60.392  1.00  0.00    -0.335 N 
HETATM    2  C   UNL     1       7.149  31.570  59.167  1.00  0.00     0.321 C 
HETATM    3  N   UNL     1       7.515  30.274  58.946  1.00  0.00    -0.307 N 
HETATM    4  O   UNL     1       6.614  32.319  58.355  1.00  0.00    -0.247 OA
HETATM    5  H   UNL     1       7.117  33.037  60.454  1.00  0.00     0.165 HD
HETATM    6  H   UNL     1       8.194  29.899  59.584  1.00  0.00     0.170 HD
ENDROOT
BRANCH   1   7
HETATM    7  C   UNL     1       7.692  31.404  61.661  1.00  0.00     0.115 C 
HETATM    8  C   UNL     1       9.192  31.177  61.850  1.00  0.00     0.037 C 
BRANCH   7   9
HETATM    9  C   UNL     1       7.123  32.182  62.834  1.00  0.00    -0.033 A 
HETATM   10  C   UNL     1       5.739  32.378  62.991  1.00  0.00     0.046 A 
HETATM   11  C   UNL     1       5.223  33.129  64.053  1.00  0.00     0.069 A 
HETATM   12  C   UNL     1       6.097  33.709  64.968  1.00  0.00     0.037 A 
HETATM   13  C   UNL     1       7.476  33.531  64.825  1.00  0.00     0.003 A 
HETATM   14  C   UNL     1       7.985  32.774  63.768  1.00  0.00     0.009 A 
BRANCH  11  15
HETATM   15  O   UNL     1       3.858  33.222  64.070  1.00  0.00    -0.352 OA
BRANCH  15  16
HETATM   16  C   UNL     1       3.296  34.491  64.400  1.00  0.00     0.171 C 
HETATM   17  C   UNL     1       3.320  35.351  63.149  1.00  0.00     0.034 C 
ENDBRANCH  15  16
ENDBRANCH  11  15
ENDBRANCH   7   9
ENDBRANCH   1   7
BRANCH   3  18
HETATM   18  C   UNL     1       7.251  29.508  57.784  1.00  0.00     0.059 A 
HETATM   19  C   UNL     1       8.310  29.175  56.918  1.00  0.00    -0.032 A 
HETATM   20  C   UNL     1       9.727  29.613  57.165  1.00  0.00     0.050 C 
HETATM   21  C   UNL     1       8.033  28.413  55.773  1.00  0.00     0.028 A 
HETATM   22  C   UNL     1       6.732  28.004  55.532  1.00  0.00     0.117 A 
HETATM   23  N   UNL     1       5.700  28.296  56.342  1.00  0.00    -0.271 NA
HETATM   24  C   UNL     1       5.980  29.038  57.445  1.00  0.00     0.146 A 
ENDBRANCH   3  18
TORSDOF 5
ENDMDL
MODEL 5
REMARK VINA RESULT:      -7.9      2.719      7.410
REMARK  5 active torsions:
REMARK  status: ('A' for Active; 'I' for Inactive)
REMARK    1  A    between atoms: C_2  and  O_3 
REMARK    2  A    between atoms: O_3  and  C_4 
REMARK    3  A    between atoms: C_6  and  C_7 
REMARK    4  A    between atoms: C_7  and  N_8 
REMARK       I    between atoms: N_8  and  C_9 
REMARK       I    between atoms: C_9  and  N_10 
REMARK    5  A    between atoms: N_10  and  C_11 
ROOT
HETATM    1  N   UNL     1       6.283  26.651  53.325  1.00  0.00    -0.335 N 
HETATM    2  C   UNL     1       6.759  27.647  54.121  1.00  0.00     0.321 C 
HETATM    3  N   UNL     1       6.257  27.702  55.389  1.00  0.00    -0.307 N 
HETATM    4  O   UNL     1       7.562  28.433  53.628  1.00  0.00    -0.247 OA
HETATM    5  H   UNL     1       6.737  26.691  52.420  1.00  0.00     0.165 HD
HETATM    6  H   UNL     1       5.408  27.188  55.543  1.00  0.00     0.170 HD
ENDROOT
BRANCH   1   7
HETATM    7  C   UNL     1       5.677  25.373  53.681  1.00  0.00     0.115 C 
HETATM    8  C   UNL     1       4.652  24.973  52.620  1.00  0.00     0.037 C 
BRANCH   7   9
HETATM    9  C   UNL     1       6.718  24.280  53.848  1.00  0.00    -0.033 A 
HETATM   10  C   UNL     1       7.087  23.796  55.116  1.00  0.00     0.046 A 
HETATM   11  C   UNL     1       8.076  22.817  55.265  1.00  0.00     0.069 A 
HETATM   12  C   UNL     1       8.721  22.320  54.136  1.00  0.00     0.037 A 
HETATM   13  C   UNL     1       8.373  22.794  52.868  1.00  0.00     0.003 A 
HETATM   14  C   UNL     1       7.380  23.765  52.725  1.00  0.00     0.009 A 
BRANCH  11  15
HETATM   15  O   UNL     1       8.316  22.448  56.560  1.00  0.00    -0.352 OA
BRANCH  15  16
HETATM   16  C   UNL     1       8.634  21.078  56.798  1.00  0.00     0.171 C 
HETATM   17  C   UNL     1       7.489  20.233  56.270  1.00  0.00     0.034 C 
ENDBRANCH  15  16
ENDBRANCH  11  15
ENDBRANCH   7   9
ENDBRANCH   1   7
BRANCH   3  18
HETATM   18  C   UNL     1       6.644  28.600  56.414  1.00  0.00     0.059 A 
HETATM   19  C   UNL     1       7.647  28.218  57.326  1.00  0.00    -0.032 A 
HETATM   20  C   UNL     1       8.325  26.878  57.271  1.00  0.00     0.050 C 
HETATM   21  C   UNL     1       8.022  29.120  58.333  1.00  0.00     0.028 A 
HETATM   22  C   UNL     1       7.405  30.358  58.398  1.00  0.00     0.117 A 
HETATM   23  N   UNL     1       6.451  30.757  57.537  1.00  0.00    -0.271 NA
HETATM   24  C   UNL     1       6.093  29.874  56.570  1.00  0.00     0.146 A 
ENDBRANCH   3  18
TORSDOF 5
ENDMDL
MODEL 6
REMARK VINA RESULT:      -7.5      2.603      3.224
REMARK  5 active torsions:
REMARK  status: ('A' for Active; 'I' for Inactive)
REMARK    1  A    between atoms: C_2  and  O_3 
REMARK    2  A    between atoms: O_3  and  C_4 
REMARK    3  A    between atoms: C_6  and  C_7 
REMARK    4  A    between atoms: C_7  and  N_8 
REMARK       I    between atoms: N_8  and  C_9 
REMARK       I    between atoms: C_9  and  N_10 
REMARK    5  A    between atoms: N_10  and  C_11 
ROOT
HETATM    1  N   UNL     1       5.472  26.502  52.525  1.00  0.00    -0.335 N 
HETATM    2  C   UNL     1       5.634  25.199  52.884  1.00  0.00     0.321 C 
HETATM    3  N   UNL     1       6.888  24.831  53.277  1.00  0.00    -0.307 N 
HETATM    4  O   UNL     1       4.661  24.458  52.786  1.00  0.00    -0.247 OA
HETATM    5  H   UNL     1       4.505  26.669  52.274  1.00  0.00     0.165 HD
HETATM    6  H   UNL     1       7.626  25.462  53.023  1.00  0.00     0.170 HD
ENDROOT
BRANCH   1   7
HETATM    7  C   UNL     1       6.251  27.681  52.889  1.00  0.00     0.115 C 
HETATM    8  C   UNL     1       5.665  28.918  52.208  1.00  0.00     0.037 C 
BRANCH   7   9
HETATM    9  C   UNL     1       6.304  27.881  54.394  1.00  0.00    -0.033 A 
HETATM   10  C   UNL     1       7.524  27.922  55.093  1.00  0.00     0.046 A 
HETATM   11  C   UNL     1       7.564  28.067  56.484  1.00  0.00     0.069 A 
HETATM   12  C   UNL     1       6.371  28.158  57.196  1.00  0.00     0.037 A 
HETATM   13  C   UNL     1       5.150  28.112  56.520  1.00  0.00     0.003 A 
HETATM   14  C   UNL     1       5.115  27.975  55.131  1.00  0.00     0.009 A 
BRANCH  11  15
HETATM   15  O   UNL     1       8.825  28.096  57.014  1.00  0.00    -0.352 OA
BRANCH  15  16
HETATM   16  C   UNL     1       9.345  29.370  57.388  1.00  0.00     0.171 C 
HETATM   17  C   UNL     1      10.653  29.577  56.644  1.00  0.00     0.034 C 
ENDBRANCH  15  16
ENDBRANCH  11  15
ENDBRANCH   7   9
ENDBRANCH   1   7
BRANCH   3  18
HETATM   18  C   UNL     1       7.284  23.558  53.756  1.00  0.00     0.059 A 
HETATM   19  C   UNL     1       7.269  23.303  55.141  1.00  0.00    -0.032 A 
HETATM   20  C   UNL     1       6.861  24.339  56.150  1.00  0.00     0.050 C 
HETATM   21  C   UNL     1       7.661  22.036  55.599  1.00  0.00     0.028 A 
HETATM   22  C   UNL     1       8.041  21.073  54.680  1.00  0.00     0.117 A 
HETATM   23  N   UNL     1       8.057  21.280  53.351  1.00  0.00    -0.271 NA
HETATM   24  C   UNL     1       7.681  22.511  52.921  1.00  0.00     0.146 A 
ENDBRANCH   3  18
TORSDOF 5
ENDMDL
MODEL 7
REMARK VINA RESULT:      -7.5      2.958      7.692
REMARK  5 active torsions:
REMARK  status: ('A' for Active; 'I' for Inactive)
REMARK    1  A    between atoms: C_2  and  O_3 
REMARK    2  A    between atoms: O_3  and  C_4 
REMARK    3  A    between atoms: C_6  and  C_7 
REMARK    4  A    between atoms: C_7  and  N_8 
REMARK       I    between atoms: N_8  and  C_9 
REMARK       I    between atoms: C_9  and  N_10 
REMARK    5  A    between atoms: N_10  and  C_11 
ROOT
HETATM    1  N   UNL     1       5.977  27.518  56.182  1.00  0.00    -0.335 N 
HETATM    2  C   UNL     1       6.551  28.711  56.497  1.00  0.00     0.321 C 
HETATM    3  N   UNL     1       7.348  28.726  57.605  1.00  0.00    -0.307 N 
HETATM    4  O   UNL     1       6.276  29.677  55.791  1.00  0.00    -0.247 OA
HETATM    5  H   UNL     1       5.429  27.616  55.336  1.00  0.00     0.165 HD
HETATM    6  H   UNL     1       7.237  27.949  58.231  1.00  0.00     0.170 HD
ENDROOT
BRANCH   1   7
HETATM    7  C   UNL     1       6.383  26.159  56.528  1.00  0.00     0.115 C 
HETATM    8  C   UNL     1       5.198  25.403  57.129  1.00  0.00     0.037 C 
BRANCH   7   9
HETATM    9  C   UNL     1       6.934  25.411  55.327  1.00  0.00    -0.033 A 
HETATM   10  C   UNL     1       6.672  25.830  54.010  1.00  0.00     0.046 A 
HETATM   11  C   UNL     1       7.149  25.113  52.907  1.00  0.00     0.069 A 
HETATM   12  C   UNL     1       7.887  23.951  53.115  1.00  0.00     0.037 A 
HETATM   13  C   UNL     1       8.151  23.515  54.415  1.00  0.00     0.003 A 
HETATM   14  C   UNL     1       7.679  24.238  55.513  1.00  0.00     0.009 A 
BRANCH  11  15
HETATM   15  O   UNL     1       6.816  25.652  51.695  1.00  0.00    -0.352 OA
BRANCH  15  16
HETATM   16  C   UNL     1       5.427  25.735  51.379  1.00  0.00     0.171 C 
HETATM   17  C   UNL     1       5.170  27.098  50.761  1.00  0.00     0.034 C 
ENDBRANCH  15  16
ENDBRANCH  11  15
ENDBRANCH   7   9
ENDBRANCH   1   7
BRANCH   3  18
HETATM   18  C   UNL     1       8.100  29.824  58.089  1.00  0.00     0.059 A 
HETATM   19  C   UNL     1       9.454  29.952  57.723  1.00  0.00    -0.032 A 
HETATM   20  C   UNL     1      10.152  28.956  56.841  1.00  0.00     0.050 C 
HETATM   21  C   UNL     1      10.185  31.047  58.209  1.00  0.00     0.028 A 
HETATM   22  C   UNL     1       9.555  31.972  59.025  1.00  0.00     0.117 A 
HETATM   23  N   UNL     1       8.263  31.885  59.386  1.00  0.00    -0.271 NA
HETATM   24  C   UNL     1       7.567  30.818  58.913  1.00  0.00     0.146 A 
ENDBRANCH   3  18
TORSDOF 5
ENDMDL
MODEL 8
REMARK VINA RESULT:      -7.5      3.124      8.440
REMARK  5 active torsions:
REMARK  status: ('A' for Active; 'I' for Inactive)
REMARK    1  A    between atoms: C_2  and  O_3 
REMARK    2  A    between atoms: O_3  and  C_4 
REMARK    3  A    between atoms: C_6  and  C_7 
REMARK    4  A    between atoms: C_7  and  N_8 
REMARK       I    between atoms: N_8  and  C_9 
REMARK       I    between atoms: C_9  and  N_10 
REMARK    5  A    between atoms: N_10  and  C_11 
ROOT
HETATM    1  N   UNL     1       8.012  28.488  57.131  1.00  0.00    -0.335 N 
HETATM    2  C   UNL     1       8.497  29.454  57.958  1.00  0.00     0.321 C 
HETATM    3  N   UNL     1       7.724  29.774  59.036  1.00  0.00    -0.307 N 
HETATM    4  O   UNL     1       9.560  29.984  57.649  1.00  0.00    -0.247 OA
HETATM    5  H   UNL     1       8.672  28.316  56.383  1.00  0.00     0.165 HD
HETATM    6  H   UNL     1       6.767  29.474  58.988  1.00  0.00     0.170 HD
ENDROOT
BRANCH   1   7
HETATM    7  C   UNL     1       7.051  27.421  57.395  1.00  0.00     0.115 C 
HETATM    8  C   UNL     1       5.684  27.806  56.830  1.00  0.00     0.037 C 
BRANCH   7   9
HETATM    9  C   UNL     1       7.508  26.093  56.816  1.00  0.00    -0.033 A 
HETATM   10  C   UNL     1       6.924  25.552  55.657  1.00  0.00     0.046 A 
HETATM   11  C   UNL     1       7.322  24.310  55.151  1.00  0.00     0.069 A 
HETATM   12  C   UNL     1       8.307  23.584  55.816  1.00  0.00     0.037 A 
HETATM   13  C   UNL     1       8.893  24.103  56.973  1.00  0.00     0.003 A 
HETATM   14  C   UNL     1       8.498  25.347  57.469  1.00  0.00     0.009 A 
BRANCH  11  15
HETATM   15  O   UNL     1       6.664  23.924  54.015  1.00  0.00    -0.352 OA
BRANCH  15  16
HETATM   16  C   UNL     1       7.464  23.546  52.896  1.00  0.00     0.171 C 
HETATM   17  C   UNL     1       7.925  24.815  52.202  1.00  0.00     0.034 C 
ENDBRANCH  15  16
ENDBRANCH  11  15
ENDBRANCH   7   9
ENDBRANCH   1   7
BRANCH   3  18
HETATM   18  C   UNL     1       8.046  30.693  60.064  1.00  0.00     0.059 A 
HETATM   19  C   UNL     1       7.307  31.885  60.184  1.00  0.00    -0.032 A 
HETATM   20  C   UNL     1       6.185  32.241  59.250  1.00  0.00     0.050 C 
HETATM   21  C   UNL     1       7.636  32.784  61.210  1.00  0.00     0.028 A 
HETATM   22  C   UNL     1       8.669  32.471  62.078  1.00  0.00     0.117 A 
HETATM   23  N   UNL     1       9.388  31.338  61.997  1.00  0.00    -0.271 NA
HETATM   24  C   UNL     1       9.063  30.478  60.997  1.00  0.00     0.146 A 
ENDBRANCH   3  18
TORSDOF 5
ENDMDL
MODEL 9
REMARK VINA RESULT:      -7.4      4.750      7.518
REMARK  5 active torsions:
REMARK  status: ('A' for Active; 'I' for Inactive)
REMARK    1  A    between atoms: C_2  and  O_3 
REMARK    2  A    between atoms: O_3  and  C_4 
REMARK    3  A    between atoms: C_6  and  C_7 
REMARK    4  A    between atoms: C_7  and  N_8 
REMARK       I    between atoms: N_8  and  C_9 
REMARK       I    between atoms: C_9  and  N_10 
REMARK    5  A    between atoms: N_10  and  C_11 
ROOT
HETATM    1  N   UNL     1       5.674  27.594  54.335  1.00  0.00    -0.335 N 
HETATM    2  C   UNL     1       4.962  27.888  53.213  1.00  0.00     0.321 C 
HETATM    3  N   UNL     1       5.683  28.279  52.122  1.00  0.00    -0.307 N 
HETATM    4  O   UNL     1       3.738  27.819  53.282  1.00  0.00    -0.247 OA
HETATM    5  H   UNL     1       5.044  27.296  55.070  1.00  0.00     0.165 HD
HETATM    6  H   UNL     1       6.627  28.569  52.306  1.00  0.00     0.170 HD
ENDROOT
BRANCH   1   7
HETATM    7  C   UNL     1       7.068  27.191  54.483  1.00  0.00     0.115 C 
HETATM    8  C   UNL     1       7.489  27.316  55.948  1.00  0.00     0.037 C 
BRANCH   7   9
HETATM    9  C   UNL     1       7.304  25.776  53.985  1.00  0.00    -0.033 A 
HETATM   10  C   UNL     1       7.168  24.661  54.831  1.00  0.00     0.046 A 
HETATM   11  C   UNL     1       7.425  23.363  54.377  1.00  0.00     0.069 A 
HETATM   12  C   UNL     1       7.838  23.169  53.061  1.00  0.00     0.037 A 
HETATM   13  C   UNL     1       7.986  24.265  52.208  1.00  0.00     0.003 A 
HETATM   14  C   UNL     1       7.721  25.558  52.665  1.00  0.00     0.009 A 
BRANCH  11  15
HETATM   15  O   UNL     1       7.241  22.387  55.317  1.00  0.00    -0.352 OA
BRANCH  15  16
HETATM   16  C   UNL     1       8.406  21.714  55.793  1.00  0.00     0.171 C 
HETATM   17  C   UNL     1       7.986  20.337  56.274  1.00  0.00     0.034 C 
ENDBRANCH  15  16
ENDBRANCH  11  15
ENDBRANCH   7   9
ENDBRANCH   1   7
BRANCH   3  18
HETATM   18  C   UNL     1       5.175  28.570  50.833  1.00  0.00     0.059 A 
HETATM   19  C   UNL     1       4.827  27.513  49.970  1.00  0.00    -0.032 A 
HETATM   20  C   UNL     1       4.986  26.068  50.355  1.00  0.00     0.050 C 
HETATM   21  C   UNL     1       4.322  27.817  48.697  1.00  0.00     0.028 A 
HETATM   22  C   UNL     1       4.172  29.143  48.329  1.00  0.00     0.117 A 
HETATM   23  N   UNL     1       4.485  30.176  49.130  1.00  0.00    -0.271 NA
HETATM   24  C   UNL     1       4.977  29.869  50.358  1.00  0.00     0.146 A 
ENDBRANCH   3  18
TORSDOF 5
ENDMDL
MODEL 10
REMARK VINA RESULT:      -7.3      6.495     11.286
REMARK  5 active torsions:
REMARK  status: ('A' for Active; 'I' for Inactive)
REMARK    1  A    between atoms: C_2  and  O_3 
REMARK    2  A    between atoms: O_3  and  C_4 
REMARK    3  A    between atoms: C_6  and  C_7 
REMARK    4  A    between atoms: C_7  and  N_8 
REMARK       I    between atoms: N_8  and  C_9 
REMARK       I    between atoms: C_9  and  N_10 
REMARK    5  A    between atoms: N_10  and  C_11 
ROOT
HETATM    1  N   UNL     1       6.559  31.183  62.239  1.00  0.00    -0.335 N 
HETATM    2  C   UNL     1       5.687  31.826  63.063  1.00  0.00     0.321 C 
HETATM    3  N   UNL     1       6.043  33.082  63.461  1.00  0.00    -0.307 N 
HETATM    4  O   UNL     1       4.682  31.215  63.413  1.00  0.00    -0.247 OA
HETATM    5  H   UNL     1       6.187  30.274  61.990  1.00  0.00     0.165 HD
HETATM    6  H   UNL     1       7.011  33.319  63.336  1.00  0.00     0.170 HD
ENDROOT
BRANCH   1   7
HETATM    7  C   UNL     1       7.579  31.723  61.346  1.00  0.00     0.115 C 
HETATM    8  C   UNL     1       8.969  31.349  61.863  1.00  0.00     0.037 C 
BRANCH   7   9
HETATM    9  C   UNL     1       7.398  31.235  59.919  1.00  0.00    -0.033 A 
HETATM   10  C   UNL     1       8.290  30.322  59.330  1.00  0.00     0.046 A 
HETATM   11  C   UNL     1       8.140  29.907  58.002  1.00  0.00     0.069 A 
HETATM   12  C   UNL     1       7.093  30.419  57.240  1.00  0.00     0.037 A 
HETATM   13  C   UNL     1       6.200  31.332  57.807  1.00  0.00     0.003 A 
HETATM   14  C   UNL     1       6.350  31.737  59.134  1.00  0.00     0.009 A 
BRANCH  11  15
HETATM   15  O   UNL     1       9.085  29.013  57.578  1.00  0.00    -0.352 OA
BRANCH  15  16
HETATM   16  C   UNL     1       9.966  29.440  56.541  1.00  0.00     0.171 C 
HETATM   17  C   UNL     1      11.295  29.804  57.178  1.00  0.00     0.034 C 
ENDBRANCH  15  16
ENDBRANCH  11  15
ENDBRANCH   7   9
ENDBRANCH   1   7
BRANCH   3  18
HETATM   18  C   UNL     1       5.275  33.965  64.258  1.00  0.00     0.059 A 
HETATM   19  C   UNL     1       4.842  35.190  63.713  1.00  0.00    -0.032 A 
HETATM   20  C   UNL     1       5.175  35.616  62.311  1.00  0.00     0.050 C 
HETATM   21  C   UNL     1       4.079  36.053  64.514  1.00  0.00     0.028 A 
HETATM   22  C   UNL     1       3.766  35.675  65.808  1.00  0.00     0.117 A 
HETATM   23  N   UNL     1       4.155  34.510  66.356  1.00  0.00    -0.271 NA
HETATM   24  C   UNL     1       4.897  33.685  65.573  1.00  0.00     0.146 A 
ENDBRANCH   3  18
TORSDOF 5
ENDMDL
