MODEL 1
REMARK VINA RESULT:      -9.9      0.000      0.000
REMARK  8 active torsions:
REMARK  status: ('A' for Active; 'I' for Inactive)
REMARK    1  A    between atoms: C_7  and  C_8 
REMARK    2  A    between atoms: C_8  and  O_9 
REMARK    3  A    between atoms: O_9  and  C_10 
REMARK    4  A    between atoms: C_13  and  C_14 
REMARK       I    between atoms: C_14  and  N_15 
REMARK    5  A    between atoms: N_15  and  C_16 
REMARK    6  A    between atoms: C_16  and  C_17 
REMARK    7  A    between atoms: C_20  and  C_21 
REMARK    8  A    between atoms: C_21  and  N_22 
ROOT
HETATM    1  C   UNL     1       9.254  31.188  58.677  1.00  0.00     0.251 C 
HETATM    2  N   UNL     1       8.585  30.181  58.015  1.00  0.00    -0.353 N 
HETATM    3  O   UNL     1      10.173  31.829  58.179  1.00  0.00    -0.268 OA
HETATM    4  H   UNL     1       7.741  29.789  58.408  1.00  0.00     0.163 HD
ENDROOT
BRANCH   1   5
HETATM    5  C   UNL     1       8.817  31.465  60.072  1.00  0.00     0.032 A 
HETATM    6  C   UNL     1       9.071  30.569  61.116  1.00  0.00     0.020 A 
HETATM    7  C   UNL     1       8.708  30.900  62.423  1.00  0.00     0.038 A 
HETATM    8  C   UNL     1       8.106  32.129  62.706  1.00  0.00     0.069 A 
HETATM    9  C   UNL     1       7.831  33.015  61.665  1.00  0.00     0.038 A 
HETATM   10  C   UNL     1       8.197  32.689  60.353  1.00  0.00     0.020 A 
BRANCH   8  11
HETATM   11  O   UNL     1       7.841  32.335  64.029  1.00  0.00    -0.347 OA
BRANCH  11  12
HETATM   12  C   UNL     1       7.533  33.669  64.435  1.00  0.00     0.219 C 
BRANCH  12  13
HETATM   13  C   UNL     1       6.166  33.715  65.019  1.00  0.00     0.024 A 
HETATM   14  C   UNL     1       5.810  33.991  66.367  1.00  0.00     0.069 A 
HETATM   15  C   UNL     1       6.706  34.292  67.508  1.00  0.00     0.073 C 
HETATM   16  N   UNL     1       4.485  33.948  66.543  1.00  0.00    -0.133 NA
HETATM   17  O   UNL     1       3.953  33.626  65.311  1.00  0.00    -0.217 OA
HETATM   18  C   UNL     1       4.955  33.484  64.404  1.00  0.00     0.085 A 
HETATM   19  C   UNL     1       4.549  33.119  63.035  1.00  0.00     0.079 C 
ENDBRANCH  12  13
ENDBRANCH  11  12
ENDBRANCH   8  11
ENDBRANCH   1   5
BRANCH   2  20
HETATM   20  C   UNL     1       9.013  29.716  56.713  1.00  0.00     0.161 C 
BRANCH  20  21
HETATM   21  C   UNL     1       8.443  28.360  56.351  1.00  0.00    -0.041 A 
HETATM   22  C   UNL     1       8.376  27.308  57.275  1.00  0.00     0.009 A 
HETATM   23  C   UNL     1       7.880  26.057  56.902  1.00  0.00     0.009 A 
HETATM   24  C   UNL     1       7.409  25.835  55.602  1.00  0.00    -0.033 A 
HETATM   25  C   UNL     1       7.432  26.895  54.686  1.00  0.00     0.009 A 
HETATM   26  C   UNL     1       7.945  28.142  55.058  1.00  0.00     0.009 A 
BRANCH  24  27
HETATM   27  C   UNL     1       6.897  24.479  55.202  1.00  0.00     0.273 C 
BRANCH  27  28
HETATM   28  N   UNL     1       7.991  23.482  54.904  1.00  0.00    -0.067 N 
HETATM   29  H   UNL     1       8.835  23.830  55.376  1.00  0.00     0.280 HD
HETATM   30  C   UNL     1       8.325  23.324  53.434  1.00  0.00     0.235 C 
HETATM   31  C   UNL     1       7.657  22.021  53.049  1.00  0.00     0.029 C 
HETATM   32  C   UNL     1       7.900  21.156  54.267  1.00  0.00     0.029 C 
HETATM   33  C   UNL     1       7.666  22.096  55.436  1.00  0.00     0.235 C 
ENDBRANCH  27  28
ENDBRANCH  24  27
ENDBRANCH  20  21
ENDBRANCH   2  20
TORSDOF 8
ENDMDL
MODEL 2
REMARK VINA RESULT:      -9.7      2.470     11.495
REMARK  8 active torsions:
REMARK  status: ('A' for Active; 'I' for Inactive)
REMARK    1  A    between atoms: C_7  and  C_8 
REMARK    2  A    between atoms: C_8  and  O_9 
REMARK    3  A    between atoms: O_9  and  C_10 
REMARK    4  A    between atoms: C_13  and  C_14 
REMARK       I    between atoms: C_14  and  N_15 
REMARK    5  A    between atoms: N_15  and  C_16 
REMARK    6  A    between atoms: C_16  and  C_17 
REMARK    7  A    between atoms: C_20  and  C_21 
REMARK    8  A    between atoms: C_21  and  N_22 
ROOT
HETATM    1  C   UNL     1       9.514  31.002  58.865  1.00  0.00     0.251 C 
HETATM    2  N   UNL     1       9.297  30.702  60.193  1.00  0.00    -0.353 N 
HETATM    3  O   UNL     1      10.080  32.021  58.486  1.00  0.00    -0.268 OA
HETATM    4  H   UNL     1       8.967  29.786  60.459  1.00  0.00     0.163 HD
ENDROOT
BRANCH   1   5
HETATM    5  C   UNL     1       9.004  30.016  57.873  1.00  0.00     0.032 A 
HETATM    6  C   UNL     1       7.868  29.239  58.125  1.00  0.00     0.020 A 
HETATM    7  C   UNL     1       7.380  28.379  57.138  1.00  0.00     0.038 A 
HETATM    8  C   UNL     1       8.006  28.295  55.893  1.00  0.00     0.069 A 
HETATM    9  C   UNL     1       9.151  29.050  55.647  1.00  0.00     0.038 A 
HETATM   10  C   UNL     1       9.642  29.918  56.630  1.00  0.00     0.020 A 
BRANCH   8  11
HETATM   11  O   UNL     1       7.400  27.443  55.014  1.00  0.00    -0.347 OA
BRANCH  11  12
HETATM   12  C   UNL     1       6.696  26.328  55.562  1.00  0.00     0.219 C 
BRANCH  12  13
HETATM   13  C   UNL     1       7.468  25.080  55.325  1.00  0.00     0.024 A 
HETATM   14  C   UNL     1       8.373  24.441  56.215  1.00  0.00     0.069 A 
HETATM   15  C   UNL     1       8.767  24.862  57.579  1.00  0.00     0.073 C 
HETATM   16  N   UNL     1       8.893  23.333  55.675  1.00  0.00    -0.133 NA
HETATM   17  O   UNL     1       8.345  23.239  54.411  1.00  0.00    -0.217 OA
HETATM   18  C   UNL     1       7.499  24.282  54.202  1.00  0.00     0.085 A 
HETATM   19  C   UNL     1       6.844  24.336  52.882  1.00  0.00     0.079 C 
ENDBRANCH  12  13
ENDBRANCH  11  12
ENDBRANCH   8  11
ENDBRANCH   1   5
BRANCH   2  20
HETATM   20  C   UNL     1       9.611  31.647  61.243  1.00  0.00     0.161 C 
BRANCH  20  21
HETATM   21  C   UNL     1       8.385  32.132  61.989  1.00  0.00    -0.041 A 
HETATM   22  C   UNL     1       8.451  32.604  63.306  1.00  0.00     0.009 A 
HETATM   23  C   UNL     1       7.298  33.009  63.982  1.00  0.00     0.009 A 
HETATM   24  C   UNL     1       6.051  32.982  63.345  1.00  0.00    -0.033 A 
HETATM   25  C   UNL     1       5.984  32.552  62.013  1.00  0.00     0.009 A 
HETATM   26  C   UNL     1       7.139  32.132  61.345  1.00  0.00     0.009 A 
BRANCH  24  27
HETATM   27  C   UNL     1       4.810  33.398  64.085  1.00  0.00     0.273 C 
BRANCH  27  28
HETATM   28  N   UNL     1       5.035  34.534  65.053  1.00  0.00    -0.067 N 
HETATM   29  H   UNL     1       5.893  35.011  64.745  1.00  0.00     0.280 HD
HETATM   30  C   UNL     1       5.244  34.111  66.493  1.00  0.00     0.235 C 
HETATM   31  C   UNL     1       3.916  34.412  67.155  1.00  0.00     0.029 C 
HETATM   32  C   UNL     1       3.515  35.719  66.506  1.00  0.00     0.029 C 
HETATM   33  C   UNL     1       3.889  35.532  65.046  1.00  0.00     0.235 C 
ENDBRANCH  27  28
ENDBRANCH  24  27
ENDBRANCH  20  21
ENDBRANCH   2  20
TORSDOF 8
ENDMDL
MODEL 3
REMARK VINA RESULT:      -9.6      2.425     11.736
REMARK  8 active torsions:
REMARK  status: ('A' for Active; 'I' for Inactive)
REMARK    1  A    between atoms: C_7  and  C_8 
REMARK    2  A    between atoms: C_8  and  O_9 
REMARK    3  A    between atoms: O_9  and  C_10 
REMARK    4  A    between atoms: C_13  and  C_14 
REMARK       I    between atoms: C_14  and  N_15 
REMARK    5  A    between atoms: N_15  and  C_16 
REMARK    6  A    between atoms: C_16  and  C_17 
REMARK    7  A    between atoms: C_20  and  C_21 
REMARK    8  A    between atoms: C_21  and  N_22 
ROOT
HETATM    1  C   UNL     1       9.469  31.067  58.888  1.00  0.00     0.251 C 
HETATM    2  N   UNL     1       9.253  30.750  60.212  1.00  0.00    -0.353 N 
HETATM    3  O   UNL     1      10.075  32.068  58.523  1.00  0.00    -0.268 OA
HETATM    4  H   UNL     1       8.886  29.844  60.464  1.00  0.00     0.163 HD
ENDROOT
BRANCH   1   5
HETATM    5  C   UNL     1       8.906  30.124  57.883  1.00  0.00     0.032 A 
HETATM    6  C   UNL     1       9.559  29.860  56.674  1.00  0.00     0.020 A 
HETATM    7  C   UNL     1       9.033  28.914  55.791  1.00  0.00     0.038 A 
HETATM    8  C   UNL     1       7.866  28.214  56.108  1.00  0.00     0.069 A 
HETATM    9  C   UNL     1       7.201  28.492  57.301  1.00  0.00     0.038 A 
HETATM   10  C   UNL     1       7.726  29.436  58.192  1.00  0.00     0.020 A 
BRANCH   8  11
HETATM   11  O   UNL     1       7.489  27.295  55.171  1.00  0.00    -0.347 OA
BRANCH  11  12
HETATM   12  C   UNL     1       6.792  26.137  55.633  1.00  0.00     0.219 C 
BRANCH  12  13
HETATM   13  C   UNL     1       7.631  24.928  55.425  1.00  0.00     0.024 A 
HETATM   14  C   UNL     1       7.710  24.120  54.258  1.00  0.00     0.069 A 
HETATM   15  C   UNL     1       6.978  24.282  52.981  1.00  0.00     0.073 C 
HETATM   16  N   UNL     1       8.569  23.108  54.419  1.00  0.00    -0.133 NA
HETATM   17  O   UNL     1       9.055  23.229  55.706  1.00  0.00    -0.217 OA
HETATM   18  C   UNL     1       8.494  24.311  56.305  1.00  0.00     0.085 A 
HETATM   19  C   UNL     1       8.899  24.568  57.699  1.00  0.00     0.079 C 
ENDBRANCH  12  13
ENDBRANCH  11  12
ENDBRANCH   8  11
ENDBRANCH   1   5
BRANCH   2  20
HETATM   20  C   UNL     1       9.618  31.659  61.277  1.00  0.00     0.161 C 
BRANCH  20  21
HETATM   21  C   UNL     1       8.421  32.319  61.929  1.00  0.00    -0.041 A 
HETATM   22  C   UNL     1       7.361  32.850  61.181  1.00  0.00     0.009 A 
HETATM   23  C   UNL     1       6.289  33.486  61.809  1.00  0.00     0.009 A 
HETATM   24  C   UNL     1       6.232  33.579  63.205  1.00  0.00    -0.033 A 
HETATM   25  C   UNL     1       7.266  33.011  63.961  1.00  0.00     0.009 A 
HETATM   26  C   UNL     1       8.347  32.389  63.328  1.00  0.00     0.009 A 
BRANCH  24  27
HETATM   27  C   UNL     1       5.084  34.284  63.874  1.00  0.00     0.273 C 
BRANCH  27  28
HETATM   28  N   UNL     1       5.465  34.979  65.158  1.00  0.00    -0.067 N 
HETATM   29  H   UNL     1       6.460  35.222  65.070  1.00  0.00     0.280 HD
HETATM   30  C   UNL     1       5.313  34.135  66.407  1.00  0.00     0.235 C 
HETATM   31  C   UNL     1       4.038  34.650  67.040  1.00  0.00     0.029 C 
HETATM   32  C   UNL     1       4.133  36.142  66.801  1.00  0.00     0.029 C 
HETATM   33  C   UNL     1       4.666  36.252  65.383  1.00  0.00     0.235 C 
ENDBRANCH  27  28
ENDBRANCH  24  27
ENDBRANCH  20  21
ENDBRANCH   2  20
TORSDOF 8
ENDMDL
MODEL 4
REMARK VINA RESULT:      -9.5      2.147      3.660
REMARK  8 active torsions:
REMARK  status: ('A' for Active; 'I' for Inactive)
REMARK    1  A    between atoms: C_7  and  C_8 
REMARK    2  A    between atoms: C_8  and  O_9 
REMARK    3  A    between atoms: O_9  and  C_10 
REMARK    4  A    between atoms: C_13  and  C_14 
REMARK       I    between atoms: C_14  and  N_15 
REMARK    5  A    between atoms: N_15  and  C_16 
REMARK    6  A    between atoms: C_16  and  C_17 
REMARK    7  A    between atoms: C_20  and  C_21 
REMARK    8  A    between atoms: C_21  and  N_22 
ROOT
HETATM    1  C   UNL     1       8.870  31.685  61.526  1.00  0.00     0.251 C 
HETATM    2  N   UNL     1       8.901  32.197  60.246  1.00  0.00    -0.353 N 
HETATM    3  O   UNL     1       9.700  30.892  61.957  1.00  0.00    -0.268 OA
HETATM    4  H   UNL     1       8.290  32.958  59.989  1.00  0.00     0.163 HD
ENDROOT
BRANCH   1   5
HETATM    5  C   UNL     1       7.745  32.134  62.390  1.00  0.00     0.032 A 
HETATM    6  C   UNL     1       6.411  31.877  62.056  1.00  0.00     0.020 A 
HETATM    7  C   UNL     1       5.389  32.252  62.930  1.00  0.00     0.038 A 
HETATM    8  C   UNL     1       5.683  32.870  64.148  1.00  0.00     0.069 A 
HETATM    9  C   UNL     1       7.009  33.148  64.474  1.00  0.00     0.038 A 
HETATM   10  C   UNL     1       8.039  32.770  63.603  1.00  0.00     0.020 A 
BRANCH   8  11
HETATM   11  O   UNL     1       4.590  33.146  64.918  1.00  0.00    -0.347 OA
BRANCH  11  12
HETATM   12  C   UNL     1       3.635  34.070  64.394  1.00  0.00     0.219 C 
BRANCH  12  13
HETATM   13  C   UNL     1       4.221  35.436  64.364  1.00  0.00     0.024 A 
HETATM   14  C   UNL     1       4.629  36.177  63.222  1.00  0.00     0.069 A 
HETATM   15  C   UNL     1       4.574  35.771  61.799  1.00  0.00     0.073 C 
HETATM   16  N   UNL     1       5.114  37.376  63.562  1.00  0.00    -0.133 NA
HETATM   17  O   UNL     1       5.046  37.431  64.940  1.00  0.00    -0.217 OA
HETATM   18  C   UNL     1       4.518  36.274  65.417  1.00  0.00     0.085 A 
HETATM   19  C   UNL     1       4.396  36.167  66.883  1.00  0.00     0.079 C 
ENDBRANCH  12  13
ENDBRANCH  11  12
ENDBRANCH   8  11
ENDBRANCH   1   5
BRANCH   2  20
HETATM   20  C   UNL     1       9.854  31.725  59.265  1.00  0.00     0.161 C 
BRANCH  20  21
HETATM   21  C   UNL     1       9.325  30.578  58.429  1.00  0.00    -0.041 A 
HETATM   22  C   UNL     1      10.054  30.031  57.365  1.00  0.00     0.009 A 
HETATM   23  C   UNL     1       9.524  28.999  56.588  1.00  0.00     0.009 A 
HETATM   24  C   UNL     1       8.261  28.466  56.875  1.00  0.00    -0.033 A 
HETATM   25  C   UNL     1       7.545  28.978  57.965  1.00  0.00     0.009 A 
HETATM   26  C   UNL     1       8.072  30.023  58.731  1.00  0.00     0.009 A 
BRANCH  24  27
HETATM   27  C   UNL     1       7.687  27.369  56.021  1.00  0.00     0.273 C 
BRANCH  27  28
HETATM   28  N   UNL     1       7.294  26.137  56.799  1.00  0.00    -0.067 N 
HETATM   29  H   UNL     1       6.692  26.461  57.566  1.00  0.00     0.280 HD
HETATM   30  C   UNL     1       8.452  25.380  57.418  1.00  0.00     0.235 C 
HETATM   31  C   UNL     1       8.636  24.189  56.503  1.00  0.00     0.029 C 
HETATM   32  C   UNL     1       7.210  23.809  56.167  1.00  0.00     0.029 C 
HETATM   33  C   UNL     1       6.518  25.144  55.950  1.00  0.00     0.235 C 
ENDBRANCH  27  28
ENDBRANCH  24  27
ENDBRANCH  20  21
ENDBRANCH   2  20
TORSDOF 8
ENDMDL
MODEL 5
REMARK VINA RESULT:      -9.0      3.652     12.126
REMARK  8 active torsions:
REMARK  status: ('A' for Active; 'I' for Inactive)
REMARK    1  A    between atoms: C_7  and  C_8 
REMARK    2  A    between atoms: C_8  and  O_9 
REMARK    3  A    between atoms: O_9  and  C_10 
REMARK    4  A    between atoms: C_13  and  C_14 
REMARK       I    between atoms: C_14  and  N_15 
REMARK    5  A    between atoms: N_15  and  C_16 
REMARK    6  A    between atoms: C_16  and  C_17 
REMARK    7  A    between atoms: C_20  and  C_21 
REMARK    8  A    between atoms: C_21  and  N_22 
ROOT
HETATM    1  C   UNL     1       5.450  29.033  56.832  1.00  0.00     0.251 C 
HETATM    2  N   UNL     1       4.648  29.451  57.872  1.00  0.00    -0.353 N 
HETATM    3  O   UNL     1       5.714  29.732  55.860  1.00  0.00    -0.268 OA
HETATM    4  H   UNL     1       4.584  28.901  58.717  1.00  0.00     0.163 HD
ENDROOT
BRANCH   1   5
HETATM    5  C   UNL     1       5.988  27.649  56.928  1.00  0.00     0.032 A 
HETATM    6  C   UNL     1       5.301  26.553  56.395  1.00  0.00     0.020 A 
HETATM    7  C   UNL     1       5.875  25.281  56.442  1.00  0.00     0.038 A 
HETATM    8  C   UNL     1       7.140  25.090  57.004  1.00  0.00     0.069 A 
HETATM    9  C   UNL     1       7.817  26.176  57.557  1.00  0.00     0.038 A 
HETATM   10  C   UNL     1       7.248  27.455  57.508  1.00  0.00     0.020 A 
BRANCH   8  11
HETATM   11  O   UNL     1       7.593  23.803  56.948  1.00  0.00    -0.347 OA
BRANCH  11  12
HETATM   12  C   UNL     1       8.710  23.538  56.099  1.00  0.00     0.219 C 
BRANCH  12  13
HETATM   13  C   UNL     1       8.310  22.596  55.020  1.00  0.00     0.024 A 
HETATM   14  C   UNL     1       7.963  22.913  53.680  1.00  0.00     0.069 A 
HETATM   15  C   UNL     1       7.911  24.247  53.038  1.00  0.00     0.073 C 
HETATM   16  N   UNL     1       7.653  21.816  52.980  1.00  0.00    -0.133 NA
HETATM   17  O   UNL     1       7.778  20.761  53.862  1.00  0.00    -0.217 OA
HETATM   18  C   UNL     1       8.166  21.226  55.078  1.00  0.00     0.085 A 
HETATM   19  C   UNL     1       8.326  20.218  56.141  1.00  0.00     0.079 C 
ENDBRANCH  12  13
ENDBRANCH  11  12
ENDBRANCH   8  11
ENDBRANCH   1   5
BRANCH   2  20
HETATM   20  C   UNL     1       3.945  30.716  57.826  1.00  0.00     0.161 C 
BRANCH  20  21
HETATM   21  C   UNL     1       4.234  31.598  59.023  1.00  0.00    -0.041 A 
HETATM   22  C   UNL     1       5.515  32.099  59.290  1.00  0.00     0.009 A 
HETATM   23  C   UNL     1       5.758  32.879  60.422  1.00  0.00     0.009 A 
HETATM   24  C   UNL     1       4.718  33.203  61.302  1.00  0.00    -0.033 A 
HETATM   25  C   UNL     1       3.426  32.742  61.018  1.00  0.00     0.009 A 
HETATM   26  C   UNL     1       3.189  31.948  59.892  1.00  0.00     0.009 A 
BRANCH  24  27
HETATM   27  C   UNL     1       4.992  34.025  62.532  1.00  0.00     0.273 C 
BRANCH  27  28
HETATM   28  N   UNL     1       4.306  33.506  63.772  1.00  0.00    -0.067 N 
HETATM   29  H   UNL     1       3.925  32.583  63.526  1.00  0.00     0.280 HD
HETATM   30  C   UNL     1       3.154  34.357  64.266  1.00  0.00     0.235 C 
HETATM   31  C   UNL     1       3.734  35.102  65.449  1.00  0.00     0.029 C 
HETATM   32  C   UNL     1       4.602  34.049  66.105  1.00  0.00     0.029 C 
HETATM   33  C   UNL     1       5.269  33.345  64.936  1.00  0.00     0.235 C 
ENDBRANCH  27  28
ENDBRANCH  24  27
ENDBRANCH  20  21
ENDBRANCH   2  20
TORSDOF 8
ENDMDL
MODEL 6
REMARK VINA RESULT:      -9.0      2.717     11.811
REMARK  8 active torsions:
REMARK  status: ('A' for Active; 'I' for Inactive)
REMARK    1  A    between atoms: C_7  and  C_8 
REMARK    2  A    between atoms: C_8  and  O_9 
REMARK    3  A    between atoms: O_9  and  C_10 
REMARK    4  A    between atoms: C_13  and  C_14 
REMARK       I    between atoms: C_14  and  N_15 
REMARK    5  A    between atoms: N_15  and  C_16 
REMARK    6  A    between atoms: C_16  and  C_17 
REMARK    7  A    between atoms: C_20  and  C_21 
REMARK    8  A    between atoms: C_21  and  N_22 
ROOT
HETATM    1  C   UNL     1       9.406  31.048  59.019  1.00  0.00     0.251 C 
HETATM    2  N   UNL     1       9.063  30.718  60.312  1.00  0.00    -0.353 N 
HETATM    3  O   UNL     1      10.184  31.953  58.736  1.00  0.00    -0.268 OA
HETATM    4  H   UNL     1       8.542  29.873  60.499  1.00  0.00     0.163 HD
ENDROOT
BRANCH   1   5
HETATM    5  C   UNL     1       8.762  30.250  57.940  1.00  0.00     0.032 A 
HETATM    6  C   UNL     1       7.383  30.015  57.920  1.00  0.00     0.020 A 
HETATM    7  C   UNL     1       6.810  29.323  56.851  1.00  0.00     0.038 A 
HETATM    8  C   UNL     1       7.597  28.873  55.789  1.00  0.00     0.069 A 
HETATM    9  C   UNL     1       8.975  29.085  55.816  1.00  0.00     0.038 A 
HETATM   10  C   UNL     1       9.554  29.782  56.884  1.00  0.00     0.020 A 
BRANCH   8  11
HETATM   11  O   UNL     1       6.900  28.246  54.797  1.00  0.00    -0.347 OA
BRANCH  11  12
HETATM   12  C   UNL     1       7.653  27.521  53.823  1.00  0.00     0.219 C 
BRANCH  12  13
HETATM   13  C   UNL     1       6.887  26.326  53.382  1.00  0.00     0.024 A 
HETATM   14  C   UNL     1       5.920  26.252  52.344  1.00  0.00     0.069 A 
HETATM   15  C   UNL     1       5.441  27.340  51.460  1.00  0.00     0.073 C 
HETATM   16  N   UNL     1       5.427  25.015  52.218  1.00  0.00    -0.133 NA
HETATM   17  O   UNL     1       6.056  24.261  53.188  1.00  0.00    -0.217 OA
HETATM   18  C   UNL     1       6.923  25.042  53.884  1.00  0.00     0.085 A 
HETATM   19  C   UNL     1       7.663  24.384  54.975  1.00  0.00     0.079 C 
ENDBRANCH  12  13
ENDBRANCH  11  12
ENDBRANCH   8  11
ENDBRANCH   1   5
BRANCH   2  20
HETATM   20  C   UNL     1       9.503  31.513  61.439  1.00  0.00     0.161 C 
BRANCH  20  21
HETATM   21  C   UNL     1       8.387  32.328  62.059  1.00  0.00    -0.041 A 
HETATM   22  C   UNL     1       7.350  32.878  61.295  1.00  0.00     0.009 A 
HETATM   23  C   UNL     1       6.356  33.657  61.890  1.00  0.00     0.009 A 
HETATM   24  C   UNL     1       6.357  33.881  63.272  1.00  0.00    -0.033 A 
HETATM   25  C   UNL     1       7.366  33.298  64.049  1.00  0.00     0.009 A 
HETATM   26  C   UNL     1       8.370  32.532  63.447  1.00  0.00     0.009 A 
BRANCH  24  27
HETATM   27  C   UNL     1       5.295  34.740  63.903  1.00  0.00     0.273 C 
BRANCH  27  28
HETATM   28  N   UNL     1       4.500  34.032  64.973  1.00  0.00    -0.067 N 
HETATM   29  H   UNL     1       4.393  33.060  64.656  1.00  0.00     0.280 HD
HETATM   30  C   UNL     1       3.111  34.590  65.208  1.00  0.00     0.235 C 
HETATM   31  C   UNL     1       3.253  35.392  66.483  1.00  0.00     0.029 C 
HETATM   32  C   UNL     1       4.177  34.527  67.313  1.00  0.00     0.029 C 
HETATM   33  C   UNL     1       5.212  34.035  66.315  1.00  0.00     0.235 C 
ENDBRANCH  27  28
ENDBRANCH  24  27
ENDBRANCH  20  21
ENDBRANCH   2  20
TORSDOF 8
ENDMDL
MODEL 7
REMARK VINA RESULT:      -9.0      1.636      2.457
REMARK  8 active torsions:
REMARK  status: ('A' for Active; 'I' for Inactive)
REMARK    1  A    between atoms: C_7  and  C_8 
REMARK    2  A    between atoms: C_8  and  O_9 
REMARK    3  A    between atoms: O_9  and  C_10 
REMARK    4  A    between atoms: C_13  and  C_14 
REMARK       I    between atoms: C_14  and  N_15 
REMARK    5  A    between atoms: N_15  and  C_16 
REMARK    6  A    between atoms: C_16  and  C_17 
REMARK    7  A    between atoms: C_20  and  C_21 
REMARK    8  A    between atoms: C_21  and  N_22 
ROOT
HETATM    1  C   UNL     1       6.830  31.683  59.202  1.00  0.00     0.251 C 
HETATM    2  N   UNL     1       7.364  30.466  58.837  1.00  0.00    -0.353 N 
HETATM    3  O   UNL     1       6.285  32.447  58.413  1.00  0.00    -0.268 OA
HETATM    4  H   UNL     1       7.663  29.810  59.544  1.00  0.00     0.163 HD
ENDROOT
BRANCH   1   5
HETATM    5  C   UNL     1       6.958  32.057  60.637  1.00  0.00     0.032 A 
HETATM    6  C   UNL     1       5.855  32.465  61.394  1.00  0.00     0.020 A 
HETATM    7  C   UNL     1       6.006  32.737  62.756  1.00  0.00     0.038 A 
HETATM    8  C   UNL     1       7.248  32.591  63.378  1.00  0.00     0.069 A 
HETATM    9  C   UNL     1       8.355  32.208  62.622  1.00  0.00     0.038 A 
HETATM   10  C   UNL     1       8.208  31.929  61.257  1.00  0.00     0.020 A 
BRANCH   8  11
HETATM   11  O   UNL     1       7.242  32.854  64.718  1.00  0.00    -0.347 OA
BRANCH  11  12
HETATM   12  C   UNL     1       6.995  34.202  65.120  1.00  0.00     0.219 C 
BRANCH  12  13
HETATM   13  C   UNL     1       6.033  34.221  66.254  1.00  0.00     0.024 A 
HETATM   14  C   UNL     1       4.614  34.176  66.186  1.00  0.00     0.069 A 
HETATM   15  C   UNL     1       3.757  34.106  64.980  1.00  0.00     0.073 C 
HETATM   16  N   UNL     1       4.063  34.211  67.403  1.00  0.00    -0.133 NA
HETATM   17  O   UNL     1       5.118  34.296  68.290  1.00  0.00    -0.217 OA
HETATM   18  C   UNL     1       6.291  34.306  67.605  1.00  0.00     0.085 A 
HETATM   19  C   UNL     1       7.518  34.413  68.414  1.00  0.00     0.079 C 
ENDBRANCH  12  13
ENDBRANCH  11  12
ENDBRANCH   8  11
ENDBRANCH   1   5
BRANCH   2  20
HETATM   20  C   UNL     1       7.436  30.057  57.451  1.00  0.00     0.161 C 
BRANCH  20  21
HETATM   21  C   UNL     1       7.252  28.565  57.264  1.00  0.00    -0.041 A 
HETATM   22  C   UNL     1       8.336  27.677  57.229  1.00  0.00     0.009 A 
HETATM   23  C   UNL     1       8.138  26.312  57.017  1.00  0.00     0.009 A 
HETATM   24  C   UNL     1       6.846  25.793  56.866  1.00  0.00    -0.033 A 
HETATM   25  C   UNL     1       5.755  26.668  56.944  1.00  0.00     0.009 A 
HETATM   26  C   UNL     1       5.958  28.038  57.140  1.00  0.00     0.009 A 
BRANCH  24  27
HETATM   27  C   UNL     1       6.641  24.324  56.616  1.00  0.00     0.273 C 
BRANCH  27  28
HETATM   28  N   UNL     1       7.897  23.600  56.193  1.00  0.00    -0.067 N 
HETATM   29  H   UNL     1       8.620  24.322  56.079  1.00  0.00     0.280 HD
HETATM   30  C   UNL     1       7.788  22.853  54.879  1.00  0.00     0.235 C 
HETATM   31  C   UNL     1       7.640  21.406  55.297  1.00  0.00     0.029 C 
HETATM   32  C   UNL     1       8.587  21.305  56.472  1.00  0.00     0.029 C 
HETATM   33  C   UNL     1       8.362  22.599  57.236  1.00  0.00     0.235 C 
ENDBRANCH  27  28
ENDBRANCH  24  27
ENDBRANCH  20  21
ENDBRANCH   2  20
TORSDOF 8
ENDMDL
MODEL 8
REMARK VINA RESULT:      -8.9      1.889      2.803
REMARK  8 active torsions:
REMARK  status: ('A' for Active; 'I' for Inactive)
REMARK    1  A    between atoms: C_7  and  C_8 
REMARK    2  A    between atoms: C_8  and  O_9 
REMARK    3  A    between atoms: O_9  and  C_10 
REMARK    4  A    between atoms: C_13  and  C_14 
REMARK       I    between atoms: C_14  and  N_15 
REMARK    5  A    between atoms: N_15  and  C_16 
REMARK    6  A    between atoms: C_16  and  C_17 
REMARK    7  A    between atoms: C_20  and  C_21 
REMARK    8  A    between atoms: C_21  and  N_22 
ROOT
HETATM    1  C   UNL     1       8.538  31.896  59.976  1.00  0.00     0.251 C 
HETATM    2  N   UNL     1       8.354  30.736  59.253  1.00  0.00    -0.353 N 
HETATM    3  O   UNL     1       9.433  32.701  59.745  1.00  0.00    -0.268 OA
HETATM    4  H   UNL     1       7.517  30.186  59.382  1.00  0.00     0.163 HD
ENDROOT
BRANCH   1   5
HETATM    5  C   UNL     1       7.587  32.135  61.095  1.00  0.00     0.032 A 
HETATM    6  C   UNL     1       8.029  32.347  62.405  1.00  0.00     0.020 A 
HETATM    7  C   UNL     1       7.107  32.639  63.413  1.00  0.00     0.038 A 
HETATM    8  C   UNL     1       5.744  32.738  63.126  1.00  0.00     0.069 A 
HETATM    9  C   UNL     1       5.297  32.504  61.826  1.00  0.00     0.038 A 
HETATM   10  C   UNL     1       6.217  32.215  60.811  1.00  0.00     0.020 A 
BRANCH   8  11
HETATM   11  O   UNL     1       4.964  33.066  64.197  1.00  0.00    -0.347 OA
BRANCH  11  12
HETATM   12  C   UNL     1       3.905  33.997  63.976  1.00  0.00     0.219 C 
BRANCH  12  13
HETATM   13  C   UNL     1       4.371  35.374  64.290  1.00  0.00     0.024 A 
HETATM   14  C   UNL     1       4.941  36.319  63.395  1.00  0.00     0.069 A 
HETATM   15  C   UNL     1       5.213  36.162  61.947  1.00  0.00     0.073 C 
HETATM   16  N   UNL     1       5.248  37.462  64.018  1.00  0.00    -0.133 NA
HETATM   17  O   UNL     1       4.895  37.275  65.340  1.00  0.00    -0.217 OA
HETATM   18  C   UNL     1       4.376  36.030  65.502  1.00  0.00     0.085 A 
HETATM   19  C   UNL     1       3.966  35.667  66.871  1.00  0.00     0.079 C 
ENDBRANCH  12  13
ENDBRANCH  11  12
ENDBRANCH   8  11
ENDBRANCH   1   5
BRANCH   2  20
HETATM   20  C   UNL     1       9.299  30.317  58.241  1.00  0.00     0.161 C 
BRANCH  20  21
HETATM   21  C   UNL     1       8.721  29.303  57.275  1.00  0.00    -0.041 A 
HETATM   22  C   UNL     1       8.920  29.393  55.891  1.00  0.00     0.009 A 
HETATM   23  C   UNL     1       8.343  28.464  55.022  1.00  0.00     0.009 A 
HETATM   24  C   UNL     1       7.578  27.402  55.518  1.00  0.00    -0.033 A 
HETATM   25  C   UNL     1       7.412  27.281  56.905  1.00  0.00     0.009 A 
HETATM   26  C   UNL     1       7.977  28.223  57.771  1.00  0.00     0.009 A 
BRANCH  24  27
HETATM   27  C   UNL     1       6.941  26.418  54.576  1.00  0.00     0.273 C 
BRANCH  27  28
HETATM   28  N   UNL     1       7.897  25.371  54.057  1.00  0.00    -0.067 N 
HETATM   29  H   UNL     1       8.838  25.778  54.130  1.00  0.00     0.280 HD
HETATM   30  C   UNL     1       7.683  24.976  52.610  1.00  0.00     0.235 C 
HETATM   31  C   UNL     1       6.981  23.638  52.699  1.00  0.00     0.029 C 
HETATM   32  C   UNL     1       7.687  22.975  53.863  1.00  0.00     0.029 C 
HETATM   33  C   UNL     1       7.850  24.093  54.877  1.00  0.00     0.235 C 
ENDBRANCH  27  28
ENDBRANCH  24  27
ENDBRANCH  20  21
ENDBRANCH   2  20
TORSDOF 8
ENDMDL
MODEL 9
REMARK VINA RESULT:      -8.9      3.105     12.204
REMARK  8 active torsions:
REMARK  status: ('A' for Active; 'I' for Inactive)
REMARK    1  A    between atoms: C_7  and  C_8 
REMARK    2  A    between atoms: C_8  and  O_9 
REMARK    3  A    between atoms: O_9  and  C_10 
REMARK    4  A    between atoms: C_13  and  C_14 
REMARK       I    between atoms: C_14  and  N_15 
REMARK    5  A    between atoms: N_15  and  C_16 
REMARK    6  A    between atoms: C_16  and  C_17 
REMARK    7  A    between atoms: C_20  and  C_21 
REMARK    8  A    between atoms: C_21  and  N_22 
ROOT
HETATM    1  C   UNL     1       7.221  29.863  58.012  1.00  0.00     0.251 C 
HETATM    2  N   UNL     1       6.034  30.527  58.242  1.00  0.00    -0.353 N 
HETATM    3  O   UNL     1       8.323  30.381  58.153  1.00  0.00    -0.268 OA
HETATM    4  H   UNL     1       5.163  30.016  58.260  1.00  0.00     0.163 HD
ENDROOT
BRANCH   1   5
HETATM    5  C   UNL     1       7.110  28.452  57.552  1.00  0.00     0.032 A 
HETATM    6  C   UNL     1       5.885  27.896  57.168  1.00  0.00     0.020 A 
HETATM    7  C   UNL     1       5.837  26.590  56.674  1.00  0.00     0.038 A 
HETATM    8  C   UNL     1       7.004  25.835  56.543  1.00  0.00     0.069 A 
HETATM    9  C   UNL     1       8.224  26.377  56.946  1.00  0.00     0.038 A 
HETATM   10  C   UNL     1       8.278  27.687  57.438  1.00  0.00     0.020 A 
BRANCH   8  11
HETATM   11  O   UNL     1       6.814  24.591  56.012  1.00  0.00    -0.347 OA
BRANCH  11  12
HETATM   12  C   UNL     1       7.906  23.673  56.084  1.00  0.00     0.219 C 
BRANCH  12  13
HETATM   13  C   UNL     1       7.844  22.727  54.939  1.00  0.00     0.024 A 
HETATM   14  C   UNL     1       7.823  21.307  54.991  1.00  0.00     0.069 A 
HETATM   15  C   UNL     1       7.860  20.433  56.186  1.00  0.00     0.073 C 
HETATM   16  N   UNL     1       7.766  20.772  53.766  1.00  0.00    -0.133 NA
HETATM   17  O   UNL     1       7.766  21.839  52.890  1.00  0.00    -0.217 OA
HETATM   18  C   UNL     1       7.817  23.003  53.589  1.00  0.00     0.085 A 
HETATM   19  C   UNL     1       7.843  24.243  52.792  1.00  0.00     0.079 C 
ENDBRANCH  12  13
ENDBRANCH  11  12
ENDBRANCH   8  11
ENDBRANCH   1   5
BRANCH   2  20
HETATM   20  C   UNL     1       6.004  31.941  58.547  1.00  0.00     0.161 C 
BRANCH  20  21
HETATM   21  C   UNL     1       5.830  32.225  60.024  1.00  0.00    -0.041 A 
HETATM   22  C   UNL     1       6.922  32.385  60.888  1.00  0.00     0.009 A 
HETATM   23  C   UNL     1       6.730  32.609  62.252  1.00  0.00     0.009 A 
HETATM   24  C   UNL     1       5.439  32.709  62.785  1.00  0.00    -0.033 A 
HETATM   25  C   UNL     1       4.343  32.594  61.920  1.00  0.00     0.009 A 
HETATM   26  C   UNL     1       4.538  32.353  60.556  1.00  0.00     0.009 A 
BRANCH  24  27
HETATM   27  C   UNL     1       5.240  32.928  64.259  1.00  0.00     0.273 C 
BRANCH  27  28
HETATM   28  N   UNL     1       4.890  34.352  64.619  1.00  0.00    -0.067 N 
HETATM   29  H   UNL     1       5.159  34.927  63.811  1.00  0.00     0.280 HD
HETATM   30  C   UNL     1       5.617  34.899  65.830  1.00  0.00     0.235 C 
HETATM   31  C   UNL     1       4.579  34.847  66.930  1.00  0.00     0.029 C 
HETATM   32  C   UNL     1       3.314  35.256  66.207  1.00  0.00     0.029 C 
HETATM   33  C   UNL     1       3.403  34.531  64.875  1.00  0.00     0.235 C 
ENDBRANCH  27  28
ENDBRANCH  24  27
ENDBRANCH  20  21
ENDBRANCH   2  20
TORSDOF 8
ENDMDL
MODEL 10
REMARK VINA RESULT:      -8.8      2.615      4.239
REMARK  8 active torsions:
REMARK  status: ('A' for Active; 'I' for Inactive)
REMARK    1  A    between atoms: C_7  and  C_8 
REMARK    2  A    between atoms: C_8  and  O_9 
REMARK    3  A    between atoms: O_9  and  C_10 
REMARK    4  A    between atoms: C_13  and  C_14 
REMARK       I    between atoms: C_14  and  N_15 
REMARK    5  A    between atoms: N_15  and  C_16 
REMARK    6  A    between atoms: C_16  and  C_17 
REMARK    7  A    between atoms: C_20  and  C_21 
REMARK    8  A    between atoms: C_21  and  N_22 
ROOT
HETATM    1  C   UNL     1       5.672  29.201  55.167  1.00  0.00     0.251 C 
HETATM    2  N   UNL     1       6.728  28.674  54.454  1.00  0.00    -0.353 N 
HETATM    3  O   UNL     1       4.497  29.024  54.865  1.00  0.00    -0.268 OA
HETATM    4  H   UNL     1       7.665  28.719  54.827  1.00  0.00     0.163 HD
ENDROOT
BRANCH   1   5
HETATM    5  C   UNL     1       6.024  30.037  56.347  1.00  0.00     0.032 A 
HETATM    6  C   UNL     1       5.380  31.250  56.610  1.00  0.00     0.020 A 
HETATM    7  C   UNL     1       5.690  31.968  57.767  1.00  0.00     0.038 A 
HETATM    8  C   UNL     1       6.629  31.479  58.679  1.00  0.00     0.069 A 
HETATM    9  C   UNL     1       7.290  30.281  58.410  1.00  0.00     0.038 A 
HETATM   10  C   UNL     1       6.979  29.555  57.252  1.00  0.00     0.020 A 
BRANCH   8  11
HETATM   11  O   UNL     1       6.804  32.263  59.782  1.00  0.00    -0.347 OA
BRANCH  11  12
HETATM   12  C   UNL     1       7.026  31.602  61.029  1.00  0.00     0.219 C 
BRANCH  12  13
HETATM   13  C   UNL     1       6.168  32.208  62.080  1.00  0.00     0.024 A 
HETATM   14  C   UNL     1       4.757  32.379  62.053  1.00  0.00     0.069 A 
HETATM   15  C   UNL     1       3.810  32.003  60.978  1.00  0.00     0.073 C 
HETATM   16  N   UNL     1       4.312  32.963  63.170  1.00  0.00    -0.133 NA
HETATM   17  O   UNL     1       5.432  33.199  63.942  1.00  0.00    -0.217 OA
HETATM   18  C   UNL     1       6.537  32.752  63.291  1.00  0.00     0.085 A 
HETATM   19  C   UNL     1       7.825  32.950  63.981  1.00  0.00     0.079 C 
ENDBRANCH  12  13
ENDBRANCH  11  12
ENDBRANCH   8  11
ENDBRANCH   1   5
BRANCH   2  20
HETATM   20  C   UNL     1       6.522  27.972  53.206  1.00  0.00     0.161 C 
BRANCH  20  21
HETATM   21  C   UNL     1       6.841  26.494  53.298  1.00  0.00    -0.041 A 
HETATM   22  C   UNL     1       7.847  25.897  52.526  1.00  0.00     0.009 A 
HETATM   23  C   UNL     1       8.093  24.526  52.604  1.00  0.00     0.009 A 
HETATM   24  C   UNL     1       7.359  23.718  53.482  1.00  0.00    -0.033 A 
HETATM   25  C   UNL     1       6.382  24.315  54.289  1.00  0.00     0.009 A 
HETATM   26  C   UNL     1       6.127  25.687  54.196  1.00  0.00     0.009 A 
BRANCH  24  27
HETATM   27  C   UNL     1       7.615  22.237  53.546  1.00  0.00     0.273 C 
BRANCH  27  28
HETATM   28  N   UNL     1       8.646  21.844  54.575  1.00  0.00    -0.067 N 
HETATM   29  H   UNL     1       9.542  22.228  54.247  1.00  0.00     0.280 HD
HETATM   30  C   UNL     1       8.830  20.351  54.754  1.00  0.00     0.235 C 
HETATM   31  C   UNL     1       8.093  20.046  56.040  1.00  0.00     0.029 C 
HETATM   32  C   UNL     1       8.430  21.243  56.903  1.00  0.00     0.029 C 
HETATM   33  C   UNL     1       8.338  22.420  55.947  1.00  0.00     0.235 C 
ENDBRANCH  27  28
ENDBRANCH  24  27
ENDBRANCH  20  21
ENDBRANCH   2  20
TORSDOF 8
ENDMDL
