MODEL 1
REMARK VINA RESULT:      -9.0      0.000      0.000
REMARK  6 active torsions:
REMARK  status: ('A' for Active; 'I' for Inactive)
REMARK    1  A    between atoms: C_2  and  C_3 
REMARK    2  A    between atoms: C_3  and  O_4 
REMARK    3  A    between atoms: O_4  and  C_5 
REMARK    4  A    between atoms: C_7  and  N_8 
REMARK       I    between atoms: N_8  and  C_9 
REMARK       I    between atoms: C_9  and  N_10 
REMARK    5  A    between atoms: N_10  and  C_11 
REMARK    6  A    between atoms: C_11  and  C_12 
ROOT
HETATM    1  N   UNL     1       8.164  28.212  56.221  1.00  0.00    -0.309 N 
HETATM    2  C   UNL     1       7.970  26.917  56.649  1.00  0.00     0.320 C 
HETATM    3  N   UNL     1       7.107  26.256  55.803  1.00  0.00    -0.339 N 
HETATM    4  O   UNL     1       8.419  26.405  57.663  1.00  0.00    -0.247 OA
HETATM    5  H   UNL     1       7.530  28.528  55.505  1.00  0.00     0.170 HD
HETATM    6  H   UNL     1       7.084  26.542  54.836  1.00  0.00     0.164 HD
ENDROOT
BRANCH   1   7
HETATM    7  C   UNL     1       8.927  29.212  56.858  1.00  0.00     0.039 A 
HETATM    8  C   UNL     1       8.239  30.110  57.682  1.00  0.00     0.066 A 
HETATM    9  C   UNL     1       8.923  31.095  58.401  1.00  0.00     0.070 A 
HETATM   10  C   UNL     1      10.301  31.225  58.249  1.00  0.00     0.037 A 
HETATM   11  C   UNL     1      10.991  30.350  57.408  1.00  0.00     0.005 A 
HETATM   12  C   UNL     1      10.308  29.342  56.721  1.00  0.00     0.030 A 
BRANCH   9  13
HETATM   13  O   UNL     1       8.131  31.865  59.208  1.00  0.00    -0.351 OA
BRANCH  13  14
HETATM   14  C   UNL     1       8.737  32.377  60.396  1.00  0.00     0.179 C 
BRANCH  14  15
HETATM   15  C   UNL     1       8.350  31.492  61.593  1.00  0.00     0.002 C 
HETATM   16  C   UNL     1       8.146  32.334  62.855  1.00  0.00     0.011 C 
HETATM   17  C   UNL     1       9.397  30.408  61.852  1.00  0.00     0.011 C 
ENDBRANCH  14  15
ENDBRANCH  13  14
ENDBRANCH   9  13
ENDBRANCH   1   7
BRANCH   3  18
HETATM   18  C   UNL     1       6.578  24.946  56.125  1.00  0.00     0.164 C 
BRANCH  18  19
HETATM   19  C   UNL     1       7.065  23.876  55.182  1.00  0.00    -0.023 A 
HETATM   20  C   UNL     1       7.422  22.629  55.694  1.00  0.00     0.127 A 
HETATM   21  N   UNL     1       7.844  21.585  54.945  1.00  0.00    -0.248 NA
HETATM   22  C   UNL     1       7.902  21.790  53.615  1.00  0.00     0.125 A 
HETATM   23 CL   UNL     1       8.433  20.439  52.702  1.00  0.00    -0.063 Cl
HETATM   24  C   UNL     1       7.564  22.977  52.992  1.00  0.00     0.045 A 
HETATM   25  C   UNL     1       7.134  24.033  53.793  1.00  0.00     0.013 A 
ENDBRANCH  18  19
ENDBRANCH   3  18
TORSDOF 6
ENDMDL
MODEL 2
REMARK VINA RESULT:      -8.2      4.158      9.621
REMARK  6 active torsions:
REMARK  status: ('A' for Active; 'I' for Inactive)
REMARK    1  A    between atoms: C_2  and  C_3 
REMARK    2  A    between atoms: C_3  and  O_4 
REMARK    3  A    between atoms: O_4  and  C_5 
REMARK    4  A    between atoms: C_7  and  N_8 
REMARK       I    between atoms: N_8  and  C_9 
REMARK       I    between atoms: C_9  and  N_10 
REMARK    5  A    between atoms: N_10  and  C_11 
REMARK    6  A    between atoms: C_11  and  C_12 
ROOT
HETATM    1  N   UNL     1       6.995  27.218  57.528  1.00  0.00    -0.309 N 
HETATM    2  C   UNL     1       7.933  28.227  57.549  1.00  0.00     0.320 C 
HETATM    3  N   UNL     1       7.688  29.091  58.593  1.00  0.00    -0.339 N 
HETATM    4  O   UNL     1       8.829  28.411  56.738  1.00  0.00    -0.247 OA
HETATM    5  H   UNL     1       6.197  27.362  58.127  1.00  0.00     0.170 HD
HETATM    6  H   UNL     1       7.240  28.719  59.417  1.00  0.00     0.164 HD
ENDROOT
BRANCH   1   7
HETATM    7  C   UNL     1       6.877  26.186  56.576  1.00  0.00     0.039 A 
HETATM    8  C   UNL     1       7.681  25.056  56.758  1.00  0.00     0.066 A 
HETATM    9  C   UNL     1       7.587  23.958  55.897  1.00  0.00     0.070 A 
HETATM   10  C   UNL     1       6.724  24.014  54.805  1.00  0.00     0.037 A 
HETATM   11  C   UNL     1       5.937  25.149  54.601  1.00  0.00     0.005 A 
HETATM   12  C   UNL     1       6.007  26.229  55.487  1.00  0.00     0.030 A 
BRANCH   9  13
HETATM   13  O   UNL     1       8.392  22.904  56.228  1.00  0.00    -0.351 OA
BRANCH  13  14
HETATM   14  C   UNL     1       9.141  22.315  55.163  1.00  0.00     0.179 C 
BRANCH  14  15
HETATM   15  C   UNL     1       8.717  20.847  54.988  1.00  0.00     0.002 C 
HETATM   16  C   UNL     1       8.005  20.636  53.649  1.00  0.00     0.011 C 
HETATM   17  C   UNL     1       7.821  20.380  56.135  1.00  0.00     0.011 C 
ENDBRANCH  14  15
ENDBRANCH  13  14
ENDBRANCH   9  13
ENDBRANCH   1   7
BRANCH   3  18
HETATM   18  C   UNL     1       8.404  30.342  58.730  1.00  0.00     0.164 C 
BRANCH  18  19
HETATM   19  C   UNL     1       8.154  31.011  60.058  1.00  0.00    -0.023 A 
HETATM   20  C   UNL     1       8.907  30.626  61.166  1.00  0.00     0.127 A 
HETATM   21  N   UNL     1       8.793  31.173  62.398  1.00  0.00    -0.248 NA
HETATM   22  C   UNL     1       7.891  32.165  62.529  1.00  0.00     0.125 A 
HETATM   23 CL   UNL     1       7.785  32.836  64.103  1.00  0.00    -0.063 Cl
HETATM   24  C   UNL     1       7.097  32.639  61.502  1.00  0.00     0.045 A 
HETATM   25  C   UNL     1       7.239  32.054  60.245  1.00  0.00     0.013 A 
ENDBRANCH  18  19
ENDBRANCH   3  18
TORSDOF 6
ENDMDL
MODEL 3
REMARK VINA RESULT:      -8.1      6.611      9.549
REMARK  6 active torsions:
REMARK  status: ('A' for Active; 'I' for Inactive)
REMARK    1  A    between atoms: C_2  and  C_3 
REMARK    2  A    between atoms: C_3  and  O_4 
REMARK    3  A    between atoms: O_4  and  C_5 
REMARK    4  A    between atoms: C_7  and  N_8 
REMARK       I    between atoms: N_8  and  C_9 
REMARK       I    between atoms: C_9  and  N_10 
REMARK    5  A    between atoms: N_10  and  C_11 
REMARK    6  A    between atoms: C_11  and  C_12 
ROOT
HETATM    1  N   UNL     1       4.932  25.103  52.307  1.00  0.00    -0.309 N 
HETATM    2  C   UNL     1       5.214  26.041  51.339  1.00  0.00     0.320 C 
HETATM    3  N   UNL     1       4.268  26.000  50.338  1.00  0.00    -0.339 N 
HETATM    4  O   UNL     1       6.189  26.777  51.294  1.00  0.00    -0.247 OA
HETATM    5  H   UNL     1       4.225  24.429  52.059  1.00  0.00     0.170 HD
HETATM    6  H   UNL     1       3.336  25.704  50.584  1.00  0.00     0.164 HD
ENDROOT
BRANCH   1   7
HETATM    7  C   UNL     1       5.701  24.802  53.449  1.00  0.00     0.039 A 
HETATM    8  C   UNL     1       6.811  23.969  53.268  1.00  0.00     0.066 A 
HETATM    9  C   UNL     1       7.665  23.667  54.333  1.00  0.00     0.070 A 
HETATM   10  C   UNL     1       7.375  24.152  55.606  1.00  0.00     0.037 A 
HETATM   11  C   UNL     1       6.254  24.962  55.799  1.00  0.00     0.005 A 
HETATM   12  C   UNL     1       5.424  25.293  54.724  1.00  0.00     0.030 A 
BRANCH   9  13
HETATM   13  O   UNL     1       8.738  22.888  53.999  1.00  0.00    -0.351 OA
BRANCH  13  14
HETATM   14  C   UNL     1       9.307  22.102  55.049  1.00  0.00     0.179 C 
BRANCH  14  15
HETATM   15  C   UNL     1       8.799  20.655  54.939  1.00  0.00     0.002 C 
HETATM   16  C   UNL     1       8.298  20.353  53.525  1.00  0.00     0.011 C 
HETATM   17  C   UNL     1       7.695  20.369  55.957  1.00  0.00     0.011 C 
ENDBRANCH  14  15
ENDBRANCH  13  14
ENDBRANCH   9  13
ENDBRANCH   1   7
BRANCH   3  18
HETATM   18  C   UNL     1       4.430  26.743  49.106  1.00  0.00     0.164 C 
BRANCH  18  19
HETATM   19  C   UNL     1       3.127  26.949  48.377  1.00  0.00    -0.023 A 
HETATM   20  C   UNL     1       2.298  28.006  48.750  1.00  0.00     0.127 A 
HETATM   21  N   UNL     1       1.122  28.306  48.152  1.00  0.00    -0.248 NA
HETATM   22  C   UNL     1       0.760  27.520  47.120  1.00  0.00     0.125 A 
HETATM   23 CL   UNL     1      -0.731  27.941  46.385  1.00  0.00    -0.063 Cl
HETATM   24  C   UNL     1       1.504  26.453  46.653  1.00  0.00     0.045 A 
HETATM   25  C   UNL     1       2.709  26.170  47.291  1.00  0.00     0.013 A 
ENDBRANCH  18  19
ENDBRANCH   3  18
TORSDOF 6
ENDMDL
MODEL 4
REMARK VINA RESULT:      -8.0      4.015      9.253
REMARK  6 active torsions:
REMARK  status: ('A' for Active; 'I' for Inactive)
REMARK    1  A    between atoms: C_2  and  C_3 
REMARK    2  A    between atoms: C_3  and  O_4 
REMARK    3  A    between atoms: O_4  and  C_5 
REMARK    4  A    between atoms: C_7  and  N_8 
REMARK       I    between atoms: N_8  and  C_9 
REMARK       I    between atoms: C_9  and  N_10 
REMARK    5  A    between atoms: N_10  and  C_11 
REMARK    6  A    between atoms: C_11  and  C_12 
ROOT
HETATM    1  N   UNL     1       7.844  28.447  54.343  1.00  0.00    -0.309 N 
HETATM    2  C   UNL     1       8.405  28.387  55.600  1.00  0.00     0.320 C 
HETATM    3  N   UNL     1       9.228  29.471  55.812  1.00  0.00    -0.339 N 
HETATM    4  O   UNL     1       8.278  27.487  56.417  1.00  0.00    -0.247 OA
HETATM    5  H   UNL     1       8.248  29.133  53.726  1.00  0.00     0.170 HD
HETATM    6  H   UNL     1       9.008  30.330  55.332  1.00  0.00     0.164 HD
ENDROOT
BRANCH   1   7
HETATM    7  C   UNL     1       7.002  27.491  53.742  1.00  0.00     0.039 A 
HETATM    8  C   UNL     1       7.596  26.300  53.310  1.00  0.00     0.066 A 
HETATM    9  C   UNL     1       6.827  25.271  52.758  1.00  0.00     0.070 A 
HETATM   10  C   UNL     1       5.459  25.456  52.578  1.00  0.00     0.037 A 
HETATM   11  C   UNL     1       4.863  26.652  52.982  1.00  0.00     0.005 A 
HETATM   12  C   UNL     1       5.629  27.663  53.569  1.00  0.00     0.030 A 
BRANCH   9  13
HETATM   13  O   UNL     1       7.532  24.145  52.432  1.00  0.00    -0.351 OA
BRANCH  13  14
HETATM   14  C   UNL     1       7.264  22.977  53.211  1.00  0.00     0.179 C 
BRANCH  14  15
HETATM   15  C   UNL     1       8.534  22.115  53.299  1.00  0.00     0.002 C 
HETATM   16  C   UNL     1       8.230  20.651  52.971  1.00  0.00     0.011 C 
HETATM   17  C   UNL     1       9.188  22.217  54.677  1.00  0.00     0.011 C 
ENDBRANCH  14  15
ENDBRANCH  13  14
ENDBRANCH   9  13
ENDBRANCH   1   7
BRANCH   3  18
HETATM   18  C   UNL     1      10.092  29.557  56.971  1.00  0.00     0.164 C 
BRANCH  18  19
HETATM   19  C   UNL     1       9.482  30.356  58.093  1.00  0.00    -0.023 A 
HETATM   20  C   UNL     1      10.052  31.578  58.447  1.00  0.00     0.127 A 
HETATM   21  N   UNL     1       9.576  32.394  59.416  1.00  0.00    -0.248 NA
HETATM   22  C   UNL     1       8.467  31.976  60.056  1.00  0.00     0.125 A 
HETATM   23 CL   UNL     1       7.892  33.044  61.268  1.00  0.00    -0.063 Cl
HETATM   24  C   UNL     1       7.808  30.792  59.785  1.00  0.00     0.045 A 
HETATM   25  C   UNL     1       8.324  29.974  58.782  1.00  0.00     0.013 A 
ENDBRANCH  18  19
ENDBRANCH   3  18
TORSDOF 6
ENDMDL
MODEL 5
REMARK VINA RESULT:      -7.9      4.673      9.867
REMARK  6 active torsions:
REMARK  status: ('A' for Active; 'I' for Inactive)
REMARK    1  A    between atoms: C_2  and  C_3 
REMARK    2  A    between atoms: C_3  and  O_4 
REMARK    3  A    between atoms: O_4  and  C_5 
REMARK    4  A    between atoms: C_7  and  N_8 
REMARK       I    between atoms: N_8  and  C_9 
REMARK       I    between atoms: C_9  and  N_10 
REMARK    5  A    between atoms: N_10  and  C_11 
REMARK    6  A    between atoms: C_11  and  C_12 
ROOT
HETATM    1  N   UNL     1       7.554  29.169  58.826  1.00  0.00    -0.309 N 
HETATM    2  C   UNL     1       8.336  30.217  59.259  1.00  0.00     0.320 C 
HETATM    3  N   UNL     1       7.973  30.594  60.533  1.00  0.00    -0.339 N 
HETATM    4  O   UNL     1       9.193  30.806  58.616  1.00  0.00    -0.247 OA
HETATM    5  H   UNL     1       6.747  28.972  59.396  1.00  0.00     0.170 HD
HETATM    6  H   UNL     1       7.586  29.889  61.141  1.00  0.00     0.164 HD
ENDROOT
BRANCH   1   7
HETATM    7  C   UNL     1       7.584  28.553  57.559  1.00  0.00     0.039 A 
HETATM    8  C   UNL     1       7.419  27.164  57.521  1.00  0.00     0.066 A 
HETATM    9  C   UNL     1       7.374  26.478  56.304  1.00  0.00     0.070 A 
HETATM   10  C   UNL     1       7.557  27.177  55.113  1.00  0.00     0.037 A 
HETATM   11  C   UNL     1       7.749  28.559  55.144  1.00  0.00     0.005 A 
HETATM   12  C   UNL     1       7.755  29.247  56.361  1.00  0.00     0.030 A 
BRANCH   9  13
HETATM   13  O   UNL     1       7.152  25.133  56.416  1.00  0.00    -0.351 OA
BRANCH  13  14
HETATM   14  C   UNL     1       8.289  24.284  56.251  1.00  0.00     0.179 C 
BRANCH  14  15
HETATM   15  C   UNL     1       7.911  23.085  55.365  1.00  0.00     0.002 C 
HETATM   16  C   UNL     1       9.145  22.250  55.011  1.00  0.00     0.011 C 
HETATM   17  C   UNL     1       7.201  23.533  54.087  1.00  0.00     0.011 C 
ENDBRANCH  14  15
ENDBRANCH  13  14
ENDBRANCH   9  13
ENDBRANCH   1   7
BRANCH   3  18
HETATM   18  C   UNL     1       8.499  31.793  61.152  1.00  0.00     0.164 C 
BRANCH  18  19
HETATM   19  C   UNL     1       7.635  32.291  62.281  1.00  0.00    -0.023 A 
HETATM   20  C   UNL     1       6.248  32.232  62.154  1.00  0.00     0.127 A 
HETATM   21  N   UNL     1       5.373  32.621  63.110  1.00  0.00    -0.248 NA
HETATM   22  C   UNL     1       5.909  33.082  64.257  1.00  0.00     0.125 A 
HETATM   23 CL   UNL     1       4.765  33.556  65.444  1.00  0.00    -0.063 Cl
HETATM   24  C   UNL     1       7.266  33.177  64.502  1.00  0.00     0.045 A 
HETATM   25  C   UNL     1       8.139  32.768  63.497  1.00  0.00     0.013 A 
ENDBRANCH  18  19
ENDBRANCH   3  18
TORSDOF 6
ENDMDL
MODEL 6
REMARK VINA RESULT:      -7.8      4.259      9.211
REMARK  6 active torsions:
REMARK  status: ('A' for Active; 'I' for Inactive)
REMARK    1  A    between atoms: C_2  and  C_3 
REMARK    2  A    between atoms: C_3  and  O_4 
REMARK    3  A    between atoms: O_4  and  C_5 
REMARK    4  A    between atoms: C_7  and  N_8 
REMARK       I    between atoms: N_8  and  C_9 
REMARK       I    between atoms: C_9  and  N_10 
REMARK    5  A    between atoms: N_10  and  C_11 
REMARK    6  A    between atoms: C_11  and  C_12 
ROOT
HETATM    1  N   UNL     1       7.303  26.983  57.697  1.00  0.00    -0.309 N 
HETATM    2  C   UNL     1       8.047  28.143  57.684  1.00  0.00     0.320 C 
HETATM    3  N   UNL     1       7.396  29.139  58.378  1.00  0.00    -0.339 N 
HETATM    4  O   UNL     1       9.102  28.331  57.098  1.00  0.00    -0.247 OA
HETATM    5  H   UNL     1       6.356  27.084  58.025  1.00  0.00     0.170 HD
HETATM    6  H   UNL     1       6.786  28.866  59.134  1.00  0.00     0.164 HD
ENDROOT
BRANCH   1   7
HETATM    7  C   UNL     1       7.608  25.772  57.044  1.00  0.00     0.039 A 
HETATM    8  C   UNL     1       6.846  25.446  55.917  1.00  0.00     0.066 A 
HETATM    9  C   UNL     1       7.118  24.294  55.172  1.00  0.00     0.070 A 
HETATM   10  C   UNL     1       8.123  23.426  55.593  1.00  0.00     0.037 A 
HETATM   11  C   UNL     1       8.870  23.731  56.732  1.00  0.00     0.005 A 
HETATM   12  C   UNL     1       8.620  24.903  57.451  1.00  0.00     0.030 A 
BRANCH   9  13
HETATM   13  O   UNL     1       6.331  24.131  54.067  1.00  0.00    -0.351 OA
BRANCH  13  14
HETATM   14  C   UNL     1       5.454  25.213  53.743  1.00  0.00     0.179 C 
BRANCH  14  15
HETATM   15  C   UNL     1       5.942  25.902  52.458  1.00  0.00     0.002 C 
HETATM   16  C   UNL     1       7.207  25.230  51.919  1.00  0.00     0.011 C 
HETATM   17  C   UNL     1       6.198  27.392  52.684  1.00  0.00     0.011 C 
ENDBRANCH  14  15
ENDBRANCH  13  14
ENDBRANCH   9  13
ENDBRANCH   1   7
BRANCH   3  18
HETATM   18  C   UNL     1       7.860  30.511  58.357  1.00  0.00     0.164 C 
BRANCH  18  19
HETATM   19  C   UNL     1       8.012  31.094  59.739  1.00  0.00    -0.023 A 
HETATM   20  C   UNL     1       7.002  31.910  60.247  1.00  0.00     0.127 A 
HETATM   21  N   UNL     1       7.014  32.465  61.481  1.00  0.00    -0.248 NA
HETATM   22  C   UNL     1       8.081  32.181  62.253  1.00  0.00     0.125 A 
HETATM   23 CL   UNL     1       8.051  32.896  63.811  1.00  0.00    -0.063 Cl
HETATM   24  C   UNL     1       9.135  31.377  61.862  1.00  0.00     0.045 A 
HETATM   25  C   UNL     1       9.093  30.822  60.585  1.00  0.00     0.013 A 
ENDBRANCH  18  19
ENDBRANCH   3  18
TORSDOF 6
ENDMDL
MODEL 7
REMARK VINA RESULT:      -7.8      5.496      8.507
REMARK  6 active torsions:
REMARK  status: ('A' for Active; 'I' for Inactive)
REMARK    1  A    between atoms: C_2  and  C_3 
REMARK    2  A    between atoms: C_3  and  O_4 
REMARK    3  A    between atoms: O_4  and  C_5 
REMARK    4  A    between atoms: C_7  and  N_8 
REMARK       I    between atoms: N_8  and  C_9 
REMARK       I    between atoms: C_9  and  N_10 
REMARK    5  A    between atoms: N_10  and  C_11 
REMARK    6  A    between atoms: C_11  and  C_12 
ROOT
HETATM    1  N   UNL     1       4.920  26.294  54.785  1.00  0.00    -0.309 N 
HETATM    2  C   UNL     1       4.936  27.567  54.260  1.00  0.00     0.320 C 
HETATM    3  N   UNL     1       3.717  27.869  53.692  1.00  0.00    -0.339 N 
HETATM    4  O   UNL     1       5.889  28.331  54.217  1.00  0.00    -0.247 OA
HETATM    5  H   UNL     1       4.129  25.730  54.519  1.00  0.00     0.170 HD
HETATM    6  H   UNL     1       2.897  27.425  54.076  1.00  0.00     0.164 HD
ENDROOT
BRANCH   1   7
HETATM    7  C   UNL     1       5.995  25.610  55.388  1.00  0.00     0.039 A 
HETATM    8  C   UNL     1       6.684  24.684  54.598  1.00  0.00     0.066 A 
HETATM    9  C   UNL     1       7.801  24.005  55.094  1.00  0.00     0.070 A 
HETATM   10  C   UNL     1       8.198  24.206  56.414  1.00  0.00     0.037 A 
HETATM   11  C   UNL     1       7.498  25.109  57.217  1.00  0.00     0.005 A 
HETATM   12  C   UNL     1       6.406  25.815  56.705  1.00  0.00     0.030 A 
BRANCH   9  13
HETATM   13  O   UNL     1       8.408  23.173  54.195  1.00  0.00    -0.351 OA
BRANCH  13  14
HETATM   14  C   UNL     1       9.283  22.180  54.734  1.00  0.00     0.179 C 
BRANCH  14  15
HETATM   15  C   UNL     1       8.630  20.794  54.605  1.00  0.00     0.002 C 
HETATM   16  C   UNL     1       7.868  20.666  53.284  1.00  0.00     0.011 C 
HETATM   17  C   UNL     1       7.693  20.504  55.778  1.00  0.00     0.011 C 
ENDBRANCH  14  15
ENDBRANCH  13  14
ENDBRANCH   9  13
ENDBRANCH   1   7
BRANCH   3  18
HETATM   18  C   UNL     1       3.521  29.065  52.899  1.00  0.00     0.164 C 
BRANCH  18  19
HETATM   19  C   UNL     1       3.265  28.761  51.445  1.00  0.00    -0.023 A 
HETATM   20  C   UNL     1       4.242  28.096  50.707  1.00  0.00     0.127 A 
HETATM   21  N   UNL     1       4.113  27.745  49.407  1.00  0.00    -0.248 NA
HETATM   22  C   UNL     1       2.945  28.063  48.815  1.00  0.00     0.125 A 
HETATM   23 CL   UNL     1       2.821  27.592  47.171  1.00  0.00    -0.063 Cl
HETATM   24  C   UNL     1       1.901  28.711  49.448  1.00  0.00     0.045 A 
HETATM   25  C   UNL     1       2.066  29.059  50.787  1.00  0.00     0.013 A 
ENDBRANCH  18  19
ENDBRANCH   3  18
TORSDOF 6
ENDMDL
MODEL 8
REMARK VINA RESULT:      -7.7      3.557      6.289
REMARK  6 active torsions:
REMARK  status: ('A' for Active; 'I' for Inactive)
REMARK    1  A    between atoms: C_2  and  C_3 
REMARK    2  A    between atoms: C_3  and  O_4 
REMARK    3  A    between atoms: O_4  and  C_5 
REMARK    4  A    between atoms: C_7  and  N_8 
REMARK       I    between atoms: N_8  and  C_9 
REMARK       I    between atoms: C_9  and  N_10 
REMARK    5  A    between atoms: N_10  and  C_11 
REMARK    6  A    between atoms: C_11  and  C_12 
ROOT
HETATM    1  N   UNL     1       7.182  30.961  61.290  1.00  0.00    -0.309 N 
HETATM    2  C   UNL     1       7.682  31.275  60.046  1.00  0.00     0.320 C 
HETATM    3  N   UNL     1       7.721  30.155  59.246  1.00  0.00    -0.339 N 
HETATM    4  O   UNL     1       8.108  32.361  59.680  1.00  0.00    -0.247 OA
HETATM    5  H   UNL     1       7.106  29.976  61.486  1.00  0.00     0.170 HD
HETATM    6  H   UNL     1       7.039  29.431  59.415  1.00  0.00     0.164 HD
ENDROOT
BRANCH   1   7
HETATM    7  C   UNL     1       7.050  31.825  62.396  1.00  0.00     0.039 A 
HETATM    8  C   UNL     1       5.750  32.175  62.779  1.00  0.00     0.066 A 
HETATM    9  C   UNL     1       5.522  32.978  63.901  1.00  0.00     0.070 A 
HETATM   10  C   UNL     1       6.606  33.487  64.613  1.00  0.00     0.037 A 
HETATM   11  C   UNL     1       7.906  33.164  64.221  1.00  0.00     0.005 A 
HETATM   12  C   UNL     1       8.128  32.330  63.122  1.00  0.00     0.030 A 
BRANCH   9  13
HETATM   13  O   UNL     1       4.203  33.194  64.189  1.00  0.00    -0.351 OA
BRANCH  13  14
HETATM   14  C   UNL     1       3.588  34.318  63.557  1.00  0.00     0.179 C 
BRANCH  14  15
HETATM   15  C   UNL     1       3.477  35.476  64.563  1.00  0.00     0.002 C 
HETATM   16  C   UNL     1       4.619  36.478  64.377  1.00  0.00     0.011 C 
HETATM   17  C   UNL     1       3.459  34.967  66.004  1.00  0.00     0.011 C 
ENDBRANCH  14  15
ENDBRANCH  13  14
ENDBRANCH   9  13
ENDBRANCH   1   7
BRANCH   3  18
HETATM   18  C   UNL     1       8.382  30.161  57.957  1.00  0.00     0.164 C 
BRANCH  18  19
HETATM   19  C   UNL     1       8.034  28.958  57.120  1.00  0.00    -0.023 A 
HETATM   20  C   UNL     1       7.757  27.746  57.751  1.00  0.00     0.127 A 
HETATM   21  N   UNL     1       7.405  26.610  57.108  1.00  0.00    -0.248 NA
HETATM   22  C   UNL     1       7.312  26.687  55.766  1.00  0.00     0.125 A 
HETATM   23 CL   UNL     1       6.855  25.227  54.992  1.00  0.00    -0.063 Cl
HETATM   24  C   UNL     1       7.551  27.834  55.032  1.00  0.00     0.045 A 
HETATM   25  C   UNL     1       7.912  28.988  55.725  1.00  0.00     0.013 A 
ENDBRANCH  18  19
ENDBRANCH   3  18
TORSDOF 6
ENDMDL
MODEL 9
REMARK VINA RESULT:      -7.3      3.708      6.420
REMARK  6 active torsions:
REMARK  status: ('A' for Active; 'I' for Inactive)
REMARK    1  A    between atoms: C_2  and  C_3 
REMARK    2  A    between atoms: C_3  and  O_4 
REMARK    3  A    between atoms: O_4  and  C_5 
REMARK    4  A    between atoms: C_7  and  N_8 
REMARK       I    between atoms: N_8  and  C_9 
REMARK       I    between atoms: C_9  and  N_10 
REMARK    5  A    between atoms: N_10  and  C_11 
REMARK    6  A    between atoms: C_11  and  C_12 
ROOT
HETATM    1  N   UNL     1       6.382  31.557  61.004  1.00  0.00    -0.309 N 
HETATM    2  C   UNL     1       7.035  31.635  59.795  1.00  0.00     0.320 C 
HETATM    3  N   UNL     1       6.568  30.669  58.931  1.00  0.00    -0.339 N 
HETATM    4  O   UNL     1       7.953  32.389  59.505  1.00  0.00    -0.247 OA
HETATM    5  H   UNL     1       5.827  30.727  61.140  1.00  0.00     0.170 HD
HETATM    6  H   UNL     1       5.612  30.364  59.039  1.00  0.00     0.164 HD
ENDROOT
BRANCH   1   7
HETATM    7  C   UNL     1       6.628  32.332  62.155  1.00  0.00     0.039 A 
HETATM    8  C   UNL     1       5.623  33.223  62.550  1.00  0.00     0.066 A 
HETATM    9  C   UNL     1       5.755  33.988  63.713  1.00  0.00     0.070 A 
HETATM   10  C   UNL     1       6.930  33.908  64.457  1.00  0.00     0.037 A 
HETATM   11  C   UNL     1       7.948  33.042  64.055  1.00  0.00     0.005 A 
HETATM   12  C   UNL     1       7.795  32.251  62.913  1.00  0.00     0.030 A 
BRANCH   9  13
HETATM   13  O   UNL     1       4.674  34.772  64.005  1.00  0.00    -0.351 OA
BRANCH  13  14
HETATM   14  C   UNL     1       4.933  35.961  64.755  1.00  0.00     0.179 C 
BRANCH  14  15
HETATM   15  C   UNL     1       4.694  37.192  63.865  1.00  0.00     0.002 C 
HETATM   16  C   UNL     1       3.537  36.950  62.891  1.00  0.00     0.011 C 
HETATM   17  C   UNL     1       5.954  37.580  63.093  1.00  0.00     0.011 C 
ENDBRANCH  14  15
ENDBRANCH  13  14
ENDBRANCH   9  13
ENDBRANCH   1   7
BRANCH   3  18
HETATM   18  C   UNL     1       7.215  30.402  57.663  1.00  0.00     0.164 C 
BRANCH  18  19
HETATM   19  C   UNL     1       7.129  28.952  57.261  1.00  0.00    -0.023 A 
HETATM   20  C   UNL     1       5.970  28.485  56.644  1.00  0.00     0.127 A 
HETATM   21  N   UNL     1       5.789  27.215  56.214  1.00  0.00    -0.248 NA
HETATM   22  C   UNL     1       6.821  26.370  56.398  1.00  0.00     0.125 A 
HETATM   23 CL   UNL     1       6.554  24.774  55.830  1.00  0.00    -0.063 Cl
HETATM   24  C   UNL     1       8.022  26.721  56.986  1.00  0.00     0.045 A 
HETATM   25  C   UNL     1       8.176  28.036  57.418  1.00  0.00     0.013 A 
ENDBRANCH  18  19
ENDBRANCH   3  18
TORSDOF 6
ENDMDL
MODEL 10
REMARK VINA RESULT:      -7.2      3.790      6.448
REMARK  6 active torsions:
REMARK  status: ('A' for Active; 'I' for Inactive)
REMARK    1  A    between atoms: C_2  and  C_3 
REMARK    2  A    between atoms: C_3  and  O_4 
REMARK    3  A    between atoms: O_4  and  C_5 
REMARK    4  A    between atoms: C_7  and  N_8 
REMARK       I    between atoms: N_8  and  C_9 
REMARK       I    between atoms: C_9  and  N_10 
REMARK    5  A    between atoms: N_10  and  C_11 
REMARK    6  A    between atoms: C_11  and  C_12 
ROOT
HETATM    1  N   UNL     1       6.160  31.732  60.790  1.00  0.00    -0.309 N 
HETATM    2  C   UNL     1       6.859  31.662  59.606  1.00  0.00     0.320 C 
HETATM    3  N   UNL     1       6.183  30.882  58.693  1.00  0.00    -0.339 N 
HETATM    4  O   UNL     1       7.958  32.145  59.374  1.00  0.00    -0.247 OA
HETATM    5  H   UNL     1       5.396  31.080  60.877  1.00  0.00     0.170 HD
HETATM    6  H   UNL     1       5.177  30.846  58.759  1.00  0.00     0.164 HD
ENDROOT
BRANCH   1   7
HETATM    7  C   UNL     1       6.559  32.381  61.976  1.00  0.00     0.039 A 
HETATM    8  C   UNL     1       5.666  33.306  62.528  1.00  0.00     0.066 A 
HETATM    9  C   UNL     1       5.953  33.952  63.735  1.00  0.00     0.070 A 
HETATM   10  C   UNL     1       7.171  33.717  64.367  1.00  0.00     0.037 A 
HETATM   11  C   UNL     1       8.079  32.816  63.808  1.00  0.00     0.005 A 
HETATM   12  C   UNL     1       7.772  32.144  62.622  1.00  0.00     0.030 A 
BRANCH   9  13
HETATM   13  O   UNL     1       4.966  34.786  64.183  1.00  0.00    -0.351 OA
BRANCH  13  14
HETATM   14  C   UNL     1       5.218  35.468  65.413  1.00  0.00     0.179 C 
BRANCH  14  15
HETATM   15  C   UNL     1       4.451  34.775  66.551  1.00  0.00     0.002 C 
HETATM   16  C   UNL     1       3.040  35.351  66.695  1.00  0.00     0.011 C 
HETATM   17  C   UNL     1       5.198  34.886  67.880  1.00  0.00     0.011 C 
ENDBRANCH  14  15
ENDBRANCH  13  14
ENDBRANCH   9  13
ENDBRANCH   1   7
BRANCH   3  18
HETATM   18  C   UNL     1       6.785  30.483  57.438  1.00  0.00     0.164 C 
BRANCH  18  19
HETATM   19  C   UNL     1       6.954  28.990  57.324  1.00  0.00    -0.023 A 
HETATM   20  C   UNL     1       5.833  28.195  57.089  1.00  0.00     0.127 A 
HETATM   21  N   UNL     1       5.864  26.851  56.939  1.00  0.00    -0.248 NA
HETATM   22  C   UNL     1       7.077  26.270  57.015  1.00  0.00     0.125 A 
HETATM   23 CL   UNL     1       7.072  24.568  56.811  1.00  0.00    -0.063 Cl
HETATM   24  C   UNL     1       8.258  26.954  57.233  1.00  0.00     0.045 A 
HETATM   25  C   UNL     1       8.191  28.338  57.383  1.00  0.00     0.013 A 
ENDBRANCH  18  19
ENDBRANCH   3  18
TORSDOF 6
ENDMDL
