MODEL 1
REMARK VINA RESULT:      -9.9      0.000      0.000
REMARK  4 active torsions:
REMARK  status: ('A' for Active; 'I' for Inactive)
REMARK    1  A    between atoms: C_4  and  N_5 
REMARK       I    between atoms: N_5  and  C_6 
REMARK       I    between atoms: C_6  and  N_7 
REMARK    2  A    between atoms: N_7  and  C_8 
REMARK    3  A    between atoms: C_8  and  C_9 
REMARK    4  A    between atoms: C_10  and  O_11 
ROOT
HETATM    1  N   UNL     1       8.222  24.666  56.746  1.00  0.00    -0.307 N 
HETATM    2  C   UNL     1       7.876  25.853  57.310  1.00  0.00     0.321 C 
HETATM    3  N   UNL     1       7.583  26.880  56.464  1.00  0.00    -0.338 N 
HETATM    4  O   UNL     1       7.880  25.973  58.533  1.00  0.00    -0.247 OA
HETATM    5  H   UNL     1       8.665  24.028  57.407  1.00  0.00     0.170 HD
HETATM    6  H   UNL     1       8.110  26.844  55.605  1.00  0.00     0.164 HD
ENDROOT
BRANCH   1   7
HETATM    7  C   UNL     1       8.099  24.126  55.444  1.00  0.00     0.066 A 
HETATM    8  C   UNL     1       7.784  24.891  54.315  1.00  0.00     0.038 A 
HETATM    9  C   UNL     1       7.672  24.292  53.054  1.00  0.00    -0.059 A 
HETATM   10  C   UNL     1       7.374  25.115  51.837  1.00  0.00     0.048 C 
HETATM   11  C   UNL     1       7.879  22.916  52.939  1.00  0.00     0.020 A 
HETATM   12  C   UNL     1       8.156  22.133  54.072  1.00  0.00    -0.005 A 
HETATM   13  C   UNL     1       8.260  22.732  55.345  1.00  0.00     0.093 A 
HETATM   14  C   UNL     1       8.335  20.747  53.972  1.00  0.00     0.015 A 
HETATM   15  N   UNL     1       8.519  21.997  56.453  1.00  0.00    -0.258 NA
HETATM   16  C   UNL     1       8.682  20.663  56.318  1.00  0.00     0.117 A 
HETATM   17  C   UNL     1       8.601  19.997  55.111  1.00  0.00     0.020 A 
ENDBRANCH   1   7
BRANCH   3  18
HETATM   18  C   UNL     1       7.312  28.215  56.969  1.00  0.00     0.167 C 
BRANCH  18  19
HETATM   19  C   UNL     1       8.534  29.063  57.204  1.00  0.00     0.012 A 
HETATM   20  C   UNL     1       8.466  30.153  58.077  1.00  0.00     0.171 A 
HETATM   21  N   UNL     1       9.497  30.992  58.330  1.00  0.00    -0.237 NA
HETATM   22  C   UNL     1      10.649  30.757  57.671  1.00  0.00     0.119 A 
HETATM   23  C   UNL     1      10.824  29.719  56.775  1.00  0.00     0.020 A 
HETATM   24  C   UNL     1       9.750  28.866  56.537  1.00  0.00     0.014 A 
BRANCH  20  25
HETATM   25  O   UNL     1       7.260  30.366  58.720  1.00  0.00    -0.339 OA
HETATM   26  C   UNL     1       7.133  31.678  59.259  1.00  0.00     0.211 C 
ENDBRANCH  20  25
ENDBRANCH  18  19
ENDBRANCH   3  18
TORSDOF 4
ENDMDL
MODEL 2
REMARK VINA RESULT:      -9.4      1.243      1.807
REMARK  4 active torsions:
REMARK  status: ('A' for Active; 'I' for Inactive)
REMARK    1  A    between atoms: C_4  and  N_5 
REMARK       I    between atoms: N_5  and  C_6 
REMARK       I    between atoms: C_6  and  N_7 
REMARK    2  A    between atoms: N_7  and  C_8 
REMARK    3  A    between atoms: C_8  and  C_9 
REMARK    4  A    between atoms: C_10  and  O_11 
ROOT
HETATM    1  N   UNL     1       7.785  24.618  56.847  1.00  0.00    -0.307 N 
HETATM    2  C   UNL     1       7.981  25.849  57.388  1.00  0.00     0.321 C 
HETATM    3  N   UNL     1       8.546  26.796  56.587  1.00  0.00    -0.338 N 
HETATM    4  O   UNL     1       7.690  26.054  58.564  1.00  0.00    -0.247 OA
HETATM    5  H   UNL     1       7.601  23.903  57.549  1.00  0.00     0.170 HD
HETATM    6  H   UNL     1       9.196  26.409  55.920  1.00  0.00     0.164 HD
ENDROOT
BRANCH   1   7
HETATM    7  C   UNL     1       7.779  24.117  55.524  1.00  0.00     0.066 A 
HETATM    8  C   UNL     1       7.482  24.900  54.401  1.00  0.00     0.038 A 
HETATM    9  C   UNL     1       7.489  24.341  53.118  1.00  0.00    -0.059 A 
HETATM   10  C   UNL     1       7.211  25.185  51.910  1.00  0.00     0.048 C 
HETATM   11  C   UNL     1       7.795  22.986  52.973  1.00  0.00     0.020 A 
HETATM   12  C   UNL     1       8.055  22.183  54.096  1.00  0.00    -0.005 A 
HETATM   13  C   UNL     1       8.040  22.742  55.391  1.00  0.00     0.093 A 
HETATM   14  C   UNL     1       8.333  20.817  53.964  1.00  0.00     0.015 A 
HETATM   15  N   UNL     1       8.279  21.987  56.490  1.00  0.00    -0.258 NA
HETATM   16  C   UNL     1       8.541  20.672  56.323  1.00  0.00     0.117 A 
HETATM   17  C   UNL     1       8.580  20.046  55.094  1.00  0.00     0.020 A 
ENDBRANCH   1   7
BRANCH   3  18
HETATM   18  C   UNL     1       8.898  28.106  57.106  1.00  0.00     0.167 C 
BRANCH  18  19
HETATM   19  C   UNL     1       7.778  29.112  57.098  1.00  0.00     0.012 A 
HETATM   20  C   UNL     1       7.520  29.873  58.243  1.00  0.00     0.171 A 
HETATM   21  N   UNL     1       6.519  30.778  58.346  1.00  0.00    -0.237 NA
HETATM   22  C   UNL     1       5.717  30.926  57.272  1.00  0.00     0.119 A 
HETATM   23  C   UNL     1       5.871  30.215  56.096  1.00  0.00     0.020 A 
HETATM   24  C   UNL     1       6.912  29.295  56.013  1.00  0.00     0.014 A 
BRANCH  20  25
HETATM   25  O   UNL     1       8.357  29.680  59.326  1.00  0.00    -0.339 OA
HETATM   26  C   UNL     1       8.497  30.837  60.144  1.00  0.00     0.211 C 
ENDBRANCH  20  25
ENDBRANCH  18  19
ENDBRANCH   3  18
TORSDOF 4
ENDMDL
MODEL 3
REMARK VINA RESULT:      -9.3      1.642      2.515
REMARK  4 active torsions:
REMARK  status: ('A' for Active; 'I' for Inactive)
REMARK    1  A    between atoms: C_4  and  N_5 
REMARK       I    between atoms: N_5  and  C_6 
REMARK       I    between atoms: C_6  and  N_7 
REMARK    2  A    between atoms: N_7  and  C_8 
REMARK    3  A    between atoms: C_8  and  C_9 
REMARK    4  A    between atoms: C_10  and  O_11 
ROOT
HETATM    1  N   UNL     1       7.863  24.624  56.874  1.00  0.00    -0.307 N 
HETATM    2  C   UNL     1       8.014  25.866  57.402  1.00  0.00     0.321 C 
HETATM    3  N   UNL     1       8.515  26.833  56.583  1.00  0.00    -0.338 N 
HETATM    4  O   UNL     1       7.741  26.066  58.584  1.00  0.00    -0.247 OA
HETATM    5  H   UNL     1       7.728  23.906  57.584  1.00  0.00     0.170 HD
HETATM    6  H   UNL     1       9.167  26.471  55.903  1.00  0.00     0.164 HD
ENDROOT
BRANCH   1   7
HETATM    7  C   UNL     1       7.849  24.114  55.554  1.00  0.00     0.066 A 
HETATM    8  C   UNL     1       7.564  24.894  54.426  1.00  0.00     0.038 A 
HETATM    9  C   UNL     1       7.563  24.325  53.147  1.00  0.00    -0.059 A 
HETATM   10  C   UNL     1       7.296  25.165  51.933  1.00  0.00     0.048 C 
HETATM   11  C   UNL     1       7.850  22.965  53.011  1.00  0.00     0.020 A 
HETATM   12  C   UNL     1       8.098  22.167  54.139  1.00  0.00    -0.005 A 
HETATM   13  C   UNL     1       8.091  22.734  55.431  1.00  0.00     0.093 A 
HETATM   14  C   UNL     1       8.357  20.795  54.017  1.00  0.00     0.015 A 
HETATM   15  N   UNL     1       8.320  21.983  56.535  1.00  0.00    -0.258 NA
HETATM   16  C   UNL     1       8.563  20.664  56.377  1.00  0.00     0.117 A 
HETATM   17  C   UNL     1       8.593  20.029  55.152  1.00  0.00     0.020 A 
ENDBRANCH   1   7
BRANCH   3  18
HETATM   18  C   UNL     1       8.818  28.161  57.086  1.00  0.00     0.167 C 
BRANCH  18  19
HETATM   19  C   UNL     1       7.652  29.114  57.100  1.00  0.00     0.012 A 
HETATM   20  C   UNL     1       6.887  29.293  55.943  1.00  0.00     0.171 A 
HETATM   21  N   UNL     1       5.843  30.147  55.845  1.00  0.00    -0.237 NA
HETATM   22  C   UNL     1       5.549  30.880  56.938  1.00  0.00     0.119 A 
HETATM   23  C   UNL     1       6.247  30.796  58.128  1.00  0.00     0.020 A 
HETATM   24  C   UNL     1       7.314  29.904  58.206  1.00  0.00     0.014 A 
BRANCH  20  25
HETATM   25  O   UNL     1       7.232  28.533  54.840  1.00  0.00    -0.339 OA
HETATM   26  C   UNL     1       6.134  28.267  53.973  1.00  0.00     0.211 C 
ENDBRANCH  20  25
ENDBRANCH  18  19
ENDBRANCH   3  18
TORSDOF 4
ENDMDL
MODEL 4
REMARK VINA RESULT:      -9.2      1.915      3.209
REMARK  4 active torsions:
REMARK  status: ('A' for Active; 'I' for Inactive)
REMARK    1  A    between atoms: C_4  and  N_5 
REMARK       I    between atoms: N_5  and  C_6 
REMARK       I    between atoms: C_6  and  N_7 
REMARK    2  A    between atoms: N_7  and  C_8 
REMARK    3  A    between atoms: C_8  and  C_9 
REMARK    4  A    between atoms: C_10  and  O_11 
ROOT
HETATM    1  N   UNL     1       5.330  25.849  56.032  1.00  0.00    -0.307 N 
HETATM    2  C   UNL     1       5.429  27.124  56.490  1.00  0.00     0.321 C 
HETATM    3  N   UNL     1       6.653  27.534  56.926  1.00  0.00    -0.338 N 
HETATM    4  O   UNL     1       4.429  27.837  56.535  1.00  0.00    -0.247 OA
HETATM    5  H   UNL     1       4.365  25.528  55.960  1.00  0.00     0.170 HD
HETATM    6  H   UNL     1       7.193  26.787  57.338  1.00  0.00     0.164 HD
ENDROOT
BRANCH   1   7
HETATM    7  C   UNL     1       6.274  24.873  55.633  1.00  0.00     0.066 A 
HETATM    8  C   UNL     1       6.845  23.943  56.510  1.00  0.00     0.038 A 
HETATM    9  C   UNL     1       7.778  23.007  56.051  1.00  0.00    -0.059 A 
HETATM   10  C   UNL     1       8.362  21.984  56.980  1.00  0.00     0.048 C 
HETATM   11  C   UNL     1       8.135  23.014  54.700  1.00  0.00     0.020 A 
HETATM   12  C   UNL     1       7.598  23.968  53.820  1.00  0.00    -0.005 A 
HETATM   13  C   UNL     1       6.664  24.920  54.282  1.00  0.00     0.093 A 
HETATM   14  C   UNL     1       7.972  24.004  52.471  1.00  0.00     0.015 A 
HETATM   15  N   UNL     1       6.139  25.854  53.455  1.00  0.00    -0.258 NA
HETATM   16  C   UNL     1       6.526  25.859  52.161  1.00  0.00     0.117 A 
HETATM   17  C   UNL     1       7.429  24.964  51.625  1.00  0.00     0.020 A 
ENDBRANCH   1   7
BRANCH   3  18
HETATM   18  C   UNL     1       6.835  28.839  57.536  1.00  0.00     0.167 C 
BRANCH  18  19
HETATM   19  C   UNL     1       8.233  29.392  57.445  1.00  0.00     0.012 A 
HETATM   20  C   UNL     1       8.718  30.226  58.457  1.00  0.00     0.171 A 
HETATM   21  N   UNL     1       9.945  30.796  58.453  1.00  0.00    -0.237 NA
HETATM   22  C   UNL     1      10.727  30.548  57.383  1.00  0.00     0.119 A 
HETATM   23  C   UNL     1      10.345  29.753  56.319  1.00  0.00     0.020 A 
HETATM   24  C   UNL     1       9.080  29.172  56.352  1.00  0.00     0.014 A 
BRANCH  20  25
HETATM   25  O   UNL     1       7.876  30.465  59.529  1.00  0.00    -0.339 OA
HETATM   26  C   UNL     1       7.571  31.845  59.708  1.00  0.00     0.211 C 
ENDBRANCH  20  25
ENDBRANCH  18  19
ENDBRANCH   3  18
TORSDOF 4
ENDMDL
MODEL 5
REMARK VINA RESULT:      -9.1      1.739      2.400
REMARK  4 active torsions:
REMARK  status: ('A' for Active; 'I' for Inactive)
REMARK    1  A    between atoms: C_4  and  N_5 
REMARK       I    between atoms: N_5  and  C_6 
REMARK       I    between atoms: C_6  and  N_7 
REMARK    2  A    between atoms: N_7  and  C_8 
REMARK    3  A    between atoms: C_8  and  C_9 
REMARK    4  A    between atoms: C_10  and  O_11 
ROOT
HETATM    1  N   UNL     1       5.101  25.963  55.526  1.00  0.00    -0.307 N 
HETATM    2  C   UNL     1       5.307  26.957  56.429  1.00  0.00     0.321 C 
HETATM    3  N   UNL     1       6.397  27.752  56.239  1.00  0.00    -0.338 N 
HETATM    4  O   UNL     1       4.547  27.080  57.387  1.00  0.00    -0.247 OA
HETATM    5  H   UNL     1       4.434  25.264  55.853  1.00  0.00     0.170 HD
HETATM    6  H   UNL     1       7.171  27.262  55.816  1.00  0.00     0.164 HD
ENDROOT
BRANCH   1   7
HETATM    7  C   UNL     1       5.608  25.690  54.234  1.00  0.00     0.066 A 
HETATM    8  C   UNL     1       5.212  26.385  53.084  1.00  0.00     0.038 A 
HETATM    9  C   UNL     1       5.750  26.062  51.833  1.00  0.00    -0.059 A 
HETATM   10  C   UNL     1       5.357  26.830  50.606  1.00  0.00     0.048 C 
HETATM   11  C   UNL     1       6.689  25.032  51.746  1.00  0.00     0.020 A 
HETATM   12  C   UNL     1       7.064  24.303  52.887  1.00  0.00    -0.005 A 
HETATM   13  C   UNL     1       6.516  24.620  54.148  1.00  0.00     0.093 A 
HETATM   14  C   UNL     1       7.982  23.248  52.807  1.00  0.00     0.015 A 
HETATM   15  N   UNL     1       6.855  23.926  55.261  1.00  0.00    -0.258 NA
HETATM   16  C   UNL     1       7.742  22.913  55.143  1.00  0.00     0.117 A 
HETATM   17  C   UNL     1       8.328  22.540  53.951  1.00  0.00     0.020 A 
ENDBRANCH   1   7
BRANCH   3  18
HETATM   18  C   UNL     1       6.764  28.768  57.210  1.00  0.00     0.167 C 
BRANCH  18  19
HETATM   19  C   UNL     1       8.188  29.250  57.114  1.00  0.00     0.012 A 
HETATM   20  C   UNL     1       8.790  29.862  58.217  1.00  0.00     0.171 A 
HETATM   21  N   UNL     1      10.050  30.356  58.222  1.00  0.00    -0.237 NA
HETATM   22  C   UNL     1      10.746  30.260  57.071  1.00  0.00     0.119 A 
HETATM   23  C   UNL     1      10.245  29.689  55.916  1.00  0.00     0.020 A 
HETATM   24  C   UNL     1       8.948  29.182  55.940  1.00  0.00     0.014 A 
BRANCH  20  25
HETATM   25  O   UNL     1       8.034  29.953  59.373  1.00  0.00    -0.339 OA
HETATM   26  C   UNL     1       8.629  30.776  60.372  1.00  0.00     0.211 C 
ENDBRANCH  20  25
ENDBRANCH  18  19
ENDBRANCH   3  18
TORSDOF 4
ENDMDL
MODEL 6
REMARK VINA RESULT:      -8.9      9.208     11.565
REMARK  4 active torsions:
REMARK  status: ('A' for Active; 'I' for Inactive)
REMARK    1  A    between atoms: C_4  and  N_5 
REMARK       I    between atoms: N_5  and  C_6 
REMARK       I    between atoms: C_6  and  N_7 
REMARK    2  A    between atoms: N_7  and  C_8 
REMARK    3  A    between atoms: C_8  and  C_9 
REMARK    4  A    between atoms: C_10  and  O_11 
ROOT
HETATM    1  N   UNL     1       4.539  31.925  61.607  1.00  0.00    -0.307 N 
HETATM    2  C   UNL     1       3.917  32.342  60.474  1.00  0.00     0.321 C 
HETATM    3  N   UNL     1       4.443  33.429  59.842  1.00  0.00    -0.338 N 
HETATM    4  O   UNL     1       2.902  31.769  60.087  1.00  0.00    -0.247 OA
HETATM    5  H   UNL     1       3.969  31.284  62.158  1.00  0.00     0.170 HD
HETATM    6  H   UNL     1       4.865  34.088  60.479  1.00  0.00     0.164 HD
ENDROOT
BRANCH   1   7
HETATM    7  C   UNL     1       5.805  32.184  62.184  1.00  0.00     0.066 A 
HETATM    8  C   UNL     1       7.018  31.833  61.579  1.00  0.00     0.038 A 
HETATM    9  C   UNL     1       8.237  32.114  62.206  1.00  0.00    -0.059 A 
HETATM   10  C   UNL     1       9.539  31.775  61.543  1.00  0.00     0.048 C 
HETATM   11  C   UNL     1       8.227  32.750  63.450  1.00  0.00     0.020 A 
HETATM   12  C   UNL     1       7.015  33.071  64.083  1.00  0.00    -0.005 A 
HETATM   13  C   UNL     1       5.784  32.780  63.458  1.00  0.00     0.093 A 
HETATM   14  C   UNL     1       6.992  33.681  65.344  1.00  0.00     0.015 A 
HETATM   15  N   UNL     1       4.602  33.072  64.052  1.00  0.00    -0.258 NA
HETATM   16  C   UNL     1       4.621  33.658  65.269  1.00  0.00     0.117 A 
HETATM   17  C   UNL     1       5.778  33.980  65.949  1.00  0.00     0.020 A 
ENDBRANCH   1   7
BRANCH   3  18
HETATM   18  C   UNL     1       3.785  34.019  58.689  1.00  0.00     0.167 C 
BRANCH  18  19
HETATM   19  C   UNL     1       3.329  35.441  58.879  1.00  0.00     0.012 A 
HETATM   20  C   UNL     1       2.054  35.700  59.393  1.00  0.00     0.171 A 
HETATM   21  N   UNL     1       1.542  36.940  59.571  1.00  0.00    -0.237 NA
HETATM   22  C   UNL     1       2.318  37.979  59.203  1.00  0.00     0.119 A 
HETATM   23  C   UNL     1       3.585  37.839  58.670  1.00  0.00     0.020 A 
HETATM   24  C   UNL     1       4.093  36.553  58.503  1.00  0.00     0.014 A 
BRANCH  20  25
HETATM   25  O   UNL     1       1.286  34.604  59.743  1.00  0.00    -0.339 OA
HETATM   26  C   UNL     1       0.911  34.596  61.117  1.00  0.00     0.211 C 
ENDBRANCH  20  25
ENDBRANCH  18  19
ENDBRANCH   3  18
TORSDOF 4
ENDMDL
MODEL 7
REMARK VINA RESULT:      -8.9      2.681      4.286
REMARK  4 active torsions:
REMARK  status: ('A' for Active; 'I' for Inactive)
REMARK    1  A    between atoms: C_4  and  N_5 
REMARK       I    between atoms: N_5  and  C_6 
REMARK       I    between atoms: C_6  and  N_7 
REMARK    2  A    between atoms: N_7  and  C_8 
REMARK    3  A    between atoms: C_8  and  C_9 
REMARK    4  A    between atoms: C_10  and  O_11 
ROOT
HETATM    1  N   UNL     1       8.223  25.376  56.839  1.00  0.00    -0.307 N 
HETATM    2  C   UNL     1       7.352  26.321  57.281  1.00  0.00     0.321 C 
HETATM    3  N   UNL     1       6.134  26.375  56.673  1.00  0.00    -0.338 N 
HETATM    4  O   UNL     1       7.696  27.104  58.164  1.00  0.00    -0.247 OA
HETATM    5  H   UNL     1       9.180  25.545  57.148  1.00  0.00     0.170 HD
HETATM    6  H   UNL     1       6.170  26.112  55.700  1.00  0.00     0.164 HD
ENDROOT
BRANCH   1   7
HETATM    7  C   UNL     1       8.088  24.211  56.047  1.00  0.00     0.066 A 
HETATM    8  C   UNL     1       8.160  22.912  56.564  1.00  0.00     0.038 A 
HETATM    9  C   UNL     1       8.023  21.801  55.724  1.00  0.00    -0.059 A 
HETATM   10  C   UNL     1       8.061  20.408  56.280  1.00  0.00     0.048 C 
HETATM   11  C   UNL     1       7.814  22.007  54.358  1.00  0.00     0.020 A 
HETATM   12  C   UNL     1       7.780  23.306  53.825  1.00  0.00    -0.005 A 
HETATM   13  C   UNL     1       7.928  24.428  54.667  1.00  0.00     0.093 A 
HETATM   14  C   UNL     1       7.602  23.523  52.452  1.00  0.00     0.015 A 
HETATM   15  N   UNL     1       7.906  25.689  54.175  1.00  0.00    -0.258 NA
HETATM   16  C   UNL     1       7.735  25.859  52.846  1.00  0.00     0.117 A 
HETATM   17  C   UNL     1       7.579  24.819  51.951  1.00  0.00     0.020 A 
ENDBRANCH   1   7
BRANCH   3  18
HETATM   18  C   UNL     1       5.179  27.420  56.997  1.00  0.00     0.167 C 
BRANCH  18  19
HETATM   19  C   UNL     1       4.718  28.243  55.823  1.00  0.00     0.012 A 
HETATM   20  C   UNL     1       4.189  29.520  56.035  1.00  0.00     0.171 A 
HETATM   21  N   UNL     1       3.720  30.323  55.052  1.00  0.00    -0.237 NA
HETATM   22  C   UNL     1       3.754  29.833  53.796  1.00  0.00     0.119 A 
HETATM   23  C   UNL     1       4.240  28.579  53.474  1.00  0.00     0.020 A 
HETATM   24  C   UNL     1       4.724  27.775  54.503  1.00  0.00     0.014 A 
BRANCH  20  25
HETATM   25  O   UNL     1       4.159  29.978  57.340  1.00  0.00    -0.339 OA
HETATM   26  C   UNL     1       4.956  31.140  57.548  1.00  0.00     0.211 C 
ENDBRANCH  20  25
ENDBRANCH  18  19
ENDBRANCH   3  18
TORSDOF 4
ENDMDL
MODEL 8
REMARK VINA RESULT:      -8.9      2.115      7.382
REMARK  4 active torsions:
REMARK  status: ('A' for Active; 'I' for Inactive)
REMARK    1  A    between atoms: C_4  and  N_5 
REMARK       I    between atoms: N_5  and  C_6 
REMARK       I    between atoms: C_6  and  N_7 
REMARK    2  A    between atoms: N_7  and  C_8 
REMARK    3  A    between atoms: C_8  and  C_9 
REMARK    4  A    between atoms: C_10  and  O_11 
ROOT
HETATM    1  N   UNL     1       7.185  28.500  54.518  1.00  0.00    -0.307 N 
HETATM    2  C   UNL     1       6.723  27.313  54.044  1.00  0.00     0.321 C 
HETATM    3  N   UNL     1       6.222  26.434  54.957  1.00  0.00    -0.338 N 
HETATM    4  O   UNL     1       6.809  27.058  52.845  1.00  0.00    -0.247 OA
HETATM    5  H   UNL     1       7.764  28.997  53.842  1.00  0.00     0.170 HD
HETATM    6  H   UNL     1       6.678  26.496  55.854  1.00  0.00     0.164 HD
ENDROOT
BRANCH   1   7
HETATM    7  C   UNL     1       7.034  29.194  55.742  1.00  0.00     0.066 A 
HETATM    8  C   UNL     1       5.792  29.553  56.280  1.00  0.00     0.038 A 
HETATM    9  C   UNL     1       5.713  30.244  57.495  1.00  0.00    -0.059 A 
HETATM   10  C   UNL     1       4.384  30.596  58.093  1.00  0.00     0.048 C 
HETATM   11  C   UNL     1       6.894  30.572  58.165  1.00  0.00     0.020 A 
HETATM   12  C   UNL     1       8.146  30.251  57.614  1.00  0.00    -0.005 A 
HETATM   13  C   UNL     1       8.230  29.563  56.385  1.00  0.00     0.093 A 
HETATM   14  C   UNL     1       9.337  30.602  58.261  1.00  0.00     0.015 A 
HETATM   15  N   UNL     1       9.425  29.250  55.830  1.00  0.00    -0.258 NA
HETATM   16  C   UNL     1      10.552  29.608  56.482  1.00  0.00     0.117 A 
HETATM   17  C   UNL     1      10.561  30.278  57.689  1.00  0.00     0.020 A 
ENDBRANCH   1   7
BRANCH   3  18
HETATM   18  C   UNL     1       5.808  25.098  54.564  1.00  0.00     0.167 C 
BRANCH  18  19
HETATM   19  C   UNL     1       6.919  24.083  54.507  1.00  0.00     0.012 A 
HETATM   20  C   UNL     1       7.660  23.798  55.658  1.00  0.00     0.171 A 
HETATM   21  N   UNL     1       8.694  22.927  55.703  1.00  0.00    -0.237 NA
HETATM   22  C   UNL     1       9.031  22.321  54.547  1.00  0.00     0.119 A 
HETATM   23  C   UNL     1       8.379  22.539  53.348  1.00  0.00     0.020 A 
HETATM   24  C   UNL     1       7.312  23.434  53.330  1.00  0.00     0.014 A 
BRANCH  20  25
HETATM   25  O   UNL     1       7.290  24.454  56.819  1.00  0.00    -0.339 OA
HETATM   26  C   UNL     1       8.385  25.068  57.493  1.00  0.00     0.211 C 
ENDBRANCH  20  25
ENDBRANCH  18  19
ENDBRANCH   3  18
TORSDOF 4
ENDMDL
MODEL 9
REMARK VINA RESULT:      -8.8      2.232      7.564
REMARK  4 active torsions:
REMARK  status: ('A' for Active; 'I' for Inactive)
REMARK    1  A    between atoms: C_4  and  N_5 
REMARK       I    between atoms: N_5  and  C_6 
REMARK       I    between atoms: C_6  and  N_7 
REMARK    2  A    between atoms: N_7  and  C_8 
REMARK    3  A    between atoms: C_8  and  C_9 
REMARK    4  A    between atoms: C_10  and  O_11 
ROOT
HETATM    1  N   UNL     1       7.624  28.451  54.270  1.00  0.00    -0.307 N 
HETATM    2  C   UNL     1       6.894  27.331  54.028  1.00  0.00     0.321 C 
HETATM    3  N   UNL     1       6.769  26.439  55.050  1.00  0.00    -0.338 N 
HETATM    4  O   UNL     1       6.417  27.141  52.911  1.00  0.00    -0.247 OA
HETATM    5  H   UNL     1       7.888  28.943  53.417  1.00  0.00     0.170 HD
HETATM    6  H   UNL     1       7.578  26.415  55.652  1.00  0.00     0.164 HD
ENDROOT
BRANCH   1   7
HETATM    7  C   UNL     1       8.094  29.081  55.447  1.00  0.00     0.066 A 
HETATM    8  C   UNL     1       9.446  29.141  55.806  1.00  0.00     0.038 A 
HETATM    9  C   UNL     1       9.844  29.776  56.988  1.00  0.00    -0.059 A 
HETATM   10  C   UNL     1      11.295  29.876  57.355  1.00  0.00     0.048 C 
HETATM   11  C   UNL     1       8.870  30.350  57.808  1.00  0.00     0.020 A 
HETATM   12  C   UNL     1       7.508  30.261  57.476  1.00  0.00    -0.005 A 
HETATM   13  C   UNL     1       7.103  29.613  56.290  1.00  0.00     0.093 A 
HETATM   14  C   UNL     1       6.520  30.806  58.307  1.00  0.00     0.015 A 
HETATM   15  N   UNL     1       5.795  29.507  55.954  1.00  0.00    -0.258 NA
HETATM   16  C   UNL     1       4.872  30.043  56.781  1.00  0.00     0.117 A 
HETATM   17  C   UNL     1       5.180  30.697  57.957  1.00  0.00     0.020 A 
ENDBRANCH   1   7
BRANCH   3  18
HETATM   18  C   UNL     1       6.104  25.162  54.856  1.00  0.00     0.167 C 
BRANCH  18  19
HETATM   19  C   UNL     1       7.022  24.012  54.536  1.00  0.00     0.012 A 
HETATM   20  C   UNL     1       7.805  23.446  55.547  1.00  0.00     0.171 A 
HETATM   21  N   UNL     1       8.681  22.434  55.356  1.00  0.00    -0.237 NA
HETATM   22  C   UNL     1       8.809  21.968  54.097  1.00  0.00     0.119 A 
HETATM   23  C   UNL     1       8.098  22.463  53.020  1.00  0.00     0.020 A 
HETATM   24  C   UNL     1       7.197  23.500  53.244  1.00  0.00     0.014 A 
BRANCH  20  25
HETATM   25  O   UNL     1       7.653  23.964  56.821  1.00  0.00    -0.339 OA
HETATM   26  C   UNL     1       8.873  24.430  57.389  1.00  0.00     0.211 C 
ENDBRANCH  20  25
ENDBRANCH  18  19
ENDBRANCH   3  18
TORSDOF 4
ENDMDL
MODEL 10
REMARK VINA RESULT:      -8.8      1.652      3.391
REMARK  4 active torsions:
REMARK  status: ('A' for Active; 'I' for Inactive)
REMARK    1  A    between atoms: C_4  and  N_5 
REMARK       I    between atoms: N_5  and  C_6 
REMARK       I    between atoms: C_6  and  N_7 
REMARK    2  A    between atoms: N_7  and  C_8 
REMARK    3  A    between atoms: C_8  and  C_9 
REMARK    4  A    between atoms: C_10  and  O_11 
ROOT
HETATM    1  N   UNL     1       7.572  24.662  56.947  1.00  0.00    -0.307 N 
HETATM    2  C   UNL     1       7.842  25.902  57.433  1.00  0.00     0.321 C 
HETATM    3  N   UNL     1       8.433  26.786  56.581  1.00  0.00    -0.338 N 
HETATM    4  O   UNL     1       7.591  26.167  58.606  1.00  0.00    -0.247 OA
HETATM    5  H   UNL     1       7.369  23.985  57.682  1.00  0.00     0.170 HD
HETATM    6  H   UNL     1       9.046  26.341  55.916  1.00  0.00     0.164 HD
ENDROOT
BRANCH   1   7
HETATM    7  C   UNL     1       7.508  24.110  55.646  1.00  0.00     0.066 A 
HETATM    8  C   UNL     1       8.276  23.015  55.231  1.00  0.00     0.038 A 
HETATM    9  C   UNL     1       8.168  22.521  53.926  1.00  0.00    -0.059 A 
HETATM   10  C   UNL     1       8.960  21.324  53.490  1.00  0.00     0.048 C 
HETATM   11  C   UNL     1       7.282  23.138  53.040  1.00  0.00     0.020 A 
HETATM   12  C   UNL     1       6.536  24.261  53.435  1.00  0.00    -0.005 A 
HETATM   13  C   UNL     1       6.650  24.768  54.746  1.00  0.00     0.093 A 
HETATM   14  C   UNL     1       5.667  24.906  52.545  1.00  0.00     0.015 A 
HETATM   15  N   UNL     1       5.947  25.854  55.148  1.00  0.00    -0.258 NA
HETATM   16  C   UNL     1       5.122  26.451  54.261  1.00  0.00     0.117 A 
HETATM   17  C   UNL     1       4.947  26.019  52.961  1.00  0.00     0.020 A 
ENDBRANCH   1   7
BRANCH   3  18
HETATM   18  C   UNL     1       8.862  28.097  57.039  1.00  0.00     0.167 C 
BRANCH  18  19
HETATM   19  C   UNL     1       7.775  29.138  57.088  1.00  0.00     0.012 A 
HETATM   20  C   UNL     1       7.573  29.876  58.258  1.00  0.00     0.171 A 
HETATM   21  N   UNL     1       6.606  30.809  58.412  1.00  0.00    -0.237 NA
HETATM   22  C   UNL     1       5.780  31.010  57.365  1.00  0.00     0.119 A 
HETATM   23  C   UNL     1       5.878  30.326  56.168  1.00  0.00     0.020 A 
HETATM   24  C   UNL     1       6.887  29.376  56.032  1.00  0.00     0.014 A 
BRANCH  20  25
HETATM   25  O   UNL     1       8.434  29.628  59.312  1.00  0.00    -0.339 OA
HETATM   26  C   UNL     1       8.805  30.804  60.025  1.00  0.00     0.211 C 
ENDBRANCH  20  25
ENDBRANCH  18  19
ENDBRANCH   3  18
TORSDOF 4
ENDMDL
