MODEL 1
REMARK VINA RESULT:      -9.2      0.000      0.000
REMARK  10 active torsions:
REMARK  status: ('A' for Active; 'I' for Inactive)
REMARK    1  A    between atoms: N_7  and  C_8 
REMARK    2  A    between atoms: C_8  and  C_9 
REMARK       I    between atoms: C_9  and  N_10 
REMARK    3  A    between atoms: N_10  and  C_11 
REMARK    4  A    between atoms: C_11  and  C_12 
REMARK    5  A    between atoms: C_12  and  C_13 
REMARK    6  A    between atoms: C_13  and  C_14 
REMARK       I    between atoms: C_14  and  N_15 
REMARK    7  A    between atoms: N_15  and  C_16 
REMARK    8  A    between atoms: C_16  and  C_17 
REMARK    9  A    between atoms: C_17  and  C_18 
REMARK   10  A    between atoms: C_18  and  N_19 
ROOT
HETATM    1  C   UNL     1      10.316  30.788  57.706  1.00  0.00     0.123 C 
ENDROOT
BRANCH   1   2
HETATM    2  N   UNL     1       9.597  30.479  58.924  1.00  0.00    -0.360 N 
HETATM    3  C   UNL     1       9.182  31.477  59.788  1.00  0.00     0.235 C 
HETATM    4  O   UNL     1       9.423  32.665  59.591  1.00  0.00    -0.272 OA
HETATM    5  H   UNL     1       9.452  29.507  59.170  1.00  0.00     0.162 HD
BRANCH   3   6
HETATM    6  C   UNL     1       8.336  30.979  60.960  1.00  0.00     0.235 C 
BRANCH   6   7
HETATM    7  N   UNL     1       7.328  31.965  61.307  1.00  0.00    -0.299 N 
HETATM    8  C   UNL     1       6.400  32.370  60.367  1.00  0.00     0.214 A 
HETATM    9  N   UNL     1       5.441  33.213  60.573  1.00  0.00    -0.235 NA
HETATM   10  C   UNL     1       5.394  33.709  61.836  1.00  0.00     0.115 A 
HETATM   11  C   UNL     1       6.274  33.440  62.861  1.00  0.00     0.075 A 
HETATM   12  S   UNL     1       4.165  34.777  62.322  1.00  0.00    -0.074 SA
HETATM   13  C   UNL     1       5.943  34.137  64.079  1.00  0.00    -0.031 A 
HETATM   14  C   UNL     1       7.363  32.517  62.585  1.00  0.00     0.262 A 
HETATM   15  C   UNL     1       6.736  34.042  65.344  1.00  0.00     0.050 C 
HETATM   16  C   UNL     1       4.779  34.878  63.917  1.00  0.00    -0.012 A 
HETATM   17  C   UNL     1       4.053  35.714  64.921  1.00  0.00     0.057 C 
HETATM   18  O   UNL     1       8.239  32.246  63.404  1.00  0.00    -0.267 OA
ENDBRANCH   6   7
ENDBRANCH   3   6
ENDBRANCH   1   2
BRANCH   1  19
HETATM   19  C   UNL     1      10.504  29.561  56.815  1.00  0.00     0.029 C 
BRANCH  19  20
HETATM   20  C   UNL     1       9.251  29.299  55.981  1.00  0.00     0.104 C 
BRANCH  20  21
HETATM   21  C   UNL     1       8.151  28.599  56.753  1.00  0.00     0.217 C 
HETATM   22  N   UNL     1       6.872  28.850  56.320  1.00  0.00    -0.361 N 
HETATM   23  H   UNL     1       6.740  29.572  55.614  1.00  0.00     0.162 HD
HETATM   24  O   UNL     1       8.375  27.875  57.722  1.00  0.00    -0.274 OA
BRANCH  22  25
HETATM   25  C   UNL     1       5.704  28.430  57.065  1.00  0.00     0.124 C 
BRANCH  25  26
HETATM   26  C   UNL     1       5.055  27.148  56.542  1.00  0.00     0.047 C 
BRANCH  26  27
HETATM   27  C   UNL     1       5.563  26.593  55.208  1.00  0.00     0.236 C 
BRANCH  27  28
HETATM   28  N   UNL     1       6.620  25.519  55.338  1.00  0.00    -0.070 N 
HETATM   29  H   UNL     1       7.526  26.026  55.242  1.00  0.00     0.279 HD
HETATM   30  C   UNL     1       6.578  24.758  56.634  1.00  0.00     0.239 C 
HETATM   31  C   UNL     1       7.745  23.772  56.740  1.00  0.00     0.008 C 
HETATM   32  C   UNL     1       9.078  24.486  56.983  1.00  0.00     0.011 C 
HETATM   33  C   UNL     1       7.804  22.855  55.512  1.00  0.00     0.011 C 
HETATM   34  C   UNL     1       7.788  23.638  54.194  1.00  0.00     0.008 C 
HETATM   35  C   UNL     1       7.756  22.679  53.004  1.00  0.00     0.011 C 
HETATM   36  C   UNL     1       6.594  24.593  54.141  1.00  0.00     0.239 C 
ENDBRANCH  27  28
ENDBRANCH  26  27
ENDBRANCH  25  26
ENDBRANCH  22  25
ENDBRANCH  20  21
ENDBRANCH  19  20
ENDBRANCH   1  19
TORSDOF 10
ENDMDL
MODEL 2
REMARK VINA RESULT:      -9.1      2.639      4.448
REMARK  10 active torsions:
REMARK  status: ('A' for Active; 'I' for Inactive)
REMARK    1  A    between atoms: N_7  and  C_8 
REMARK    2  A    between atoms: C_8  and  C_9 
REMARK       I    between atoms: C_9  and  N_10 
REMARK    3  A    between atoms: N_10  and  C_11 
REMARK    4  A    between atoms: C_11  and  C_12 
REMARK    5  A    between atoms: C_12  and  C_13 
REMARK    6  A    between atoms: C_13  and  C_14 
REMARK       I    between atoms: C_14  and  N_15 
REMARK    7  A    between atoms: N_15  and  C_16 
REMARK    8  A    between atoms: C_16  and  C_17 
REMARK    9  A    between atoms: C_17  and  C_18 
REMARK   10  A    between atoms: C_18  and  N_19 
ROOT
HETATM    1  C   UNL     1       4.591  29.109  54.613  1.00  0.00     0.123 C 
ENDROOT
BRANCH   1   2
HETATM    2  N   UNL     1       5.752  29.673  55.270  1.00  0.00    -0.360 N 
HETATM    3  C   UNL     1       6.131  29.268  56.537  1.00  0.00     0.235 C 
HETATM    4  O   UNL     1       5.496  28.439  57.183  1.00  0.00    -0.272 OA
HETATM    5  H   UNL     1       6.255  30.423  54.809  1.00  0.00     0.162 HD
BRANCH   3   6
HETATM    6  C   UNL     1       7.443  29.882  57.026  1.00  0.00     0.235 C 
BRANCH   6   7
HETATM    7  N   UNL     1       7.199  30.758  58.157  1.00  0.00    -0.299 N 
HETATM    8  C   UNL     1       6.254  31.763  58.067  1.00  0.00     0.214 A 
HETATM    9  N   UNL     1       5.932  32.577  59.018  1.00  0.00    -0.235 NA
HETATM   10  C   UNL     1       6.614  32.383  60.175  1.00  0.00     0.115 A 
HETATM   11  C   UNL     1       7.613  31.463  60.401  1.00  0.00     0.075 A 
HETATM   12  S   UNL     1       6.283  33.309  61.562  1.00  0.00    -0.074 SA
HETATM   13  C   UNL     1       8.136  31.522  61.743  1.00  0.00    -0.031 A 
HETATM   14  C   UNL     1       7.978  30.587  59.298  1.00  0.00     0.262 A 
HETATM   15  C   UNL     1       9.237  30.648  62.255  1.00  0.00     0.050 C 
HETATM   16  C   UNL     1       7.457  32.477  62.490  1.00  0.00    -0.012 A 
HETATM   17  C   UNL     1       7.637  32.843  63.928  1.00  0.00     0.057 C 
HETATM   18  O   UNL     1       8.891  29.767  59.366  1.00  0.00    -0.267 OA
ENDBRANCH   6   7
ENDBRANCH   3   6
ENDBRANCH   1   2
BRANCH   1  19
HETATM   19  C   UNL     1       4.011  30.044  53.554  1.00  0.00     0.029 C 
BRANCH  19  20
HETATM   20  C   UNL     1       3.462  29.251  52.370  1.00  0.00     0.104 C 
BRANCH  20  21
HETATM   21  C   UNL     1       4.522  28.452  51.639  1.00  0.00     0.217 C 
HETATM   22  N   UNL     1       4.238  27.121  51.452  1.00  0.00    -0.361 N 
HETATM   23  H   UNL     1       3.418  26.738  51.918  1.00  0.00     0.162 HD
HETATM   24  O   UNL     1       5.584  28.945  51.259  1.00  0.00    -0.274 OA
BRANCH  22  25
HETATM   25  C   UNL     1       5.220  26.179  50.960  1.00  0.00     0.124 C 
BRANCH  25  26
HETATM   26  C   UNL     1       5.752  25.216  52.021  1.00  0.00     0.047 C 
BRANCH  26  27
HETATM   27  C   UNL     1       7.245  25.288  52.355  1.00  0.00     0.236 C 
BRANCH  27  28
HETATM   28  N   UNL     1       7.709  24.270  53.373  1.00  0.00    -0.070 N 
HETATM   29  H   UNL     1       8.695  24.536  53.583  1.00  0.00     0.279 HD
HETATM   30  C   UNL     1       6.893  24.236  54.635  1.00  0.00     0.239 C 
HETATM   31  C   UNL     1       7.491  23.268  55.660  1.00  0.00     0.008 C 
HETATM   32  C   UNL     1       8.778  23.815  56.282  1.00  0.00     0.011 C 
HETATM   33  C   UNL     1       7.699  21.877  55.047  1.00  0.00     0.011 C 
HETATM   34  C   UNL     1       8.483  21.928  53.731  1.00  0.00     0.008 C 
HETATM   35  C   UNL     1       8.585  20.532  53.117  1.00  0.00     0.011 C 
HETATM   36  C   UNL     1       7.830  22.898  52.744  1.00  0.00     0.239 C 
ENDBRANCH  27  28
ENDBRANCH  26  27
ENDBRANCH  25  26
ENDBRANCH  22  25
ENDBRANCH  20  21
ENDBRANCH  19  20
ENDBRANCH   1  19
TORSDOF 10
ENDMDL
MODEL 3
REMARK VINA RESULT:      -8.9      3.064     10.382
REMARK  10 active torsions:
REMARK  status: ('A' for Active; 'I' for Inactive)
REMARK    1  A    between atoms: N_7  and  C_8 
REMARK    2  A    between atoms: C_8  and  C_9 
REMARK       I    between atoms: C_9  and  N_10 
REMARK    3  A    between atoms: N_10  and  C_11 
REMARK    4  A    between atoms: C_11  and  C_12 
REMARK    5  A    between atoms: C_12  and  C_13 
REMARK    6  A    between atoms: C_13  and  C_14 
REMARK       I    between atoms: C_14  and  N_15 
REMARK    7  A    between atoms: N_15  and  C_16 
REMARK    8  A    between atoms: C_16  and  C_17 
REMARK    9  A    between atoms: C_17  and  C_18 
REMARK   10  A    between atoms: C_18  and  N_19 
ROOT
HETATM    1  C   UNL     1       8.465  29.638  56.355  1.00  0.00     0.123 C 
ENDROOT
BRANCH   1   2
HETATM    2  N   UNL     1       7.370  28.708  56.179  1.00  0.00    -0.360 N 
HETATM    3  C   UNL     1       6.080  29.149  55.943  1.00  0.00     0.235 C 
HETATM    4  O   UNL     1       5.787  30.341  55.899  1.00  0.00    -0.272 OA
HETATM    5  H   UNL     1       7.549  27.717  56.294  1.00  0.00     0.162 HD
BRANCH   3   6
HETATM    6  C   UNL     1       5.075  28.031  55.666  1.00  0.00     0.235 C 
BRANCH   6   7
HETATM    7  N   UNL     1       5.742  26.742  55.667  1.00  0.00    -0.299 N 
HETATM    8  C   UNL     1       5.822  26.001  56.830  1.00  0.00     0.214 A 
HETATM    9  N   UNL     1       6.362  24.831  56.939  1.00  0.00    -0.235 NA
HETATM   10  C   UNL     1       6.878  24.343  55.783  1.00  0.00     0.115 A 
HETATM   11  C   UNL     1       6.920  24.981  54.564  1.00  0.00     0.075 A 
HETATM   12  S   UNL     1       7.568  22.792  55.708  1.00  0.00    -0.074 SA
HETATM   13  C   UNL     1       7.546  24.186  53.537  1.00  0.00    -0.031 A 
HETATM   14  C   UNL     1       6.338  26.312  54.484  1.00  0.00     0.262 A 
HETATM   15  C   UNL     1       7.738  24.638  52.124  1.00  0.00     0.050 C 
HETATM   16  C   UNL     1       7.912  22.943  54.038  1.00  0.00    -0.012 A 
HETATM   17  C   UNL     1       8.547  21.795  53.322  1.00  0.00     0.057 C 
HETATM   18  O   UNL     1       6.367  26.998  53.464  1.00  0.00    -0.267 OA
ENDBRANCH   6   7
ENDBRANCH   3   6
ENDBRANCH   1   2
BRANCH   1  19
HETATM   19  C   UNL     1       9.162  29.467  57.703  1.00  0.00     0.029 C 
BRANCH  19  20
HETATM   20  C   UNL     1       8.182  29.685  58.853  1.00  0.00     0.104 C 
BRANCH  20  21
HETATM   21  C   UNL     1       7.592  31.081  58.883  1.00  0.00     0.217 C 
HETATM   22  N   UNL     1       6.220  31.145  58.878  1.00  0.00    -0.361 N 
HETATM   23  H   UNL     1       5.703  30.281  58.725  1.00  0.00     0.162 HD
HETATM   24  O   UNL     1       8.286  32.097  58.883  1.00  0.00    -0.274 OA
BRANCH  22  25
HETATM   25  C   UNL     1       5.501  32.388  58.698  1.00  0.00     0.124 C 
BRANCH  25  26
HETATM   26  C   UNL     1       4.541  32.727  59.838  1.00  0.00     0.047 C 
BRANCH  26  27
HETATM   27  C   UNL     1       4.993  33.785  60.850  1.00  0.00     0.236 C 
BRANCH  27  28
HETATM   28  N   UNL     1       5.823  33.244  61.993  1.00  0.00    -0.070 N 
HETATM   29  H   UNL     1       5.535  32.245  62.080  1.00  0.00     0.279 HD
HETATM   30  C   UNL     1       7.308  33.348  61.788  1.00  0.00     0.239 C 
HETATM   31  C   UNL     1       8.077  32.678  62.930  1.00  0.00     0.008 C 
HETATM   32  C   UNL     1       7.984  31.151  62.866  1.00  0.00     0.011 C 
HETATM   33  C   UNL     1       7.624  33.220  64.292  1.00  0.00     0.011 C 
HETATM   34  C   UNL     1       6.103  33.163  64.469  1.00  0.00     0.008 C 
HETATM   35  C   UNL     1       5.697  33.797  65.799  1.00  0.00     0.011 C 
HETATM   36  C   UNL     1       5.392  33.861  63.307  1.00  0.00     0.239 C 
ENDBRANCH  27  28
ENDBRANCH  26  27
ENDBRANCH  25  26
ENDBRANCH  22  25
ENDBRANCH  20  21
ENDBRANCH  19  20
ENDBRANCH   1  19
TORSDOF 10
ENDMDL
MODEL 4
REMARK VINA RESULT:      -8.9      3.407     10.984
REMARK  10 active torsions:
REMARK  status: ('A' for Active; 'I' for Inactive)
REMARK    1  A    between atoms: N_7  and  C_8 
REMARK    2  A    between atoms: C_8  and  C_9 
REMARK       I    between atoms: C_9  and  N_10 
REMARK    3  A    between atoms: N_10  and  C_11 
REMARK    4  A    between atoms: C_11  and  C_12 
REMARK    5  A    between atoms: C_12  and  C_13 
REMARK    6  A    between atoms: C_13  and  C_14 
REMARK       I    between atoms: C_14  and  N_15 
REMARK    7  A    between atoms: N_15  and  C_16 
REMARK    8  A    between atoms: C_16  and  C_17 
REMARK    9  A    between atoms: C_17  and  C_18 
REMARK   10  A    between atoms: C_18  and  N_19 
ROOT
HETATM    1  C   UNL     1       7.508  29.375  56.128  1.00  0.00     0.123 C 
ENDROOT
BRANCH   1   2
HETATM    2  N   UNL     1       6.504  28.406  55.741  1.00  0.00    -0.360 N 
HETATM    3  C   UNL     1       6.472  27.873  54.465  1.00  0.00     0.235 C 
HETATM    4  O   UNL     1       7.264  28.209  53.588  1.00  0.00    -0.272 OA
HETATM    5  H   UNL     1       5.778  28.165  56.406  1.00  0.00     0.162 HD
BRANCH   3   6
HETATM    6  C   UNL     1       5.421  26.780  54.267  1.00  0.00     0.235 C 
BRANCH   6   7
HETATM    7  N   UNL     1       6.064  25.490  54.093  1.00  0.00    -0.299 N 
HETATM    8  C   UNL     1       6.068  24.877  52.854  1.00  0.00     0.214 A 
HETATM    9  N   UNL     1       6.636  23.749  52.577  1.00  0.00    -0.235 NA
HETATM   10  C   UNL     1       7.261  23.164  53.630  1.00  0.00     0.115 A 
HETATM   11  C   UNL     1       7.299  23.625  54.927  1.00  0.00     0.075 A 
HETATM   12  S   UNL     1       8.123  21.711  53.450  1.00  0.00    -0.074 SA
HETATM   13  C   UNL     1       8.045  22.759  55.807  1.00  0.00    -0.031 A 
HETATM   14  C   UNL     1       6.619  24.877  55.214  1.00  0.00     0.262 A 
HETATM   15  C   UNL     1       8.235  23.009  57.269  1.00  0.00     0.050 C 
HETATM   16  C   UNL     1       8.579  21.689  55.101  1.00  0.00    -0.012 A 
HETATM   17  C   UNL     1       9.448  20.579  55.598  1.00  0.00     0.057 C 
HETATM   18  O   UNL     1       6.539  25.357  56.343  1.00  0.00    -0.267 OA
ENDBRANCH   6   7
ENDBRANCH   3   6
ENDBRANCH   1   2
BRANCH   1  19
HETATM   19  C   UNL     1       8.312  28.923  57.346  1.00  0.00     0.029 C 
BRANCH  19  20
HETATM   20  C   UNL     1       9.766  29.377  57.236  1.00  0.00     0.104 C 
BRANCH  20  21
HETATM   21  C   UNL     1      10.070  30.621  58.046  1.00  0.00     0.217 C 
HETATM   22  N   UNL     1       9.270  30.822  59.145  1.00  0.00    -0.361 N 
HETATM   23  H   UNL     1       8.463  30.213  59.265  1.00  0.00     0.162 HD
HETATM   24  O   UNL     1      10.953  31.419  57.735  1.00  0.00    -0.274 OA
BRANCH  22  25
HETATM   25  C   UNL     1       9.290  32.055  59.903  1.00  0.00     0.124 C 
BRANCH  25  26
HETATM   26  C   UNL     1       9.594  31.871  61.390  1.00  0.00     0.047 C 
BRANCH  26  27
HETATM   27  C   UNL     1       8.472  31.324  62.278  1.00  0.00     0.236 C 
BRANCH  27  28
HETATM   28  N   UNL     1       7.485  32.367  62.754  1.00  0.00    -0.070 N 
HETATM   29  H   UNL     1       7.814  33.258  62.324  1.00  0.00     0.279 HD
HETATM   30  C   UNL     1       6.057  32.094  62.372  1.00  0.00     0.239 C 
HETATM   31  C   UNL     1       5.138  33.246  62.786  1.00  0.00     0.008 C 
HETATM   32  C   UNL     1       5.336  34.483  61.905  1.00  0.00     0.011 C 
HETATM   33  C   UNL     1       5.304  33.574  64.276  1.00  0.00     0.011 C 
HETATM   34  C   UNL     1       6.769  33.795  64.668  1.00  0.00     0.008 C 
HETATM   35  C   UNL     1       6.889  34.027  66.174  1.00  0.00     0.011 C 
HETATM   36  C   UNL     1       7.633  32.605  64.242  1.00  0.00     0.239 C 
ENDBRANCH  27  28
ENDBRANCH  26  27
ENDBRANCH  25  26
ENDBRANCH  22  25
ENDBRANCH  20  21
ENDBRANCH  19  20
ENDBRANCH   1  19
TORSDOF 10
ENDMDL
MODEL 5
REMARK VINA RESULT:      -8.8      1.882      2.927
REMARK  10 active torsions:
REMARK  status: ('A' for Active; 'I' for Inactive)
REMARK    1  A    between atoms: N_7  and  C_8 
REMARK    2  A    between atoms: C_8  and  C_9 
REMARK       I    between atoms: C_9  and  N_10 
REMARK    3  A    between atoms: N_10  and  C_11 
REMARK    4  A    between atoms: C_11  and  C_12 
REMARK    5  A    between atoms: C_12  and  C_13 
REMARK    6  A    between atoms: C_13  and  C_14 
REMARK       I    between atoms: C_14  and  N_15 
REMARK    7  A    between atoms: N_15  and  C_16 
REMARK    8  A    between atoms: C_16  and  C_17 
REMARK    9  A    between atoms: C_17  and  C_18 
REMARK   10  A    between atoms: C_18  and  N_19 
ROOT
HETATM    1  C   UNL     1       8.417  30.359  59.031  1.00  0.00     0.123 C 
ENDROOT
BRANCH   1   2
HETATM    2  N   UNL     1       7.124  30.916  59.370  1.00  0.00    -0.360 N 
HETATM    3  C   UNL     1       7.013  32.080  60.110  1.00  0.00     0.235 C 
HETATM    4  O   UNL     1       7.990  32.684  60.542  1.00  0.00    -0.272 OA
HETATM    5  H   UNL     1       6.290  30.404  59.108  1.00  0.00     0.162 HD
BRANCH   3   6
HETATM    6  C   UNL     1       5.579  32.585  60.272  1.00  0.00     0.235 C 
BRANCH   6   7
HETATM    7  N   UNL     1       5.316  32.918  61.660  1.00  0.00    -0.299 N 
HETATM    8  C   UNL     1       5.230  31.919  62.610  1.00  0.00     0.214 A 
HETATM    9  N   UNL     1       5.033  32.101  63.875  1.00  0.00    -0.235 NA
HETATM   10  C   UNL     1       4.907  33.402  64.240  1.00  0.00     0.115 A 
HETATM   11  C   UNL     1       4.919  34.498  63.407  1.00  0.00     0.075 A 
HETATM   12  S   UNL     1       4.712  33.849  65.868  1.00  0.00    -0.074 SA
HETATM   13  C   UNL     1       4.752  35.742  64.115  1.00  0.00    -0.031 A 
HETATM   14  C   UNL     1       5.104  34.256  61.985  1.00  0.00     0.262 A 
HETATM   15  C   UNL     1       4.712  37.085  63.458  1.00  0.00     0.050 C 
HETATM   16  C   UNL     1       4.664  35.517  65.483  1.00  0.00    -0.012 A 
HETATM   17  C   UNL     1       4.529  36.512  66.590  1.00  0.00     0.057 C 
HETATM   18  O   UNL     1       5.077  35.150  61.141  1.00  0.00    -0.267 OA
ENDBRANCH   6   7
ENDBRANCH   3   6
ENDBRANCH   1   2
BRANCH   1  19
HETATM   19  C   UNL     1       8.461  29.822  57.601  1.00  0.00     0.029 C 
BRANCH  19  20
HETATM   20  C   UNL     1       7.053  29.536  57.084  1.00  0.00     0.104 C 
BRANCH  20  21
HETATM   21  C   UNL     1       6.845  28.092  56.676  1.00  0.00     0.217 C 
HETATM   22  N   UNL     1       6.838  27.180  57.704  1.00  0.00    -0.361 N 
HETATM   23  H   UNL     1       7.097  27.507  58.633  1.00  0.00     0.162 HD
HETATM   24  O   UNL     1       6.718  27.743  55.502  1.00  0.00    -0.274 OA
BRANCH  22  25
HETATM   25  C   UNL     1       6.857  25.752  57.475  1.00  0.00     0.124 C 
BRANCH  25  26
HETATM   26  C   UNL     1       8.258  25.159  57.323  1.00  0.00     0.047 C 
BRANCH  26  27
HETATM   27  C   UNL     1       8.362  23.704  56.859  1.00  0.00     0.236 C 
BRANCH  27  28
HETATM   28  N   UNL     1       7.866  23.458  55.451  1.00  0.00    -0.070 N 
HETATM   29  H   UNL     1       6.846  23.268  55.559  1.00  0.00     0.279 HD
HETATM   30  C   UNL     1       8.091  24.603  54.503  1.00  0.00     0.239 C 
HETATM   31  C   UNL     1       7.461  24.326  53.135  1.00  0.00     0.008 C 
HETATM   32  C   UNL     1       5.933  24.414  53.179  1.00  0.00     0.011 C 
HETATM   33  C   UNL     1       7.939  22.982  52.571  1.00  0.00     0.011 C 
HETATM   34  C   UNL     1       7.758  21.831  53.566  1.00  0.00     0.008 C 
HETATM   35  C   UNL     1       8.331  20.535  52.993  1.00  0.00     0.011 C 
HETATM   36  C   UNL     1       8.421  22.159  54.906  1.00  0.00     0.239 C 
ENDBRANCH  27  28
ENDBRANCH  26  27
ENDBRANCH  25  26
ENDBRANCH  22  25
ENDBRANCH  20  21
ENDBRANCH  19  20
ENDBRANCH   1  19
TORSDOF 10
ENDMDL
MODEL 6
REMARK VINA RESULT:      -8.8      1.672      2.120
REMARK  10 active torsions:
REMARK  status: ('A' for Active; 'I' for Inactive)
REMARK    1  A    between atoms: N_7  and  C_8 
REMARK    2  A    between atoms: C_8  and  C_9 
REMARK       I    between atoms: C_9  and  N_10 
REMARK    3  A    between atoms: N_10  and  C_11 
REMARK    4  A    between atoms: C_11  and  C_12 
REMARK    5  A    between atoms: C_12  and  C_13 
REMARK    6  A    between atoms: C_13  and  C_14 
REMARK       I    between atoms: C_14  and  N_15 
REMARK    7  A    between atoms: N_15  and  C_16 
REMARK    8  A    between atoms: C_16  and  C_17 
REMARK    9  A    between atoms: C_17  and  C_18 
REMARK   10  A    between atoms: C_18  and  N_19 
ROOT
HETATM    1  C   UNL     1      10.552  30.694  57.775  1.00  0.00     0.123 C 
ENDROOT
BRANCH   1   2
HETATM    2  N   UNL     1       9.302  30.534  58.488  1.00  0.00    -0.360 N 
HETATM    3  C   UNL     1       8.748  31.573  59.214  1.00  0.00     0.235 C 
HETATM    4  O   UNL     1       9.293  32.669  59.320  1.00  0.00    -0.272 OA
HETATM    5  H   UNL     1       8.861  29.621  58.499  1.00  0.00     0.162 HD
BRANCH   3   6
HETATM    6  C   UNL     1       7.371  31.264  59.802  1.00  0.00     0.235 C 
BRANCH   6   7
HETATM    7  N   UNL     1       7.222  31.903  61.097  1.00  0.00    -0.299 N 
HETATM    8  C   UNL     1       8.043  31.543  62.149  1.00  0.00     0.214 A 
HETATM    9  N   UNL     1       8.021  32.067  63.331  1.00  0.00    -0.235 NA
HETATM   10  C   UNL     1       7.093  33.043  63.493  1.00  0.00     0.115 A 
HETATM   11  C   UNL     1       6.176  33.474  62.561  1.00  0.00     0.075 A 
HETATM   12  S   UNL     1       6.957  33.899  64.955  1.00  0.00    -0.074 SA
HETATM   13  C   UNL     1       5.325  34.527  63.057  1.00  0.00    -0.031 A 
HETATM   14  C   UNL     1       6.202  32.838  61.253  1.00  0.00     0.262 A 
HETATM   15  C   UNL     1       4.233  35.169  62.263  1.00  0.00     0.050 C 
HETATM   16  C   UNL     1       5.683  34.873  64.354  1.00  0.00    -0.012 A 
HETATM   17  C   UNL     1       5.104  35.934  65.234  1.00  0.00     0.057 C 
HETATM   18  O   UNL     1       5.397  33.101  60.362  1.00  0.00    -0.267 OA
ENDBRANCH   6   7
ENDBRANCH   3   6
ENDBRANCH   1   2
BRANCH   1  19
HETATM   19  C   UNL     1      10.845  29.517  56.845  1.00  0.00     0.029 C 
BRANCH  19  20
HETATM   20  C   UNL     1      10.030  29.626  55.558  1.00  0.00     0.104 C 
BRANCH  20  21
HETATM   21  C   UNL     1       8.703  28.898  55.625  1.00  0.00     0.217 C 
HETATM   22  N   UNL     1       8.111  28.632  54.413  1.00  0.00    -0.361 N 
HETATM   23  H   UNL     1       8.525  29.045  53.580  1.00  0.00     0.162 HD
HETATM   24  O   UNL     1       8.166  28.586  56.688  1.00  0.00    -0.274 OA
BRANCH  22  25
HETATM   25  C   UNL     1       6.758  28.132  54.304  1.00  0.00     0.124 C 
BRANCH  25  26
HETATM   26  C   UNL     1       6.350  27.734  52.885  1.00  0.00     0.047 C 
BRANCH  26  27
HETATM   27  C   UNL     1       6.396  26.245  52.529  1.00  0.00     0.236 C 
BRANCH  27  28
HETATM   28  N   UNL     1       6.944  25.355  53.623  1.00  0.00    -0.070 N 
HETATM   29  H   UNL     1       7.758  25.880  54.009  1.00  0.00     0.279 HD
HETATM   30  C   UNL     1       5.960  25.033  54.714  1.00  0.00     0.239 C 
HETATM   31  C   UNL     1       6.618  24.229  55.838  1.00  0.00     0.008 C 
HETATM   32  C   UNL     1       7.562  25.090  56.683  1.00  0.00     0.011 C 
HETATM   33  C   UNL     1       7.323  22.984  55.285  1.00  0.00     0.011 C 
HETATM   34  C   UNL     1       8.280  23.315  54.135  1.00  0.00     0.008 C 
HETATM   35  C   UNL     1       8.886  22.034  53.560  1.00  0.00     0.011 C 
HETATM   36  C   UNL     1       7.563  24.104  53.037  1.00  0.00     0.239 C 
ENDBRANCH  27  28
ENDBRANCH  26  27
ENDBRANCH  25  26
ENDBRANCH  22  25
ENDBRANCH  20  21
ENDBRANCH  19  20
ENDBRANCH   1  19
TORSDOF 10
ENDMDL
MODEL 7
REMARK VINA RESULT:      -8.7      3.097     11.358
REMARK  10 active torsions:
REMARK  status: ('A' for Active; 'I' for Inactive)
REMARK    1  A    between atoms: N_7  and  C_8 
REMARK    2  A    between atoms: C_8  and  C_9 
REMARK       I    between atoms: C_9  and  N_10 
REMARK    3  A    between atoms: N_10  and  C_11 
REMARK    4  A    between atoms: C_11  and  C_12 
REMARK    5  A    between atoms: C_12  and  C_13 
REMARK    6  A    between atoms: C_13  and  C_14 
REMARK       I    between atoms: C_14  and  N_15 
REMARK    7  A    between atoms: N_15  and  C_16 
REMARK    8  A    between atoms: C_16  and  C_17 
REMARK    9  A    between atoms: C_17  and  C_18 
REMARK   10  A    between atoms: C_18  and  N_19 
ROOT
HETATM    1  C   UNL     1       6.501  30.076  56.728  1.00  0.00     0.123 C 
ENDROOT
BRANCH   1   2
HETATM    2  N   UNL     1       5.968  28.923  56.034  1.00  0.00    -0.360 N 
HETATM    3  C   UNL     1       6.720  28.232  55.101  1.00  0.00     0.235 C 
HETATM    4  O   UNL     1       7.858  28.570  54.789  1.00  0.00    -0.272 OA
HETATM    5  H   UNL     1       5.002  28.661  56.197  1.00  0.00     0.162 HD
BRANCH   3   6
HETATM    6  C   UNL     1       6.042  26.974  54.556  1.00  0.00     0.235 C 
BRANCH   6   7
HETATM    7  N   UNL     1       6.656  25.787  55.122  1.00  0.00    -0.299 N 
HETATM    8  C   UNL     1       6.953  25.732  56.470  1.00  0.00     0.214 A 
HETATM    9  N   UNL     1       7.467  24.718  57.085  1.00  0.00    -0.235 NA
HETATM   10  C   UNL     1       7.717  23.649  56.288  1.00  0.00     0.115 A 
HETATM   11  C   UNL     1       7.525  23.571  54.927  1.00  0.00     0.075 A 
HETATM   12  S   UNL     1       8.329  22.196  56.923  1.00  0.00    -0.074 SA
HETATM   13  C   UNL     1       7.899  22.290  54.381  1.00  0.00    -0.031 A 
HETATM   14  C   UNL     1       6.980  24.742  54.259  1.00  0.00     0.262 A 
HETATM   15  C   UNL     1       7.809  21.936  52.930  1.00  0.00     0.050 C 
HETATM   16  C   UNL     1       8.324  21.435  55.389  1.00  0.00    -0.012 A 
HETATM   17  C   UNL     1       8.761  20.009  55.286  1.00  0.00     0.057 C 
HETATM   18  O   UNL     1       6.817  24.808  53.042  1.00  0.00    -0.267 OA
ENDBRANCH   6   7
ENDBRANCH   3   6
ENDBRANCH   1   2
BRANCH   1  19
HETATM   19  C   UNL     1       7.199  29.697  58.034  1.00  0.00     0.029 C 
BRANCH  19  20
HETATM   20  C   UNL     1       8.705  29.923  57.930  1.00  0.00     0.104 C 
BRANCH  20  21
HETATM   21  C   UNL     1       9.226  30.959  58.905  1.00  0.00     0.217 C 
HETATM   22  N   UNL     1       9.164  30.607  60.232  1.00  0.00    -0.361 N 
HETATM   23  H   UNL     1       8.666  29.754  60.477  1.00  0.00     0.162 HD
HETATM   24  O   UNL     1       9.652  32.057  58.547  1.00  0.00    -0.274 OA
BRANCH  22  25
HETATM   25  C   UNL     1       9.426  31.550  61.298  1.00  0.00     0.124 C 
BRANCH  25  26
HETATM   26  C   UNL     1       8.173  32.217  61.867  1.00  0.00     0.047 C 
BRANCH  26  27
HETATM   27  C   UNL     1       8.163  32.538  63.364  1.00  0.00     0.236 C 
BRANCH  27  28
HETATM   28  N   UNL     1       6.932  33.278  63.838  1.00  0.00    -0.070 N 
HETATM   29  H   UNL     1       7.048  34.247  63.471  1.00  0.00     0.279 HD
HETATM   30  C   UNL     1       5.632  32.689  63.367  1.00  0.00     0.239 C 
HETATM   31  C   UNL     1       4.442  33.555  63.788  1.00  0.00     0.008 C 
HETATM   32  C   UNL     1       4.364  34.854  62.981  1.00  0.00     0.011 C 
HETATM   33  C   UNL     1       4.462  33.822  65.299  1.00  0.00     0.011 C 
HETATM   34  C   UNL     1       5.811  34.369  65.779  1.00  0.00     0.008 C 
HETATM   35  C   UNL     1       5.809  34.531  67.299  1.00  0.00     0.011 C 
HETATM   36  C   UNL     1       6.957  33.454  65.342  1.00  0.00     0.239 C 
ENDBRANCH  27  28
ENDBRANCH  26  27
ENDBRANCH  25  26
ENDBRANCH  22  25
ENDBRANCH  20  21
ENDBRANCH  19  20
ENDBRANCH   1  19
TORSDOF 10
ENDMDL
MODEL 8
REMARK VINA RESULT:      -8.7      3.376     11.944
REMARK  10 active torsions:
REMARK  status: ('A' for Active; 'I' for Inactive)
REMARK    1  A    between atoms: N_7  and  C_8 
REMARK    2  A    between atoms: C_8  and  C_9 
REMARK       I    between atoms: C_9  and  N_10 
REMARK    3  A    between atoms: N_10  and  C_11 
REMARK    4  A    between atoms: C_11  and  C_12 
REMARK    5  A    between atoms: C_12  and  C_13 
REMARK    6  A    between atoms: C_13  and  C_14 
REMARK       I    between atoms: C_14  and  N_15 
REMARK    7  A    between atoms: N_15  and  C_16 
REMARK    8  A    between atoms: C_16  and  C_17 
REMARK    9  A    between atoms: C_17  and  C_18 
REMARK   10  A    between atoms: C_18  and  N_19 
ROOT
HETATM    1  C   UNL     1       5.959  29.867  57.306  1.00  0.00     0.123 C 
ENDROOT
BRANCH   1   2
HETATM    2  N   UNL     1       6.965  28.830  57.402  1.00  0.00    -0.360 N 
HETATM    3  C   UNL     1       6.627  27.490  57.341  1.00  0.00     0.235 C 
HETATM    4  O   UNL     1       5.466  27.105  57.233  1.00  0.00    -0.272 OA
HETATM    5  H   UNL     1       7.926  29.099  57.579  1.00  0.00     0.162 HD
BRANCH   3   6
HETATM    6  C   UNL     1       7.825  26.540  57.340  1.00  0.00     0.235 C 
BRANCH   6   7
HETATM    7  N   UNL     1       7.761  25.650  56.195  1.00  0.00    -0.299 N 
HETATM    8  C   UNL     1       7.416  26.141  54.951  1.00  0.00     0.214 A 
HETATM    9  N   UNL     1       7.359  25.449  53.860  1.00  0.00    -0.235 NA
HETATM   10  C   UNL     1       7.672  24.138  54.012  1.00  0.00     0.115 A 
HETATM   11  C   UNL     1       7.985  23.495  55.189  1.00  0.00     0.075 A 
HETATM   12  S   UNL     1       7.722  23.080  52.683  1.00  0.00    -0.074 SA
HETATM   13  C   UNL     1       8.261  22.093  55.005  1.00  0.00    -0.031 A 
HETATM   14  C   UNL     1       8.002  24.294  56.404  1.00  0.00     0.262 A 
HETATM   15  C   UNL     1       8.612  21.152  56.114  1.00  0.00     0.050 C 
HETATM   16  C   UNL     1       8.184  21.752  53.660  1.00  0.00    -0.012 A 
HETATM   17  C   UNL     1       8.434  20.429  53.012  1.00  0.00     0.057 C 
HETATM   18  O   UNL     1       8.213  23.819  57.518  1.00  0.00    -0.267 OA
ENDBRANCH   6   7
ENDBRANCH   3   6
ENDBRANCH   1   2
BRANCH   1  19
HETATM   19  C   UNL     1       6.376  31.149  58.025  1.00  0.00     0.029 C 
BRANCH  19  20
HETATM   20  C   UNL     1       7.779  31.012  58.612  1.00  0.00     0.104 C 
BRANCH  20  21
HETATM   21  C   UNL     1       8.083  32.035  59.687  1.00  0.00     0.217 C 
HETATM   22  N   UNL     1       7.093  32.225  60.621  1.00  0.00    -0.361 N 
HETATM   23  H   UNL     1       6.193  31.777  60.460  1.00  0.00     0.162 HD
HETATM   24  O   UNL     1       9.130  32.681  59.716  1.00  0.00    -0.274 OA
BRANCH  22  25
HETATM   25  C   UNL     1       7.134  33.302  61.587  1.00  0.00     0.124 C 
BRANCH  25  26
HETATM   26  C   UNL     1       6.478  32.967  62.927  1.00  0.00     0.047 C 
BRANCH  26  27
HETATM   27  C   UNL     1       7.210  33.402  64.199  1.00  0.00     0.236 C 
BRANCH  27  28
HETATM   28  N   UNL     1       6.322  34.031  65.250  1.00  0.00    -0.070 N 
HETATM   29  H   UNL     1       6.344  35.052  65.038  1.00  0.00     0.279 HD
HETATM   30  C   UNL     1       4.906  33.525  65.252  1.00  0.00     0.239 C 
HETATM   31  C   UNL     1       4.043  34.288  66.260  1.00  0.00     0.008 C 
HETATM   32  C   UNL     1       3.733  35.712  65.788  1.00  0.00     0.011 C 
HETATM   33  C   UNL     1       4.682  34.275  67.654  1.00  0.00     0.011 C 
HETATM   34  C   UNL     1       6.143  34.738  67.633  1.00  0.00     0.008 C 
HETATM   35  C   UNL     1       6.760  34.621  69.027  1.00  0.00     0.011 C 
HETATM   36  C   UNL     1       6.957  33.930  66.620  1.00  0.00     0.239 C 
ENDBRANCH  27  28
ENDBRANCH  26  27
ENDBRANCH  25  26
ENDBRANCH  22  25
ENDBRANCH  20  21
ENDBRANCH  19  20
ENDBRANCH   1  19
TORSDOF 10
ENDMDL
MODEL 9
REMARK VINA RESULT:      -8.6      2.022      2.751
REMARK  10 active torsions:
REMARK  status: ('A' for Active; 'I' for Inactive)
REMARK    1  A    between atoms: N_7  and  C_8 
REMARK    2  A    between atoms: C_8  and  C_9 
REMARK       I    between atoms: C_9  and  N_10 
REMARK    3  A    between atoms: N_10  and  C_11 
REMARK    4  A    between atoms: C_11  and  C_12 
REMARK    5  A    between atoms: C_12  and  C_13 
REMARK    6  A    between atoms: C_13  and  C_14 
REMARK       I    between atoms: C_14  and  N_15 
REMARK    7  A    between atoms: N_15  and  C_16 
REMARK    8  A    between atoms: C_16  and  C_17 
REMARK    9  A    between atoms: C_17  and  C_18 
REMARK   10  A    between atoms: C_18  and  N_19 
ROOT
HETATM    1  C   UNL     1       7.298  31.211  58.519  1.00  0.00     0.123 C 
ENDROOT
BRANCH   1   2
HETATM    2  N   UNL     1       6.092  31.269  59.319  1.00  0.00    -0.360 N 
HETATM    3  C   UNL     1       5.280  32.389  59.319  1.00  0.00     0.235 C 
HETATM    4  O   UNL     1       5.547  33.398  58.671  1.00  0.00    -0.272 OA
HETATM    5  H   UNL     1       5.879  30.493  59.935  1.00  0.00     0.162 HD
BRANCH   3   6
HETATM    6  C   UNL     1       3.992  32.231  60.127  1.00  0.00     0.235 C 
BRANCH   6   7
HETATM    7  N   UNL     1       4.202  32.659  61.498  1.00  0.00    -0.299 N 
HETATM    8  C   UNL     1       4.656  31.760  62.445  1.00  0.00     0.214 A 
HETATM    9  N   UNL     1       4.908  32.037  63.682  1.00  0.00    -0.235 NA
HETATM   10  C   UNL     1       4.689  33.332  64.022  1.00  0.00     0.115 A 
HETATM   11  C   UNL     1       4.193  34.326  63.207  1.00  0.00     0.075 A 
HETATM   12  S   UNL     1       5.028  33.907  65.584  1.00  0.00    -0.074 SA
HETATM   13  C   UNL     1       4.073  35.595  63.882  1.00  0.00    -0.031 A 
HETATM   14  C   UNL     1       3.883  33.972  61.831  1.00  0.00     0.262 A 
HETATM   15  C   UNL     1       3.550  36.841  63.242  1.00  0.00     0.050 C 
HETATM   16  C   UNL     1       4.537  35.499  65.188  1.00  0.00    -0.012 A 
HETATM   17  C   UNL     1       4.639  36.569  66.227  1.00  0.00     0.057 C 
HETATM   18  O   UNL     1       3.385  34.761  61.030  1.00  0.00    -0.267 OA
ENDBRANCH   6   7
ENDBRANCH   3   6
ENDBRANCH   1   2
BRANCH   1  19
HETATM   19  C   UNL     1       8.298  30.185  59.049  1.00  0.00     0.029 C 
BRANCH  19  20
HETATM   20  C   UNL     1       9.343  29.847  57.988  1.00  0.00     0.104 C 
BRANCH  20  21
HETATM   21  C   UNL     1       8.894  28.765  57.026  1.00  0.00     0.217 C 
HETATM   22  N   UNL     1       8.652  29.180  55.739  1.00  0.00    -0.361 N 
HETATM   23  H   UNL     1       8.662  30.181  55.551  1.00  0.00     0.162 HD
HETATM   24  O   UNL     1       8.725  27.596  57.370  1.00  0.00    -0.274 OA
BRANCH  22  25
HETATM   25  C   UNL     1       8.026  28.327  54.753  1.00  0.00     0.124 C 
BRANCH  25  26
HETATM   26  C   UNL     1       6.499  28.296  54.830  1.00  0.00     0.047 C 
BRANCH  26  27
HETATM   27  C   UNL     1       5.844  27.010  55.344  1.00  0.00     0.236 C 
BRANCH  27  28
HETATM   28  N   UNL     1       6.770  25.815  55.401  1.00  0.00    -0.070 N 
HETATM   29  H   UNL     1       7.728  26.224  55.447  1.00  0.00     0.279 HD
HETATM   30  C   UNL     1       6.533  24.899  56.570  1.00  0.00     0.239 C 
HETATM   31  C   UNL     1       7.578  23.782  56.624  1.00  0.00     0.008 C 
HETATM   32  C   UNL     1       8.950  24.301  57.066  1.00  0.00     0.011 C 
HETATM   33  C   UNL     1       7.654  23.034  55.287  1.00  0.00     0.011 C 
HETATM   34  C   UNL     1       7.838  23.980  54.096  1.00  0.00     0.008 C 
HETATM   35  C   UNL     1       7.817  23.196  52.784  1.00  0.00     0.011 C 
HETATM   36  C   UNL     1       6.758  25.063  54.087  1.00  0.00     0.239 C 
ENDBRANCH  27  28
ENDBRANCH  26  27
ENDBRANCH  25  26
ENDBRANCH  22  25
ENDBRANCH  20  21
ENDBRANCH  19  20
ENDBRANCH   1  19
TORSDOF 10
ENDMDL
MODEL 10
REMARK VINA RESULT:      -8.6      3.240     10.820
REMARK  10 active torsions:
REMARK  status: ('A' for Active; 'I' for Inactive)
REMARK    1  A    between atoms: N_7  and  C_8 
REMARK    2  A    between atoms: C_8  and  C_9 
REMARK       I    between atoms: C_9  and  N_10 
REMARK    3  A    between atoms: N_10  and  C_11 
REMARK    4  A    between atoms: C_11  and  C_12 
REMARK    5  A    between atoms: C_12  and  C_13 
REMARK    6  A    between atoms: C_13  and  C_14 
REMARK       I    between atoms: C_14  and  N_15 
REMARK    7  A    between atoms: N_15  and  C_16 
REMARK    8  A    between atoms: C_16  and  C_17 
REMARK    9  A    between atoms: C_17  and  C_18 
REMARK   10  A    between atoms: C_18  and  N_19 
ROOT
HETATM    1  C   UNL     1       6.187  29.754  57.513  1.00  0.00     0.123 C 
ENDROOT
BRANCH   1   2
HETATM    2  N   UNL     1       7.145  28.670  57.584  1.00  0.00    -0.360 N 
HETATM    3  C   UNL     1       6.751  27.351  57.447  1.00  0.00     0.235 C 
HETATM    4  O   UNL     1       5.578  27.024  57.290  1.00  0.00    -0.272 OA
HETATM    5  H   UNL     1       8.111  28.888  57.798  1.00  0.00     0.162 HD
BRANCH   3   6
HETATM    6  C   UNL     1       7.907  26.350  57.430  1.00  0.00     0.235 C 
BRANCH   6   7
HETATM    7  N   UNL     1       7.828  25.511  56.248  1.00  0.00    -0.299 N 
HETATM    8  C   UNL     1       7.541  26.068  55.017  1.00  0.00     0.214 A 
HETATM    9  N   UNL     1       7.478  25.424  53.898  1.00  0.00    -0.235 NA
HETATM   10  C   UNL     1       7.721  24.093  54.004  1.00  0.00     0.115 A 
HETATM   11  C   UNL     1       7.970  23.389  55.161  1.00  0.00     0.075 A 
HETATM   12  S   UNL     1       7.753  23.088  52.634  1.00  0.00    -0.074 SA
HETATM   13  C   UNL     1       8.181  21.982  54.926  1.00  0.00    -0.031 A 
HETATM   14  C   UNL     1       7.996  24.137  56.407  1.00  0.00     0.262 A 
HETATM   15  C   UNL     1       8.455  20.982  56.004  1.00  0.00     0.050 C 
HETATM   16  C   UNL     1       8.122  21.700  53.567  1.00  0.00    -0.012 A 
HETATM   17  C   UNL     1       8.323  20.392  52.872  1.00  0.00     0.057 C 
HETATM   18  O   UNL     1       8.153  23.608  57.506  1.00  0.00    -0.267 OA
ENDBRANCH   6   7
ENDBRANCH   3   6
ENDBRANCH   1   2
BRANCH   1  19
HETATM   19  C   UNL     1       6.701  31.028  58.181  1.00  0.00     0.029 C 
BRANCH  19  20
HETATM   20  C   UNL     1       8.227  31.082  58.146  1.00  0.00     0.104 C 
BRANCH  20  21
HETATM   21  C   UNL     1       8.842  31.513  59.462  1.00  0.00     0.217 C 
HETATM   22  N   UNL     1       8.997  30.520  60.399  1.00  0.00    -0.361 N 
HETATM   23  H   UNL     1       8.579  29.612  60.204  1.00  0.00     0.162 HD
HETATM   24  O   UNL     1       9.159  32.679  59.699  1.00  0.00    -0.274 OA
BRANCH  22  25
HETATM   25  C   UNL     1       9.374  30.795  61.768  1.00  0.00     0.124 C 
BRANCH  25  26
HETATM   26  C   UNL     1       8.193  31.042  62.706  1.00  0.00     0.047 C 
BRANCH  26  27
HETATM   27  C   UNL     1       7.905  32.489  63.114  1.00  0.00     0.236 C 
BRANCH  27  28
HETATM   28  N   UNL     1       6.459  32.907  62.966  1.00  0.00    -0.070 N 
HETATM   29  H   UNL     1       5.948  32.352  63.686  1.00  0.00     0.279 HD
HETATM   30  C   UNL     1       6.212  34.377  63.162  1.00  0.00     0.239 C 
HETATM   31  C   UNL     1       4.717  34.703  63.112  1.00  0.00     0.008 C 
HETATM   32  C   UNL     1       3.982  34.219  64.366  1.00  0.00     0.011 C 
HETATM   33  C   UNL     1       4.077  34.157  61.829  1.00  0.00     0.011 C 
HETATM   34  C   UNL     1       4.382  32.672  61.608  1.00  0.00     0.008 C 
HETATM   35  C   UNL     1       3.800  32.201  60.275  1.00  0.00     0.011 C 
HETATM   36  C   UNL     1       5.889  32.411  61.653  1.00  0.00     0.239 C 
ENDBRANCH  27  28
ENDBRANCH  26  27
ENDBRANCH  25  26
ENDBRANCH  22  25
ENDBRANCH  20  21
ENDBRANCH  19  20
ENDBRANCH   1  19
TORSDOF 10
ENDMDL
