MODEL 1
REMARK VINA RESULT:      -8.9      0.000      0.000
REMARK  5 active torsions:
REMARK  status: ('A' for Active; 'I' for Inactive)
REMARK    1  A    between atoms: C_6  and  C_7 
REMARK    2  A    between atoms: C_7  and  C_8 
REMARK       I    between atoms: C_8  and  N_9 
REMARK    3  A    between atoms: N_9  and  N_10 
REMARK    4  A    between atoms: C_11  and  C_12 
REMARK    5  A    between atoms: C_13  and  O_14 
ROOT
HETATM    1  C   UNL     1       7.043  26.704  54.921  1.00  0.00     0.244 C 
HETATM    2  N   UNL     1       7.420  26.653  56.250  1.00  0.00    -0.247 N 
HETATM    3  O   UNL     1       7.469  27.537  54.118  1.00  0.00    -0.271 OA
HETATM    4  H   UNL     1       6.931  26.006  56.876  1.00  0.00     0.192 HD
ENDROOT
BRANCH   1   5
HETATM    5  C   UNL     1       6.135  25.583  54.444  1.00  0.00     0.183 C 
BRANCH   5   6
HETATM    6  C   UNL     1       6.724  24.214  54.550  1.00  0.00     0.114 A 
HETATM    7  N   UNL     1       7.040  23.552  55.648  1.00  0.00    -0.233 NA
HETATM    8  C   UNL     1       7.588  22.363  55.221  1.00  0.00     0.085 A 
HETATM    9  C   UNL     1       7.630  22.309  53.834  1.00  0.00     0.062 A 
HETATM   10  C   UNL     1       8.079  21.282  55.965  1.00  0.00     0.034 A 
HETATM   11  C   UNL     1       8.155  21.228  53.123  1.00  0.00     0.032 A 
HETATM   12  N   UNL     1       7.071  23.493  53.430  1.00  0.00    -0.342 N 
HETATM   13  C   UNL     1       8.647  20.159  53.882  1.00  0.00     0.002 A 
HETATM   14  C   UNL     1       8.608  20.181  55.278  1.00  0.00     0.002 A 
HETATM   15  H   UNL     1       6.947  23.789  52.472  1.00  0.00     0.167 HD
ENDBRANCH   5   6
ENDBRANCH   1   5
BRANCH   2  16
HETATM   16  N   UNL     1       8.302  27.562  56.745  1.00  0.00    -0.184 NA
HETATM   17  C   UNL     1       7.773  28.582  57.340  1.00  0.00     0.153 C 
BRANCH  17  18
HETATM   18  C   UNL     1       8.625  29.634  57.928  1.00  0.00     0.017 A 
HETATM   19  C   UNL     1       9.681  30.217  57.216  1.00  0.00     0.077 A 
HETATM   20  C   UNL     1      10.467  31.205  57.808  1.00  0.00     0.039 A 
HETATM   21  C   UNL     1      10.201  31.615  59.115  1.00  0.00     0.022 A 
HETATM   22  C   UNL     1       9.149  31.032  59.822  1.00  0.00     0.012 A 
HETATM   23 BR   UNL     1       8.792  31.589  61.594  1.00  0.00    -0.051 Br
HETATM   24  C   UNL     1       8.356  30.043  59.238  1.00  0.00     0.034 A 
BRANCH  19  25
HETATM   25  O   UNL     1      10.009  29.870  55.935  1.00  0.00    -0.360 OA
HETATM   26  H   UNL     1      10.978  30.009  55.811  1.00  0.00     0.217 HD
ENDBRANCH  19  25
ENDBRANCH  17  18
ENDBRANCH   2  16
TORSDOF 5
ENDMDL
MODEL 2
REMARK VINA RESULT:      -8.9      1.557      2.013
REMARK  5 active torsions:
REMARK  status: ('A' for Active; 'I' for Inactive)
REMARK    1  A    between atoms: C_6  and  C_7 
REMARK    2  A    between atoms: C_7  and  C_8 
REMARK       I    between atoms: C_8  and  N_9 
REMARK    3  A    between atoms: N_9  and  N_10 
REMARK    4  A    between atoms: C_11  and  C_12 
REMARK    5  A    between atoms: C_13  and  O_14 
ROOT
HETATM    1  C   UNL     1       7.433  26.058  57.373  1.00  0.00     0.244 C 
HETATM    2  N   UNL     1       7.268  27.429  57.299  1.00  0.00    -0.247 N 
HETATM    3  O   UNL     1       8.311  25.508  58.044  1.00  0.00    -0.271 OA
HETATM    4  H   UNL     1       6.591  27.806  56.628  1.00  0.00     0.192 HD
ENDROOT
BRANCH   1   5
HETATM    5  C   UNL     1       6.384  25.222  56.663  1.00  0.00     0.183 C 
BRANCH   5   6
HETATM    6  C   UNL     1       6.929  24.095  55.848  1.00  0.00     0.114 A 
HETATM    7  N   UNL     1       6.953  23.985  54.532  1.00  0.00    -0.233 NA
HETATM    8  C   UNL     1       7.509  22.753  54.271  1.00  0.00     0.085 A 
HETATM    9  C   UNL     1       7.808  22.086  55.452  1.00  0.00     0.062 A 
HETATM   10  C   UNL     1       7.784  22.133  53.045  1.00  0.00     0.034 A 
HETATM   11  C   UNL     1       8.363  20.806  55.492  1.00  0.00     0.032 A 
HETATM   12  N   UNL     1       7.435  22.960  56.440  1.00  0.00    -0.342 N 
HETATM   13  C   UNL     1       8.625  20.198  54.259  1.00  0.00     0.002 A 
HETATM   14  C   UNL     1       8.345  20.849  53.054  1.00  0.00     0.002 A 
HETATM   15  H   UNL     1       7.510  22.793  57.433  1.00  0.00     0.167 HD
ENDBRANCH   5   6
ENDBRANCH   1   5
BRANCH   2  16
HETATM   16  N   UNL     1       8.106  28.256  57.978  1.00  0.00    -0.184 NA
HETATM   17  C   UNL     1       7.595  29.389  58.340  1.00  0.00     0.153 C 
BRANCH  17  18
HETATM   18  C   UNL     1       8.401  30.370  59.092  1.00  0.00     0.017 A 
HETATM   19  C   UNL     1       9.589  30.905  58.577  1.00  0.00     0.077 A 
HETATM   20  C   UNL     1      10.324  31.827  59.320  1.00  0.00     0.039 A 
HETATM   21  C   UNL     1       9.877  32.219  60.582  1.00  0.00     0.022 A 
HETATM   22  C   UNL     1       8.694  31.684  61.093  1.00  0.00     0.012 A 
HETATM   23 BR   UNL     1       8.092  32.216  62.805  1.00  0.00    -0.051 Br
HETATM   24  C   UNL     1       7.950  30.761  60.357  1.00  0.00     0.034 A 
BRANCH  19  25
HETATM   25  O   UNL     1      10.097  30.572  57.352  1.00  0.00    -0.360 OA
HETATM   26  H   UNL     1       9.346  30.447  56.725  1.00  0.00     0.217 HD
ENDBRANCH  19  25
ENDBRANCH  17  18
ENDBRANCH   2  16
TORSDOF 5
ENDMDL
MODEL 3
REMARK VINA RESULT:      -8.9      3.758      9.267
REMARK  5 active torsions:
REMARK  status: ('A' for Active; 'I' for Inactive)
REMARK    1  A    between atoms: C_6  and  C_7 
REMARK    2  A    between atoms: C_7  and  C_8 
REMARK       I    between atoms: C_8  and  N_9 
REMARK    3  A    between atoms: N_9  and  N_10 
REMARK    4  A    between atoms: C_11  and  C_12 
REMARK    5  A    between atoms: C_13  and  O_14 
ROOT
HETATM    1  C   UNL     1       7.391  27.675  57.172  1.00  0.00     0.244 C 
HETATM    2  N   UNL     1       6.927  26.886  56.137  1.00  0.00    -0.247 N 
HETATM    3  O   UNL     1       7.886  27.225  58.210  1.00  0.00    -0.271 OA
HETATM    4  H   UNL     1       6.425  27.334  55.364  1.00  0.00     0.192 HD
ENDROOT
BRANCH   1   5
HETATM    5  C   UNL     1       7.372  29.173  56.928  1.00  0.00     0.183 C 
BRANCH   5   6
HETATM    6  C   UNL     1       7.500  30.010  58.159  1.00  0.00     0.114 A 
HETATM    7  N   UNL     1       6.714  30.995  58.553  1.00  0.00    -0.233 NA
HETATM    8  C   UNL     1       7.274  31.477  59.714  1.00  0.00     0.085 A 
HETATM    9  C   UNL     1       8.439  30.788  60.023  1.00  0.00     0.062 A 
HETATM   10  C   UNL     1       6.844  32.510  60.558  1.00  0.00     0.034 A 
HETATM   11  C   UNL     1       9.231  31.077  61.136  1.00  0.00     0.032 A 
HETATM   12  N   UNL     1       8.560  29.858  59.024  1.00  0.00    -0.342 N 
HETATM   13  C   UNL     1       8.790  32.116  61.965  1.00  0.00     0.002 A 
HETATM   14  C   UNL     1       7.616  32.819  61.686  1.00  0.00     0.002 A 
HETATM   15  H   UNL     1       9.307  29.184  58.934  1.00  0.00     0.167 HD
ENDBRANCH   5   6
ENDBRANCH   1   5
BRANCH   2  16
HETATM   16  N   UNL     1       6.990  25.531  56.229  1.00  0.00    -0.184 NA
HETATM   17  C   UNL     1       7.918  24.968  55.523  1.00  0.00     0.153 C 
BRANCH  17  18
HETATM   18  C   UNL     1       8.093  23.503  55.545  1.00  0.00     0.017 A 
HETATM   19  C   UNL     1       8.299  22.798  56.737  1.00  0.00     0.077 A 
HETATM   20  C   UNL     1       8.465  21.414  56.716  1.00  0.00     0.039 A 
HETATM   21  C   UNL     1       8.425  20.727  55.502  1.00  0.00     0.022 A 
HETATM   22  C   UNL     1       8.220  21.432  54.316  1.00  0.00     0.012 A 
HETATM   23 BR   UNL     1       8.169  20.498  52.672  1.00  0.00    -0.051 Br
HETATM   24  C   UNL     1       8.052  22.817  54.326  1.00  0.00     0.034 A 
BRANCH  19  25
HETATM   25  O   UNL     1       8.355  23.395  57.966  1.00  0.00    -0.360 OA
HETATM   26  H   UNL     1       8.610  24.339  57.844  1.00  0.00     0.217 HD
ENDBRANCH  19  25
ENDBRANCH  17  18
ENDBRANCH   2  16
TORSDOF 5
ENDMDL
MODEL 4
REMARK VINA RESULT:      -8.7      6.153      8.691
REMARK  5 active torsions:
REMARK  status: ('A' for Active; 'I' for Inactive)
REMARK    1  A    between atoms: C_6  and  C_7 
REMARK    2  A    between atoms: C_7  and  C_8 
REMARK       I    between atoms: C_8  and  N_9 
REMARK    3  A    between atoms: N_9  and  N_10 
REMARK    4  A    between atoms: C_11  and  C_12 
REMARK    5  A    between atoms: C_13  and  O_14 
ROOT
HETATM    1  C   UNL     1       6.214  25.444  51.729  1.00  0.00     0.244 C 
HETATM    2  N   UNL     1       6.073  26.323  50.672  1.00  0.00    -0.247 N 
HETATM    3  O   UNL     1       5.280  24.805  52.219  1.00  0.00    -0.271 OA
HETATM    4  H   UNL     1       6.876  26.901  50.402  1.00  0.00     0.192 HD
ENDROOT
BRANCH   1   5
HETATM    5  C   UNL     1       7.635  25.202  52.208  1.00  0.00     0.183 C 
BRANCH   5   6
HETATM    6  C   UNL     1       7.773  24.131  53.240  1.00  0.00     0.114 A 
HETATM    7  N   UNL     1       8.081  24.272  54.516  1.00  0.00    -0.233 NA
HETATM    8  C   UNL     1       8.130  22.997  55.032  1.00  0.00     0.085 A 
HETATM    9  C   UNL     1       7.870  22.056  54.044  1.00  0.00     0.062 A 
HETATM   10  C   UNL     1       8.398  22.564  56.337  1.00  0.00     0.034 A 
HETATM   11  C   UNL     1       7.874  20.678  54.275  1.00  0.00     0.032 A 
HETATM   12  N   UNL     1       7.641  22.800  52.916  1.00  0.00    -0.342 N 
HETATM   13  C   UNL     1       8.150  20.263  55.583  1.00  0.00     0.002 A 
HETATM   14  C   UNL     1       8.404  21.188  56.600  1.00  0.00     0.002 A 
HETATM   15  H   UNL     1       7.424  22.431  52.001  1.00  0.00     0.167 HD
ENDBRANCH   5   6
ENDBRANCH   1   5
BRANCH   2  16
HETATM   16  N   UNL     1       4.850  26.534  50.116  1.00  0.00    -0.184 NA
HETATM   17  C   UNL     1       4.860  27.089  48.947  1.00  0.00     0.153 C 
BRANCH  17  18
HETATM   18  C   UNL     1       3.596  27.362  48.236  1.00  0.00     0.017 A 
HETATM   19  C   UNL     1       2.616  26.377  48.057  1.00  0.00     0.077 A 
HETATM   20  C   UNL     1       1.437  26.673  47.376  1.00  0.00     0.039 A 
HETATM   21  C   UNL     1       1.229  27.956  46.870  1.00  0.00     0.022 A 
HETATM   22  C   UNL     1       2.207  28.936  47.048  1.00  0.00     0.012 A 
HETATM   23 BR   UNL     1       1.924  30.673  46.357  1.00  0.00    -0.051 Br
HETATM   24  C   UNL     1       3.391  28.649  47.729  1.00  0.00     0.034 A 
BRANCH  19  25
HETATM   25  O   UNL     1       2.743  25.096  48.520  1.00  0.00    -0.360 OA
HETATM   26  H   UNL     1       3.371  24.612  47.934  1.00  0.00     0.217 HD
ENDBRANCH  19  25
ENDBRANCH  17  18
ENDBRANCH   2  16
TORSDOF 5
ENDMDL
MODEL 5
REMARK VINA RESULT:      -8.7      4.330      9.802
REMARK  5 active torsions:
REMARK  status: ('A' for Active; 'I' for Inactive)
REMARK    1  A    between atoms: C_6  and  C_7 
REMARK    2  A    between atoms: C_7  and  C_8 
REMARK       I    between atoms: C_8  and  N_9 
REMARK    3  A    between atoms: N_9  and  N_10 
REMARK    4  A    between atoms: C_11  and  C_12 
REMARK    5  A    between atoms: C_13  and  O_14 
ROOT
HETATM    1  C   UNL     1       7.223  30.335  58.218  1.00  0.00     0.244 C 
HETATM    2  N   UNL     1       6.593  29.143  57.915  1.00  0.00    -0.247 N 
HETATM    3  O   UNL     1       8.444  30.503  58.149  1.00  0.00    -0.271 OA
HETATM    4  H   UNL     1       5.591  29.053  58.111  1.00  0.00     0.192 HD
ENDROOT
BRANCH   1   5
HETATM    5  C   UNL     1       6.312  31.506  58.543  1.00  0.00     0.183 C 
BRANCH   5   6
HETATM    6  C   UNL     1       6.459  32.048  59.927  1.00  0.00     0.114 A 
HETATM    7  N   UNL     1       5.846  33.090  60.457  1.00  0.00    -0.233 NA
HETATM    8  C   UNL     1       6.350  33.210  61.733  1.00  0.00     0.085 A 
HETATM    9  C   UNL     1       7.309  32.236  61.978  1.00  0.00     0.062 A 
HETATM   10  C   UNL     1       6.040  34.136  62.739  1.00  0.00     0.034 A 
HETATM   11  C   UNL     1       8.006  32.130  63.183  1.00  0.00     0.032 A 
HETATM   12  N   UNL     1       7.357  31.507  60.819  1.00  0.00    -0.342 N 
HETATM   13  C   UNL     1       7.688  33.065  64.175  1.00  0.00     0.002 A 
HETATM   14  C   UNL     1       6.720  34.050  63.961  1.00  0.00     0.002 A 
HETATM   15  H   UNL     1       7.959  30.714  60.646  1.00  0.00     0.167 HD
ENDBRANCH   5   6
ENDBRANCH   1   5
BRANCH   2  16
HETATM   16  N   UNL     1       7.322  28.064  57.524  1.00  0.00    -0.184 NA
HETATM   17  C   UNL     1       6.655  27.133  56.921  1.00  0.00     0.153 C 
BRANCH  17  18
HETATM   18  C   UNL     1       7.336  25.915  56.440  1.00  0.00     0.017 A 
HETATM   19  C   UNL     1       8.055  25.077  57.302  1.00  0.00     0.077 A 
HETATM   20  C   UNL     1       8.688  23.937  56.808  1.00  0.00     0.039 A 
HETATM   21  C   UNL     1       8.605  23.628  55.451  1.00  0.00     0.022 A 
HETATM   22  C   UNL     1       7.888  24.464  54.594  1.00  0.00     0.012 A 
HETATM   23 BR   UNL     1       7.780  24.044  52.753  1.00  0.00    -0.051 Br
HETATM   24  C   UNL     1       7.251  25.607  55.078  1.00  0.00     0.034 A 
BRANCH  19  25
HETATM   25  O   UNL     1       8.187  25.310  58.643  1.00  0.00    -0.360 OA
HETATM   26  H   UNL     1       8.042  24.461  59.124  1.00  0.00     0.217 HD
ENDBRANCH  19  25
ENDBRANCH  17  18
ENDBRANCH   2  16
TORSDOF 5
ENDMDL
MODEL 6
REMARK VINA RESULT:      -8.7      3.663      9.304
REMARK  5 active torsions:
REMARK  status: ('A' for Active; 'I' for Inactive)
REMARK    1  A    between atoms: C_6  and  C_7 
REMARK    2  A    between atoms: C_7  and  C_8 
REMARK       I    between atoms: C_8  and  N_9 
REMARK    3  A    between atoms: N_9  and  N_10 
REMARK    4  A    between atoms: C_11  and  C_12 
REMARK    5  A    between atoms: C_13  and  O_14 
ROOT
HETATM    1  C   UNL     1      10.338  30.133  57.629  1.00  0.00     0.244 C 
HETATM    2  N   UNL     1       9.186  29.396  57.832  1.00  0.00    -0.247 N 
HETATM    3  O   UNL     1      11.309  29.727  56.985  1.00  0.00    -0.271 OA
HETATM    4  H   UNL     1       8.477  29.760  58.476  1.00  0.00     0.192 HD
ENDROOT
BRANCH   1   5
HETATM    5  C   UNL     1      10.317  31.558  58.153  1.00  0.00     0.183 C 
BRANCH   5   6
HETATM    6  C   UNL     1       9.329  31.808  59.246  1.00  0.00     0.114 A 
HETATM    7  N   UNL     1       8.052  32.124  59.126  1.00  0.00    -0.233 NA
HETATM    8  C   UNL     1       7.588  32.295  60.411  1.00  0.00     0.085 A 
HETATM    9  C   UNL     1       8.609  32.105  61.333  1.00  0.00     0.062 A 
HETATM   10  C   UNL     1       6.304  32.622  60.866  1.00  0.00     0.034 A 
HETATM   11  C   UNL     1       8.432  32.236  62.712  1.00  0.00     0.032 A 
HETATM   12  N   UNL     1       9.703  31.792  60.570  1.00  0.00    -0.342 N 
HETATM   13  C   UNL     1       7.145  32.569  63.150  1.00  0.00     0.002 A 
HETATM   14  C   UNL     1       6.096  32.756  62.246  1.00  0.00     0.002 A 
HETATM   15  H   UNL     1      10.629  31.594  60.922  1.00  0.00     0.167 HD
ENDBRANCH   5   6
ENDBRANCH   1   5
BRANCH   2  16
HETATM   16  N   UNL     1       9.079  28.142  57.319  1.00  0.00    -0.184 NA
HETATM   17  C   UNL     1       7.913  27.833  56.848  1.00  0.00     0.153 C 
BRANCH  17  18
HETATM   18  C   UNL     1       7.672  26.503  56.255  1.00  0.00     0.017 A 
HETATM   19  C   UNL     1       7.688  25.333  57.026  1.00  0.00     0.077 A 
HETATM   20  C   UNL     1       7.459  24.095  56.428  1.00  0.00     0.039 A 
HETATM   21  C   UNL     1       7.213  24.018  55.057  1.00  0.00     0.022 A 
HETATM   22  C   UNL     1       7.198  25.185  54.292  1.00  0.00     0.012 A 
HETATM   23 BR   UNL     1       6.867  25.078  52.433  1.00  0.00    -0.051 Br
HETATM   24  C   UNL     1       7.425  26.429  54.880  1.00  0.00     0.034 A 
BRANCH  19  25
HETATM   25  O   UNL     1       7.924  25.321  58.373  1.00  0.00    -0.360 OA
HETATM   26  H   UNL     1       7.096  25.585  58.838  1.00  0.00     0.217 HD
ENDBRANCH  19  25
ENDBRANCH  17  18
ENDBRANCH   2  16
TORSDOF 5
ENDMDL
MODEL 7
REMARK VINA RESULT:      -8.6      3.289      9.168
REMARK  5 active torsions:
REMARK  status: ('A' for Active; 'I' for Inactive)
REMARK    1  A    between atoms: C_6  and  C_7 
REMARK    2  A    between atoms: C_7  and  C_8 
REMARK       I    between atoms: C_8  and  N_9 
REMARK    3  A    between atoms: N_9  and  N_10 
REMARK    4  A    between atoms: C_11  and  C_12 
REMARK    5  A    between atoms: C_13  and  O_14 
ROOT
HETATM    1  C   UNL     1       7.568  28.222  57.065  1.00  0.00     0.244 C 
HETATM    2  N   UNL     1       7.390  27.582  55.853  1.00  0.00    -0.247 N 
HETATM    3  O   UNL     1       7.903  27.645  58.103  1.00  0.00    -0.271 OA
HETATM    4  H   UNL     1       6.997  28.114  55.069  1.00  0.00     0.192 HD
ENDROOT
BRANCH   1   5
HETATM    5  C   UNL     1       7.441  29.735  57.044  1.00  0.00     0.183 C 
BRANCH   5   6
HETATM    6  C   UNL     1       7.533  30.389  58.384  1.00  0.00     0.114 A 
HETATM    7  N   UNL     1       6.734  31.311  58.890  1.00  0.00    -0.233 NA
HETATM    8  C   UNL     1       7.260  31.623  60.124  1.00  0.00     0.085 A 
HETATM    9  C   UNL     1       8.417  30.894  60.365  1.00  0.00     0.062 A 
HETATM   10  C   UNL     1       6.804  32.527  61.093  1.00  0.00     0.034 A 
HETATM   11  C   UNL     1       9.176  31.021  61.530  1.00  0.00     0.032 A 
HETATM   12  N   UNL     1       8.567  30.114  59.249  1.00  0.00    -0.342 N 
HETATM   13  C   UNL     1       8.710  31.933  62.485  1.00  0.00     0.002 A 
HETATM   14  C   UNL     1       7.543  32.672  62.275  1.00  0.00     0.002 A 
HETATM   15  H   UNL     1       9.317  29.457  59.086  1.00  0.00     0.167 HD
ENDBRANCH   5   6
ENDBRANCH   1   5
BRANCH   2  16
HETATM   16  N   UNL     1       7.573  26.239  55.755  1.00  0.00    -0.184 NA
HETATM   17  C   UNL     1       7.539  25.760  54.553  1.00  0.00     0.153 C 
BRANCH  17  18
HETATM   18  C   UNL     1       7.734  24.316  54.316  1.00  0.00     0.017 A 
HETATM   19  C   UNL     1       7.765  23.774  53.025  1.00  0.00     0.077 A 
HETATM   20  C   UNL     1       7.947  22.404  52.842  1.00  0.00     0.039 A 
HETATM   21  C   UNL     1       8.098  21.568  53.948  1.00  0.00     0.022 A 
HETATM   22  C   UNL     1       8.066  22.110  55.233  1.00  0.00     0.012 A 
HETATM   23 BR   UNL     1       8.270  20.974  56.731  1.00  0.00    -0.051 Br
HETATM   24  C   UNL     1       7.886  23.480  55.427  1.00  0.00     0.034 A 
BRANCH  19  25
HETATM   25  O   UNL     1       7.621  24.522  51.889  1.00  0.00    -0.360 OA
HETATM   26  H   UNL     1       8.027  25.407  52.044  1.00  0.00     0.217 HD
ENDBRANCH  19  25
ENDBRANCH  17  18
ENDBRANCH   2  16
TORSDOF 5
ENDMDL
MODEL 8
REMARK VINA RESULT:      -8.5      3.318      8.361
REMARK  5 active torsions:
REMARK  status: ('A' for Active; 'I' for Inactive)
REMARK    1  A    between atoms: C_6  and  C_7 
REMARK    2  A    between atoms: C_7  and  C_8 
REMARK       I    between atoms: C_8  and  N_9 
REMARK    3  A    between atoms: N_9  and  N_10 
REMARK    4  A    between atoms: C_11  and  C_12 
REMARK    5  A    between atoms: C_13  and  O_14 
ROOT
HETATM    1  C   UNL     1       5.167  27.152  56.477  1.00  0.00     0.244 C 
HETATM    2  N   UNL     1       5.780  27.020  55.246  1.00  0.00    -0.247 N 
HETATM    3  O   UNL     1       4.793  26.197  57.164  1.00  0.00    -0.271 OA
HETATM    4  H   UNL     1       5.950  27.863  54.689  1.00  0.00     0.192 HD
ENDROOT
BRANCH   1   5
HETATM    5  C   UNL     1       5.068  28.565  57.023  1.00  0.00     0.183 C 
BRANCH   5   6
HETATM    6  C   UNL     1       6.381  29.228  57.284  1.00  0.00     0.114 A 
HETATM    7  N   UNL     1       7.544  28.973  56.713  1.00  0.00    -0.233 NA
HETATM    8  C   UNL     1       8.450  29.810  57.322  1.00  0.00     0.085 A 
HETATM    9  C   UNL     1       7.833  30.575  58.303  1.00  0.00     0.062 A 
HETATM   10  C   UNL     1       9.824  29.967  57.093  1.00  0.00     0.034 A 
HETATM   11  C   UNL     1       8.514  31.499  59.100  1.00  0.00     0.032 A 
HETATM   12  N   UNL     1       6.518  30.192  58.257  1.00  0.00    -0.342 N 
HETATM   13  C   UNL     1       9.887  31.638  58.862  1.00  0.00     0.002 A 
HETATM   14  C   UNL     1      10.533  30.890  57.875  1.00  0.00     0.002 A 
HETATM   15  H   UNL     1       5.779  30.550  58.846  1.00  0.00     0.167 HD
ENDBRANCH   5   6
ENDBRANCH   1   5
BRANCH   2  16
HETATM   16  N   UNL     1       5.994  25.786  54.718  1.00  0.00    -0.184 NA
HETATM   17  C   UNL     1       7.172  25.290  54.925  1.00  0.00     0.153 C 
BRANCH  17  18
HETATM   18  C   UNL     1       7.524  23.953  54.409  1.00  0.00     0.017 A 
HETATM   19  C   UNL     1       7.737  23.715  53.045  1.00  0.00     0.077 A 
HETATM   20  C   UNL     1       8.065  22.436  52.597  1.00  0.00     0.039 A 
HETATM   21  C   UNL     1       8.181  21.388  53.510  1.00  0.00     0.022 A 
HETATM   22  C   UNL     1       7.968  21.627  54.868  1.00  0.00     0.012 A 
HETATM   23 BR   UNL     1       8.124  20.203  56.102  1.00  0.00    -0.051 Br
HETATM   24  C   UNL     1       7.640  22.903  55.327  1.00  0.00     0.034 A 
BRANCH  19  25
HETATM   25  O   UNL     1       7.640  24.686  52.087  1.00  0.00    -0.360 OA
HETATM   26  H   UNL     1       8.442  24.642  51.515  1.00  0.00     0.217 HD
ENDBRANCH  19  25
ENDBRANCH  17  18
ENDBRANCH   2  16
TORSDOF 5
ENDMDL
MODEL 9
REMARK VINA RESULT:      -8.3      2.582      3.765
REMARK  5 active torsions:
REMARK  status: ('A' for Active; 'I' for Inactive)
REMARK    1  A    between atoms: C_6  and  C_7 
REMARK    2  A    between atoms: C_7  and  C_8 
REMARK       I    between atoms: C_8  and  N_9 
REMARK    3  A    between atoms: N_9  and  N_10 
REMARK    4  A    between atoms: C_11  and  C_12 
REMARK    5  A    between atoms: C_13  and  O_14 
ROOT
HETATM    1  C   UNL     1       7.236  28.736  56.911  1.00  0.00     0.244 C 
HETATM    2  N   UNL     1       8.244  29.395  57.588  1.00  0.00    -0.247 N 
HETATM    3  O   UNL     1       6.153  28.431  57.418  1.00  0.00    -0.271 OA
HETATM    4  H   UNL     1       9.154  29.505  57.130  1.00  0.00     0.192 HD
ENDROOT
BRANCH   1   5
HETATM    5  C   UNL     1       7.477  28.491  55.432  1.00  0.00     0.183 C 
BRANCH   5   6
HETATM    6  C   UNL     1       7.545  27.051  55.039  1.00  0.00     0.114 A 
HETATM    7  N   UNL     1       7.583  26.547  53.819  1.00  0.00    -0.233 NA
HETATM    8  C   UNL     1       7.592  25.180  53.981  1.00  0.00     0.085 A 
HETATM    9  C   UNL     1       7.533  24.843  55.327  1.00  0.00     0.062 A 
HETATM   10  C   UNL     1       7.642  24.161  53.020  1.00  0.00     0.034 A 
HETATM   11  C   UNL     1       7.506  23.525  55.789  1.00  0.00     0.032 A 
HETATM   12  N   UNL     1       7.509  26.047  55.979  1.00  0.00    -0.342 N 
HETATM   13  C   UNL     1       7.551  22.519  54.815  1.00  0.00     0.002 A 
HETATM   14  C   UNL     1       7.621  22.828  53.455  1.00  0.00     0.002 A 
HETATM   15  H   UNL     1       7.462  26.174  56.980  1.00  0.00     0.167 HD
ENDBRANCH   5   6
ENDBRANCH   1   5
BRANCH   2  16
HETATM   16  N   UNL     1       8.080  29.738  58.894  1.00  0.00    -0.184 NA
HETATM   17  C   UNL     1       8.022  31.009  59.131  1.00  0.00     0.153 C 
BRANCH  17  18
HETATM   18  C   UNL     1       7.836  31.508  60.508  1.00  0.00     0.017 A 
HETATM   19  C   UNL     1       8.461  30.904  61.606  1.00  0.00     0.077 A 
HETATM   20  C   UNL     1       8.257  31.403  62.892  1.00  0.00     0.039 A 
HETATM   21  C   UNL     1       7.428  32.508  63.087  1.00  0.00     0.022 A 
HETATM   22  C   UNL     1       6.807  33.107  61.991  1.00  0.00     0.012 A 
HETATM   23 BR   UNL     1       5.682  34.604  62.259  1.00  0.00    -0.051 Br
HETATM   24  C   UNL     1       7.005  32.616  60.700  1.00  0.00     0.034 A 
BRANCH  19  25
HETATM   25  O   UNL     1       9.285  29.818  61.502  1.00  0.00    -0.360 OA
HETATM   26  H   UNL     1       9.866  29.940  60.715  1.00  0.00     0.217 HD
ENDBRANCH  19  25
ENDBRANCH  17  18
ENDBRANCH   2  16
TORSDOF 5
ENDMDL
MODEL 10
REMARK VINA RESULT:      -8.3      1.716      2.337
REMARK  5 active torsions:
REMARK  status: ('A' for Active; 'I' for Inactive)
REMARK    1  A    between atoms: C_6  and  C_7 
REMARK    2  A    between atoms: C_7  and  C_8 
REMARK       I    between atoms: C_8  and  N_9 
REMARK    3  A    between atoms: N_9  and  N_10 
REMARK    4  A    between atoms: C_11  and  C_12 
REMARK    5  A    between atoms: C_13  and  O_14 
ROOT
HETATM    1  C   UNL     1       6.886  27.036  54.710  1.00  0.00     0.244 C 
HETATM    2  N   UNL     1       7.609  28.117  55.177  1.00  0.00    -0.247 N 
HETATM    3  O   UNL     1       5.784  26.702  55.155  1.00  0.00    -0.271 OA
HETATM    4  H   UNL     1       8.565  28.254  54.835  1.00  0.00     0.192 HD
ENDROOT
BRANCH   1   5
HETATM    5  C   UNL     1       7.468  26.316  53.506  1.00  0.00     0.183 C 
BRANCH   5   6
HETATM    6  C   UNL     1       7.651  24.844  53.687  1.00  0.00     0.114 A 
HETATM    7  N   UNL     1       7.829  23.930  52.750  1.00  0.00    -0.233 NA
HETATM    8  C   UNL     1       7.899  22.726  53.413  1.00  0.00     0.085 A 
HETATM    9  C   UNL     1       7.735  22.905  54.780  1.00  0.00     0.062 A 
HETATM   10  C   UNL     1       8.093  21.432  52.909  1.00  0.00     0.034 A 
HETATM   11  C   UNL     1       7.739  21.854  55.699  1.00  0.00     0.032 A 
HETATM   12  N   UNL     1       7.585  24.259  54.930  1.00  0.00    -0.342 N 
HETATM   13  C   UNL     1       7.928  20.568  55.179  1.00  0.00     0.002 A 
HETATM   14  C   UNL     1       8.106  20.358  53.809  1.00  0.00     0.002 A 
HETATM   15  H   UNL     1       7.439  24.742  55.806  1.00  0.00     0.167 HD
ENDBRANCH   5   6
ENDBRANCH   1   5
BRANCH   2  16
HETATM   16  N   UNL     1       7.121  28.878  56.193  1.00  0.00    -0.184 NA
HETATM   17  C   UNL     1       8.013  29.462  56.927  1.00  0.00     0.153 C 
BRANCH  17  18
HETATM   18  C   UNL     1       7.610  30.323  58.055  1.00  0.00     0.017 A 
HETATM   19  C   UNL     1       6.500  31.174  57.980  1.00  0.00     0.077 A 
HETATM   20  C   UNL     1       6.154  31.975  59.067  1.00  0.00     0.039 A 
HETATM   21  C   UNL     1       6.914  31.930  60.236  1.00  0.00     0.022 A 
HETATM   22  C   UNL     1       8.020  31.082  60.308  1.00  0.00     0.012 A 
HETATM   23 BR   UNL     1       9.051  31.025  61.892  1.00  0.00    -0.051 Br
HETATM   24  C   UNL     1       8.375  30.276  59.226  1.00  0.00     0.034 A 
BRANCH  19  25
HETATM   25  O   UNL     1       5.705  31.280  56.873  1.00  0.00    -0.360 OA
HETATM   26  H   UNL     1       5.875  32.153  56.447  1.00  0.00     0.217 HD
ENDBRANCH  19  25
ENDBRANCH  17  18
ENDBRANCH   2  16
TORSDOF 5
ENDMDL
