MODEL 1
REMARK VINA RESULT:     -10.0      0.000      0.000
REMARK  5 active torsions:
REMARK  status: ('A' for Active; 'I' for Inactive)
REMARK    1  A    between atoms: C_9  and  C_10 
REMARK       I    between atoms: C_10  and  N_11 
REMARK    2  A    between atoms: N_11  and  C_12 
REMARK    3  A    between atoms: C_12  and  C_13 
REMARK    4  A    between atoms: C_15  and  O_16 
REMARK    5  A    between atoms: O_16  and  C_17 
ROOT
HETATM    1  C   UNL     1       6.876  26.492  55.790  1.00  0.00     0.273 C 
HETATM    2  N   UNL     1       7.913  27.049  56.502  1.00  0.00    -0.351 N 
HETATM    3  O   UNL     1       5.696  26.619  56.102  1.00  0.00    -0.266 OA
HETATM    4  H   UNL     1       8.847  26.853  56.150  1.00  0.00     0.163 HD
ENDROOT
BRANCH   2   5
HETATM    5  C   UNL     1       7.722  27.885  57.658  1.00  0.00     0.161 C 
BRANCH   5   6
HETATM    6  C   UNL     1       8.672  29.052  57.674  1.00  0.00    -0.035 A 
HETATM    7  C   UNL     1       8.504  30.120  58.562  1.00  0.00     0.066 A 
HETATM    8  C   UNL     1       9.421  31.158  58.540  1.00  0.00     0.164 A 
HETATM    9  N   UNL     1      10.499  31.198  57.730  1.00  0.00    -0.237 NA
HETATM   10  C   UNL     1      10.662  30.145  56.903  1.00  0.00     0.120 A 
HETATM   11  C   UNL     1       9.793  29.066  56.838  1.00  0.00     0.028 A 
BRANCH   8  12
HETATM   12  O   UNL     1       9.187  32.207  59.411  1.00  0.00    -0.329 OA
BRANCH  12  13
HETATM   13  C   UNL     1       8.458  31.883  60.613  1.00  0.00     0.130 C 
HETATM   14  C   UNL     1       9.249  31.924  61.948  1.00  0.00     0.032 C 
HETATM   15  C   UNL     1       8.009  32.567  62.593  1.00  0.00     0.005 C 
HETATM   16  C   UNL     1       7.611  33.049  61.187  1.00  0.00     0.032 C 
ENDBRANCH  12  13
ENDBRANCH   8  12
ENDBRANCH   5   6
ENDBRANCH   2   5
BRANCH   1  17
HETATM   17  C   UNL     1       7.326  25.743  54.606  1.00  0.00     0.157 A 
HETATM   18  C   UNL     1       7.548  24.337  54.506  1.00  0.00     0.029 A 
HETATM   19  C   UNL     1       7.453  23.231  55.374  1.00  0.00     0.023 A 
HETATM   20  C   UNL     1       7.940  24.125  53.190  1.00  0.00     0.063 A 
HETATM   21  C   UNL     1       7.754  21.946  54.892  1.00  0.00    -0.061 A 
HETATM   22  C   UNL     1       7.654  20.753  55.798  1.00  0.00     0.048 C 
HETATM   23  C   UNL     1       8.145  21.777  53.557  1.00  0.00     0.009 A 
HETATM   24  C   UNL     1       8.246  22.862  52.680  1.00  0.00     0.032 A 
HETATM   25  N   UNL     1       7.934  25.363  52.609  1.00  0.00    -0.277 N 
HETATM   26  H   UNL     1       8.166  25.589  51.648  1.00  0.00     0.189 HD
HETATM   27  N   UNL     1       7.570  26.365  53.430  1.00  0.00    -0.168 NA
ENDBRANCH   1  17
TORSDOF 5
ENDMDL
MODEL 2
REMARK VINA RESULT:      -9.4      1.746      2.413
REMARK  5 active torsions:
REMARK  status: ('A' for Active; 'I' for Inactive)
REMARK    1  A    between atoms: C_9  and  C_10 
REMARK       I    between atoms: C_10  and  N_11 
REMARK    2  A    between atoms: N_11  and  C_12 
REMARK    3  A    between atoms: C_12  and  C_13 
REMARK    4  A    between atoms: C_15  and  O_16 
REMARK    5  A    between atoms: O_16  and  C_17 
ROOT
HETATM    1  C   UNL     1       7.786  25.649  57.364  1.00  0.00     0.273 C 
HETATM    2  N   UNL     1       7.359  26.643  56.512  1.00  0.00    -0.351 N 
HETATM    3  O   UNL     1       7.939  25.811  58.570  1.00  0.00    -0.266 OA
HETATM    4  H   UNL     1       7.291  26.386  55.531  1.00  0.00     0.163 HD
ENDROOT
BRANCH   2   5
HETATM    5  C   UNL     1       6.997  27.963  56.955  1.00  0.00     0.161 C 
BRANCH   5   6
HETATM    6  C   UNL     1       8.193  28.871  57.060  1.00  0.00    -0.035 A 
HETATM    7  C   UNL     1       8.479  29.573  58.236  1.00  0.00     0.066 A 
HETATM    8  C   UNL     1       9.602  30.381  58.276  1.00  0.00     0.164 A 
HETATM    9  N   UNL     1      10.471  30.519  57.254  1.00  0.00    -0.237 NA
HETATM   10  C   UNL     1      10.198  29.811  56.139  1.00  0.00     0.120 A 
HETATM   11  C   UNL     1       9.091  28.987  55.994  1.00  0.00     0.028 A 
BRANCH   8  12
HETATM   12  O   UNL     1       9.817  31.082  59.449  1.00  0.00    -0.329 OA
BRANCH  12  13
HETATM   13  C   UNL     1       8.818  30.919  60.477  1.00  0.00     0.130 C 
HETATM   14  C   UNL     1       9.316  30.459  61.874  1.00  0.00     0.032 C 
HETATM   15  C   UNL     1       8.316  31.453  62.491  1.00  0.00     0.005 C 
HETATM   16  C   UNL     1       8.385  32.238  61.169  1.00  0.00     0.032 C 
ENDBRANCH  12  13
ENDBRANCH   8  12
ENDBRANCH   5   6
ENDBRANCH   2   5
BRANCH   1  17
HETATM   17  C   UNL     1       8.022  24.367  56.680  1.00  0.00     0.157 A 
HETATM   18  C   UNL     1       7.942  24.107  55.280  1.00  0.00     0.029 A 
HETATM   19  C   UNL     1       7.638  24.855  54.125  1.00  0.00     0.023 A 
HETATM   20  C   UNL     1       8.271  22.765  55.142  1.00  0.00     0.063 A 
HETATM   21  C   UNL     1       7.674  24.230  52.867  1.00  0.00    -0.061 A 
HETATM   22  C   UNL     1       7.359  25.009  51.623  1.00  0.00     0.048 C 
HETATM   23  C   UNL     1       8.012  22.873  52.772  1.00  0.00     0.009 A 
HETATM   24  C   UNL     1       8.317  22.113  53.907  1.00  0.00     0.032 A 
HETATM   25  N   UNL     1       8.514  22.321  56.412  1.00  0.00    -0.277 N 
HETATM   26  H   UNL     1       8.784  21.385  56.692  1.00  0.00     0.189 HD
HETATM   27  N   UNL     1       8.374  23.257  57.368  1.00  0.00    -0.168 NA
ENDBRANCH   1  17
TORSDOF 5
ENDMDL
MODEL 3
REMARK VINA RESULT:      -9.4      2.059      2.969
REMARK  5 active torsions:
REMARK  status: ('A' for Active; 'I' for Inactive)
REMARK    1  A    between atoms: C_9  and  C_10 
REMARK       I    between atoms: C_10  and  N_11 
REMARK    2  A    between atoms: N_11  and  C_12 
REMARK    3  A    between atoms: C_12  and  C_13 
REMARK    4  A    between atoms: C_15  and  O_16 
REMARK    5  A    between atoms: O_16  and  C_17 
ROOT
HETATM    1  C   UNL     1       7.016  25.547  55.188  1.00  0.00     0.273 C 
HETATM    2  N   UNL     1       6.499  26.536  55.992  1.00  0.00    -0.351 N 
HETATM    3  O   UNL     1       7.069  25.628  53.965  1.00  0.00    -0.266 OA
HETATM    4  H   UNL     1       6.496  26.339  56.990  1.00  0.00     0.163 HD
ENDROOT
BRANCH   2   5
HETATM    5  C   UNL     1       6.014  27.794  55.488  1.00  0.00     0.161 C 
BRANCH   5   6
HETATM    6  C   UNL     1       6.249  28.920  56.459  1.00  0.00    -0.035 A 
HETATM    7  C   UNL     1       7.242  28.844  57.442  1.00  0.00     0.066 A 
HETATM    8  C   UNL     1       7.420  29.919  58.296  1.00  0.00     0.164 A 
HETATM    9  N   UNL     1       6.711  31.065  58.228  1.00  0.00    -0.237 NA
HETATM   10  C   UNL     1       5.780  31.133  57.255  1.00  0.00     0.120 A 
HETATM   11  C   UNL     1       5.515  30.106  56.360  1.00  0.00     0.028 A 
BRANCH   8  12
HETATM   12  O   UNL     1       8.388  29.777  59.274  1.00  0.00    -0.329 OA
BRANCH  12  13
HETATM   13  C   UNL     1       8.422  30.804  60.287  1.00  0.00     0.130 C 
HETATM   14  C   UNL     1       9.197  30.479  61.592  1.00  0.00     0.032 C 
HETATM   15  C   UNL     1       9.729  31.922  61.564  1.00  0.00     0.005 C 
HETATM   16  C   UNL     1       9.479  31.913  60.046  1.00  0.00     0.032 C 
ENDBRANCH  12  13
ENDBRANCH   8  12
ENDBRANCH   5   6
ENDBRANCH   2   5
BRANCH   1  17
HETATM   17  C   UNL     1       7.516  24.389  55.948  1.00  0.00     0.157 A 
HETATM   18  C   UNL     1       7.816  23.089  55.443  1.00  0.00     0.029 A 
HETATM   19  C   UNL     1       7.762  22.451  54.188  1.00  0.00     0.023 A 
HETATM   20  C   UNL     1       8.270  22.371  56.541  1.00  0.00     0.063 A 
HETATM   21  C   UNL     1       8.166  21.110  54.076  1.00  0.00    -0.061 A 
HETATM   22  C   UNL     1       8.121  20.412  52.747  1.00  0.00     0.048 C 
HETATM   23  C   UNL     1       8.618  20.422  55.209  1.00  0.00     0.009 A 
HETATM   24  C   UNL     1       8.680  21.037  56.465  1.00  0.00     0.032 A 
HETATM   25  N   UNL     1       8.213  23.244  57.592  1.00  0.00    -0.277 N 
HETATM   26  H   UNL     1       8.473  23.061  58.555  1.00  0.00     0.189 HD
HETATM   27  N   UNL     1       7.763  24.471  57.275  1.00  0.00    -0.168 NA
ENDBRANCH   1  17
TORSDOF 5
ENDMDL
MODEL 4
REMARK VINA RESULT:      -9.3      1.524      2.393
REMARK  5 active torsions:
REMARK  status: ('A' for Active; 'I' for Inactive)
REMARK    1  A    between atoms: C_9  and  C_10 
REMARK       I    between atoms: C_10  and  N_11 
REMARK    2  A    between atoms: N_11  and  C_12 
REMARK    3  A    between atoms: C_12  and  C_13 
REMARK    4  A    between atoms: C_15  and  O_16 
REMARK    5  A    between atoms: O_16  and  C_17 
ROOT
HETATM    1  C   UNL     1       7.640  25.714  55.513  1.00  0.00     0.273 C 
HETATM    2  N   UNL     1       8.028  26.825  56.227  1.00  0.00    -0.351 N 
HETATM    3  O   UNL     1       7.133  25.770  54.398  1.00  0.00    -0.266 OA
HETATM    4  H   UNL     1       8.417  26.645  57.149  1.00  0.00     0.163 HD
ENDROOT
BRANCH   2   5
HETATM    5  C   UNL     1       7.929  28.167  55.718  1.00  0.00     0.161 C 
BRANCH   5   6
HETATM    6  C   UNL     1       8.532  29.174  56.661  1.00  0.00    -0.035 A 
HETATM    7  C   UNL     1       7.815  29.674  57.753  1.00  0.00     0.066 A 
HETATM    8  C   UNL     1       8.429  30.587  58.595  1.00  0.00     0.164 A 
HETATM    9  N   UNL     1       9.700  31.013  58.449  1.00  0.00    -0.237 NA
HETATM   10  C   UNL     1      10.386  30.497  57.409  1.00  0.00     0.120 A 
HETATM   11  C   UNL     1       9.857  29.590  56.503  1.00  0.00     0.028 A 
BRANCH   8  12
HETATM   12  O   UNL     1       7.663  31.078  59.636  1.00  0.00    -0.329 OA
BRANCH  12  13
HETATM   13  C   UNL     1       8.382  31.764  60.683  1.00  0.00     0.130 C 
HETATM   14  C   UNL     1       7.557  32.706  61.601  1.00  0.00     0.032 C 
HETATM   15  C   UNL     1       8.385  32.177  62.785  1.00  0.00     0.005 C 
HETATM   16  C   UNL     1       8.644  30.910  61.951  1.00  0.00     0.032 C 
ENDBRANCH  12  13
ENDBRANCH   8  12
ENDBRANCH   5   6
ENDBRANCH   2   5
BRANCH   1  17
HETATM   17  C   UNL     1       7.912  24.452  56.220  1.00  0.00     0.157 A 
HETATM   18  C   UNL     1       8.019  23.148  55.650  1.00  0.00     0.029 A 
HETATM   19  C   UNL     1       7.916  22.594  54.359  1.00  0.00     0.023 A 
HETATM   20  C   UNL     1       8.303  22.308  56.719  1.00  0.00     0.063 A 
HETATM   21  C   UNL     1       8.102  21.213  54.182  1.00  0.00    -0.061 A 
HETATM   22  C   UNL     1       8.002  20.603  52.813  1.00  0.00     0.048 C 
HETATM   23  C   UNL     1       8.387  20.401  55.287  1.00  0.00     0.009 A 
HETATM   24  C   UNL     1       8.493  20.931  56.578  1.00  0.00     0.032 A 
HETATM   25  N   UNL     1       8.342  23.123  57.817  1.00  0.00    -0.277 N 
HETATM   26  H   UNL     1       8.527  22.849  58.776  1.00  0.00     0.189 HD
HETATM   27  N   UNL     1       8.111  24.422  57.558  1.00  0.00    -0.168 NA
ENDBRANCH   1  17
TORSDOF 5
ENDMDL
MODEL 5
REMARK VINA RESULT:      -8.7      2.176      9.772
REMARK  5 active torsions:
REMARK  status: ('A' for Active; 'I' for Inactive)
REMARK    1  A    between atoms: C_9  and  C_10 
REMARK       I    between atoms: C_10  and  N_11 
REMARK    2  A    between atoms: N_11  and  C_12 
REMARK    3  A    between atoms: C_12  and  C_13 
REMARK    4  A    between atoms: C_15  and  O_16 
REMARK    5  A    between atoms: O_16  and  C_17 
ROOT
HETATM    1  C   UNL     1       7.086  30.843  58.336  1.00  0.00     0.273 C 
HETATM    2  N   UNL     1       7.344  29.661  57.681  1.00  0.00    -0.351 N 
HETATM    3  O   UNL     1       6.393  31.740  57.866  1.00  0.00    -0.266 OA
HETATM    4  H   UNL     1       7.949  29.006  58.170  1.00  0.00     0.163 HD
ENDROOT
BRANCH   2   5
HETATM    5  C   UNL     1       6.785  29.329  56.397  1.00  0.00     0.161 C 
BRANCH   5   6
HETATM    6  C   UNL     1       6.516  27.853  56.264  1.00  0.00    -0.035 A 
HETATM    7  C   UNL     1       7.370  27.016  55.539  1.00  0.00     0.066 A 
HETATM    8  C   UNL     1       7.079  25.665  55.465  1.00  0.00     0.164 A 
HETATM    9  N   UNL     1       6.026  25.083  56.077  1.00  0.00    -0.237 NA
HETATM   10  C   UNL     1       5.231  25.900  56.798  1.00  0.00     0.120 A 
HETATM   11  C   UNL     1       5.429  27.268  56.921  1.00  0.00     0.028 A 
BRANCH   8  12
HETATM   12  O   UNL     1       7.934  24.888  54.705  1.00  0.00    -0.329 OA
BRANCH  12  13
HETATM   13  C   UNL     1       7.363  23.697  54.124  1.00  0.00     0.130 C 
HETATM   14  C   UNL     1       7.847  23.306  52.702  1.00  0.00     0.032 C 
HETATM   15  C   UNL     1       7.849  21.841  53.172  1.00  0.00     0.005 C 
HETATM   16  C   UNL     1       8.008  22.372  54.607  1.00  0.00     0.032 C 
ENDBRANCH  12  13
ENDBRANCH   8  12
ENDBRANCH   5   6
ENDBRANCH   2   5
BRANCH   1  17
HETATM   17  C   UNL     1       7.713  30.913  59.666  1.00  0.00     0.157 A 
HETATM   18  C   UNL     1       7.392  31.813  60.725  1.00  0.00     0.029 A 
HETATM   19  C   UNL     1       6.479  32.869  60.918  1.00  0.00     0.023 A 
HETATM   20  C   UNL     1       8.242  31.464  61.767  1.00  0.00     0.063 A 
HETATM   21  C   UNL     1       6.450  33.541  62.152  1.00  0.00    -0.061 A 
HETATM   22  C   UNL     1       5.481  34.666  62.380  1.00  0.00     0.048 C 
HETATM   23  C   UNL     1       7.324  33.156  63.176  1.00  0.00     0.009 A 
HETATM   24  C   UNL     1       8.238  32.110  63.005  1.00  0.00     0.032 A 
HETATM   25  N   UNL     1       8.990  30.424  61.287  1.00  0.00    -0.277 N 
HETATM   26  H   UNL     1       9.716  29.914  61.779  1.00  0.00     0.189 HD
HETATM   27  N   UNL     1       8.702  30.063  60.024  1.00  0.00    -0.168 NA
ENDBRANCH   1  17
TORSDOF 5
ENDMDL
MODEL 6
REMARK VINA RESULT:      -8.6      2.134      9.268
REMARK  5 active torsions:
REMARK  status: ('A' for Active; 'I' for Inactive)
REMARK    1  A    between atoms: C_9  and  C_10 
REMARK       I    between atoms: C_10  and  N_11 
REMARK    2  A    between atoms: N_11  and  C_12 
REMARK    3  A    between atoms: C_12  and  C_13 
REMARK    4  A    between atoms: C_15  and  O_16 
REMARK    5  A    between atoms: O_16  and  C_17 
ROOT
HETATM    1  C   UNL     1       8.091  28.224  57.507  1.00  0.00     0.273 C 
HETATM    2  N   UNL     1       7.434  27.027  57.679  1.00  0.00    -0.351 N 
HETATM    3  O   UNL     1       9.211  28.317  57.015  1.00  0.00    -0.266 OA
HETATM    4  H   UNL     1       6.518  27.084  58.117  1.00  0.00     0.163 HD
ENDROOT
BRANCH   2   5
HETATM    5  C   UNL     1       7.969  25.762  57.251  1.00  0.00     0.161 C 
BRANCH   5   6
HETATM    6  C   UNL     1       7.348  25.294  55.962  1.00  0.00    -0.035 A 
HETATM    7  C   UNL     1       8.040  24.461  55.076  1.00  0.00     0.066 A 
HETATM    8  C   UNL     1       7.408  24.050  53.915  1.00  0.00     0.164 A 
HETATM    9  N   UNL     1       6.143  24.378  53.584  1.00  0.00    -0.237 NA
HETATM   10  C   UNL     1       5.480  25.156  54.465  1.00  0.00     0.120 A 
HETATM   11  C   UNL     1       6.028  25.631  55.647  1.00  0.00     0.028 A 
BRANCH   8  12
HETATM   12  O   UNL     1       8.150  23.259  53.055  1.00  0.00    -0.329 OA
BRANCH  12  13
HETATM   13  C   UNL     1       8.751  22.082  53.635  1.00  0.00     0.130 C 
HETATM   14  C   UNL     1       8.039  21.466  54.870  1.00  0.00     0.032 C 
HETATM   15  C   UNL     1       8.345  20.079  54.277  1.00  0.00     0.005 C 
HETATM   16  C   UNL     1       8.417  20.759  52.898  1.00  0.00     0.032 C 
ENDBRANCH  12  13
ENDBRANCH   8  12
ENDBRANCH   5   6
ENDBRANCH   2   5
BRANCH   1  17
HETATM   17  C   UNL     1       7.304  29.383  57.959  1.00  0.00     0.157 A 
HETATM   18  C   UNL     1       7.676  30.352  58.937  1.00  0.00     0.029 A 
HETATM   19  C   UNL     1       8.789  30.575  59.772  1.00  0.00     0.023 A 
HETATM   20  C   UNL     1       6.613  31.244  58.986  1.00  0.00     0.063 A 
HETATM   21  C   UNL     1       8.798  31.687  60.631  1.00  0.00    -0.061 A 
HETATM   22  C   UNL     1       9.977  31.945  61.525  1.00  0.00     0.048 C 
HETATM   23  C   UNL     1       7.705  32.562  60.648  1.00  0.00     0.009 A 
HETATM   24  C   UNL     1       6.590  32.360  59.827  1.00  0.00     0.032 A 
HETATM   25  N   UNL     1       5.706  30.774  58.077  1.00  0.00    -0.277 N 
HETATM   26  H   UNL     1       4.806  31.179  57.845  1.00  0.00     0.189 HD
HETATM   27  N   UNL     1       6.085  29.653  57.437  1.00  0.00    -0.168 NA
ENDBRANCH   1  17
TORSDOF 5
ENDMDL
MODEL 7
REMARK VINA RESULT:      -8.6      2.240      3.218
REMARK  5 active torsions:
REMARK  status: ('A' for Active; 'I' for Inactive)
REMARK    1  A    between atoms: C_9  and  C_10 
REMARK       I    between atoms: C_10  and  N_11 
REMARK    2  A    between atoms: N_11  and  C_12 
REMARK    3  A    between atoms: C_12  and  C_13 
REMARK    4  A    between atoms: C_15  and  O_16 
REMARK    5  A    between atoms: O_16  and  C_17 
ROOT
HETATM    1  C   UNL     1       6.910  25.604  55.603  1.00  0.00     0.273 C 
HETATM    2  N   UNL     1       5.570  25.889  55.723  1.00  0.00    -0.351 N 
HETATM    3  O   UNL     1       7.762  26.014  56.385  1.00  0.00    -0.266 OA
HETATM    4  H   UNL     1       4.968  25.505  54.998  1.00  0.00     0.163 HD
ENDROOT
BRANCH   2   5
HETATM    5  C   UNL     1       5.017  26.654  56.809  1.00  0.00     0.161 C 
BRANCH   5   6
HETATM    6  C   UNL     1       5.352  28.118  56.696  1.00  0.00    -0.035 A 
HETATM    7  C   UNL     1       6.335  28.708  57.499  1.00  0.00     0.066 A 
HETATM    8  C   UNL     1       6.609  30.056  57.337  1.00  0.00     0.164 A 
HETATM    9  N   UNL     1       6.006  30.847  56.426  1.00  0.00    -0.237 NA
HETATM   10  C   UNL     1       5.084  30.254  55.640  1.00  0.00     0.120 A 
HETATM   11  C   UNL     1       4.728  28.917  55.733  1.00  0.00     0.028 A 
BRANCH   8  12
HETATM   12  O   UNL     1       7.561  30.598  58.181  1.00  0.00    -0.329 OA
BRANCH  12  13
HETATM   13  C   UNL     1       8.874  30.000  58.124  1.00  0.00     0.130 C 
HETATM   14  C   UNL     1       9.402  29.596  56.722  1.00  0.00     0.032 C 
HETATM   15  C   UNL     1      10.781  30.121  57.156  1.00  0.00     0.005 C 
HETATM   16  C   UNL     1      10.046  31.015  58.170  1.00  0.00     0.032 C 
ENDBRANCH  12  13
ENDBRANCH   8  12
ENDBRANCH   5   6
ENDBRANCH   2   5
BRANCH   1  17
HETATM   17  C   UNL     1       7.215  24.743  54.449  1.00  0.00     0.157 A 
HETATM   18  C   UNL     1       7.513  23.348  54.467  1.00  0.00     0.029 A 
HETATM   19  C   UNL     1       7.634  22.349  55.454  1.00  0.00     0.023 A 
HETATM   20  C   UNL     1       7.702  23.001  53.136  1.00  0.00     0.063 A 
HETATM   21  C   UNL     1       7.941  21.033  55.071  1.00  0.00    -0.061 A 
HETATM   22  C   UNL     1       8.070  19.952  56.106  1.00  0.00     0.048 C 
HETATM   23  C   UNL     1       8.123  20.725  53.717  1.00  0.00     0.009 A 
HETATM   24  C   UNL     1       8.008  21.702  52.721  1.00  0.00     0.032 A 
HETATM   25  N   UNL     1       7.518  24.158  52.432  1.00  0.00    -0.277 N 
HETATM   26  H   UNL     1       7.577  24.280  51.427  1.00  0.00     0.189 HD
HETATM   27  N   UNL     1       7.223  25.232  53.188  1.00  0.00    -0.168 NA
ENDBRANCH   1  17
TORSDOF 5
ENDMDL
MODEL 8
REMARK VINA RESULT:      -8.5      2.130      9.613
REMARK  5 active torsions:
REMARK  status: ('A' for Active; 'I' for Inactive)
REMARK    1  A    between atoms: C_9  and  C_10 
REMARK       I    between atoms: C_10  and  N_11 
REMARK    2  A    between atoms: N_11  and  C_12 
REMARK    3  A    between atoms: C_12  and  C_13 
REMARK    4  A    between atoms: C_15  and  O_16 
REMARK    5  A    between atoms: O_16  and  C_17 
ROOT
HETATM    1  C   UNL     1       8.210  29.919  58.278  1.00  0.00     0.273 C 
HETATM    2  N   UNL     1       7.687  28.732  57.819  1.00  0.00    -0.351 N 
HETATM    3  O   UNL     1       9.414  30.139  58.366  1.00  0.00    -0.266 OA
HETATM    4  H   UNL     1       6.672  28.668  57.813  1.00  0.00     0.163 HD
ENDROOT
BRANCH   2   5
HETATM    5  C   UNL     1       8.497  27.643  57.341  1.00  0.00     0.161 C 
BRANCH   5   6
HETATM    6  C   UNL     1       7.679  26.606  56.619  1.00  0.00    -0.035 A 
HETATM    7  C   UNL     1       8.091  25.271  56.543  1.00  0.00     0.066 A 
HETATM    8  C   UNL     1       7.287  24.360  55.878  1.00  0.00     0.164 A 
HETATM    9  N   UNL     1       6.102  24.668  55.313  1.00  0.00    -0.237 NA
HETATM   10  C   UNL     1       5.706  25.953  55.423  1.00  0.00     0.120 A 
HETATM   11  C   UNL     1       6.444  26.942  56.055  1.00  0.00     0.028 A 
BRANCH   8  12
HETATM   12  O   UNL     1       7.759  23.062  55.799  1.00  0.00    -0.329 OA
BRANCH  12  13
HETATM   13  C   UNL     1       7.474  22.357  54.573  1.00  0.00     0.130 C 
HETATM   14  C   UNL     1       8.532  22.460  53.441  1.00  0.00     0.032 C 
HETATM   15  C   UNL     1       8.284  20.969  53.156  1.00  0.00     0.005 C 
HETATM   16  C   UNL     1       7.799  20.841  54.611  1.00  0.00     0.032 C 
ENDBRANCH  12  13
ENDBRANCH   8  12
ENDBRANCH   5   6
ENDBRANCH   2   5
BRANCH   1  17
HETATM   17  C   UNL     1       7.176  30.903  58.637  1.00  0.00     0.157 A 
HETATM   18  C   UNL     1       7.054  31.619  59.865  1.00  0.00     0.029 A 
HETATM   19  C   UNL     1       7.762  31.673  61.083  1.00  0.00     0.023 A 
HETATM   20  C   UNL     1       5.940  32.432  59.701  1.00  0.00     0.063 A 
HETATM   21  C   UNL     1       7.327  32.543  62.097  1.00  0.00    -0.061 A 
HETATM   22  C   UNL     1       8.070  32.620  63.400  1.00  0.00     0.048 C 
HETATM   23  C   UNL     1       6.198  33.346  61.890  1.00  0.00     0.009 A 
HETATM   24  C   UNL     1       5.481  33.307  60.689  1.00  0.00     0.032 A 
HETATM   25  N   UNL     1       5.480  32.162  58.442  1.00  0.00    -0.277 N 
HETATM   26  H   UNL     1       4.677  32.577  57.982  1.00  0.00     0.189 HD
HETATM   27  N   UNL     1       6.198  31.246  57.768  1.00  0.00    -0.168 NA
ENDBRANCH   1  17
TORSDOF 5
ENDMDL
MODEL 9
REMARK VINA RESULT:      -8.5      2.191      3.363
REMARK  5 active torsions:
REMARK  status: ('A' for Active; 'I' for Inactive)
REMARK    1  A    between atoms: C_9  and  C_10 
REMARK       I    between atoms: C_10  and  N_11 
REMARK    2  A    between atoms: N_11  and  C_12 
REMARK    3  A    between atoms: C_12  and  C_13 
REMARK    4  A    between atoms: C_15  and  O_16 
REMARK    5  A    between atoms: O_16  and  C_17 
ROOT
HETATM    1  C   UNL     1       8.063  28.099  56.590  1.00  0.00     0.273 C 
HETATM    2  N   UNL     1       8.380  28.729  57.771  1.00  0.00    -0.351 N 
HETATM    3  O   UNL     1       8.009  28.675  55.509  1.00  0.00    -0.266 OA
HETATM    4  H   UNL     1       8.371  28.142  58.602  1.00  0.00     0.163 HD
ENDROOT
BRANCH   2   5
HETATM    5  C   UNL     1       8.735  30.120  57.855  1.00  0.00     0.161 C 
BRANCH   5   6
HETATM    6  C   UNL     1       7.682  30.930  58.564  1.00  0.00    -0.035 A 
HETATM    7  C   UNL     1       8.002  31.768  59.638  1.00  0.00     0.066 A 
HETATM    8  C   UNL     1       6.991  32.499  60.239  1.00  0.00     0.164 A 
HETATM    9  N   UNL     1       5.704  32.483  59.837  1.00  0.00    -0.237 NA
HETATM   10  C   UNL     1       5.419  31.695  58.781  1.00  0.00     0.120 A 
HETATM   11  C   UNL     1       6.356  30.913  58.121  1.00  0.00     0.028 A 
BRANCH   8  12
HETATM   12  O   UNL     1       7.355  33.281  61.320  1.00  0.00    -0.329 OA
BRANCH  12  13
HETATM   13  C   UNL     1       6.944  32.801  62.618  1.00  0.00     0.130 C 
HETATM   14  C   UNL     1       8.018  32.796  63.738  1.00  0.00     0.032 C 
HETATM   15  C   UNL     1       6.924  33.280  64.706  1.00  0.00     0.005 C 
HETATM   16  C   UNL     1       6.183  33.842  63.480  1.00  0.00     0.032 C 
ENDBRANCH  12  13
ENDBRANCH   8  12
ENDBRANCH   5   6
ENDBRANCH   2   5
BRANCH   1  17
HETATM   17  C   UNL     1       7.811  26.658  56.755  1.00  0.00     0.157 A 
HETATM   18  C   UNL     1       7.679  25.680  55.725  1.00  0.00     0.029 A 
HETATM   19  C   UNL     1       7.718  25.679  54.316  1.00  0.00     0.023 A 
HETATM   20  C   UNL     1       7.474  24.478  56.390  1.00  0.00     0.063 A 
HETATM   21  C   UNL     1       7.550  24.470  53.620  1.00  0.00    -0.061 A 
HETATM   22  C   UNL     1       7.594  24.446  52.119  1.00  0.00     0.048 C 
HETATM   23  C   UNL     1       7.347  23.280  54.330  1.00  0.00     0.009 A 
HETATM   24  C   UNL     1       7.304  23.259  55.729  1.00  0.00     0.032 A 
HETATM   25  N   UNL     1       7.491  24.795  57.720  1.00  0.00    -0.277 N 
HETATM   26  H   UNL     1       7.375  24.161  58.502  1.00  0.00     0.189 HD
HETATM   27  N   UNL     1       7.691  26.100  57.981  1.00  0.00    -0.168 NA
ENDBRANCH   1  17
TORSDOF 5
ENDMDL
MODEL 10
REMARK VINA RESULT:      -8.5      1.886      9.007
REMARK  5 active torsions:
REMARK  status: ('A' for Active; 'I' for Inactive)
REMARK    1  A    between atoms: C_9  and  C_10 
REMARK       I    between atoms: C_10  and  N_11 
REMARK    2  A    between atoms: N_11  and  C_12 
REMARK    3  A    between atoms: C_12  and  C_13 
REMARK    4  A    between atoms: C_15  and  O_16 
REMARK    5  A    between atoms: O_16  and  C_17 
ROOT
HETATM    1  C   UNL     1       6.618  28.596  57.380  1.00  0.00     0.273 C 
HETATM    2  N   UNL     1       6.839  27.248  57.212  1.00  0.00    -0.351 N 
HETATM    3  O   UNL     1       5.514  29.119  57.270  1.00  0.00    -0.266 OA
HETATM    4  H   UNL     1       7.804  26.942  57.312  1.00  0.00     0.163 HD
ENDROOT
BRANCH   2   5
HETATM    5  C   UNL     1       5.790  26.301  56.941  1.00  0.00     0.161 C 
BRANCH   5   6
HETATM    6  C   UNL     1       5.937  25.671  55.581  1.00  0.00    -0.035 A 
HETATM    7  C   UNL     1       6.572  24.436  55.412  1.00  0.00     0.066 A 
HETATM    8  C   UNL     1       6.661  23.899  54.139  1.00  0.00     0.164 A 
HETATM    9  N   UNL     1       6.146  24.479  53.035  1.00  0.00    -0.237 NA
HETATM   10  C   UNL     1       5.510  25.654  53.222  1.00  0.00     0.120 A 
HETATM   11  C   UNL     1       5.380  26.280  54.453  1.00  0.00     0.028 A 
BRANCH   8  12
HETATM   12  O   UNL     1       7.332  22.695  54.021  1.00  0.00    -0.329 OA
BRANCH  12  13
HETATM   13  C   UNL     1       7.902  22.166  55.237  1.00  0.00     0.130 C 
HETATM   14  C   UNL     1       7.660  20.660  55.529  1.00  0.00     0.032 C 
HETATM   15  C   UNL     1       9.115  20.585  56.025  1.00  0.00     0.005 C 
HETATM   16  C   UNL     1       9.409  21.809  55.141  1.00  0.00     0.032 C 
ENDBRANCH  12  13
ENDBRANCH   8  12
ENDBRANCH   5   6
ENDBRANCH   2   5
BRANCH   1  17
HETATM   17  C   UNL     1       7.839  29.342  57.724  1.00  0.00     0.157 A 
HETATM   18  C   UNL     1       7.963  30.415  58.656  1.00  0.00     0.029 A 
HETATM   19  C   UNL     1       7.094  31.120  59.512  1.00  0.00     0.023 A 
HETATM   20  C   UNL     1       9.308  30.758  58.636  1.00  0.00     0.063 A 
HETATM   21  C   UNL     1       7.604  32.149  60.321  1.00  0.00    -0.061 A 
HETATM   22  C   UNL     1       6.696  32.909  61.244  1.00  0.00     0.048 C 
HETATM   23  C   UNL     1       8.968  32.463  60.270  1.00  0.00     0.009 A 
HETATM   24  C   UNL     1       9.848  31.775  59.428  1.00  0.00     0.032 A 
HETATM   25  N   UNL     1       9.883  29.911  57.730  1.00  0.00    -0.277 N 
HETATM   26  H   UNL     1      10.860  29.874  57.460  1.00  0.00     0.189 HD
HETATM   27  N   UNL     1       9.030  29.042  57.158  1.00  0.00    -0.168 NA
ENDBRANCH   1  17
TORSDOF 5
ENDMDL
