MODEL 1
REMARK VINA RESULT:      -8.3      0.000      0.000
REMARK  9 active torsions:
REMARK  status: ('A' for Active; 'I' for Inactive)
REMARK    1  A    between atoms: C_2  and  O_3 
REMARK    2  A    between atoms: O_3  and  C_4 
REMARK    3  A    between atoms: C_4  and  C_5 
REMARK    4  A    between atoms: C_7  and  C_8 
REMARK       I    between atoms: C_8  and  N_9 
REMARK    5  A    between atoms: N_9  and  N_10 
REMARK    6  A    between atoms: N_10  and  C_11 
REMARK    7  A    between atoms: C_11  and  N_12 
REMARK    8  A    between atoms: N_12  and  C_13 
REMARK    9  A    between atoms: C_13  and  C_14 
ROOT
HETATM    1  C   UNL     1       7.187  26.680  57.615  1.00  0.00     0.293 C 
HETATM    2  N   UNL     1       6.169  26.204  56.799  1.00  0.00    -0.262 N 
HETATM    3  O   UNL     1       7.934  25.897  58.204  1.00  0.00    -0.264 OA
HETATM    4  H   UNL     1       5.704  26.808  56.127  1.00  0.00     0.190 HD
ENDROOT
BRANCH   1   5
HETATM    5  C   UNL     1       7.281  28.125  57.692  1.00  0.00     0.145 A 
HETATM    6  O   UNL     1       8.454  28.672  58.146  1.00  0.00    -0.307 OA
HETATM    7  C   UNL     1       8.308  30.027  58.148  1.00  0.00     0.078 A 
HETATM    8  C   UNL     1       7.055  30.367  57.691  1.00  0.00     0.038 A 
HETATM    9  C   UNL     1       6.394  29.149  57.396  1.00  0.00     0.045 A 
BRANCH   7  10
HETATM   10  C   UNL     1       9.471  30.827  58.616  1.00  0.00     0.240 C 
BRANCH  10  11
HETATM   11  O   UNL     1       8.961  32.115  58.956  1.00  0.00    -0.345 OA
BRANCH  11  12
HETATM   12  C   UNL     1       8.571  32.306  60.252  1.00  0.00     0.069 A 
HETATM   13  C   UNL     1       9.313  31.983  61.389  1.00  0.00     0.038 A 
HETATM   14  C   UNL     1       8.797  32.251  62.662  1.00  0.00     0.022 A 
HETATM   15  C   UNL     1       7.541  32.840  62.796  1.00  0.00     0.011 A 
HETATM   16  C   UNL     1       6.795  33.165  61.667  1.00  0.00     0.022 A 
HETATM   17 BR   UNL     1       6.850  33.201  64.517  1.00  0.00    -0.051 Br
HETATM   18  C   UNL     1       7.314  32.900  60.398  1.00  0.00     0.038 A 
ENDBRANCH  11  12
ENDBRANCH  10  11
ENDBRANCH   7  10
ENDBRANCH   1   5
BRANCH   2  19
HETATM   19  N   UNL     1       6.145  24.823  56.507  1.00  0.00    -0.274 N 
HETATM   20  H   UNL     1       6.014  24.246  57.339  1.00  0.00     0.189 HD
BRANCH  19  21
HETATM   21  C   UNL     1       6.943  24.325  55.508  1.00  0.00     0.186 C 
HETATM   22  S   UNL     1       6.537  24.297  53.883  1.00  0.00    -0.040 SA
BRANCH  21  23
HETATM   23  N   UNL     1       8.124  23.772  55.888  1.00  0.00    -0.364 N 
HETATM   24  H   UNL     1       8.945  24.168  55.438  1.00  0.00     0.162 HD
BRANCH  23  25
HETATM   25  C   UNL     1       8.383  22.568  56.674  1.00  0.00     0.154 C 
BRANCH  25  26
HETATM   26  C   UNL     1       8.995  21.441  55.824  1.00  0.00     0.139 C 
HETATM   27  O   UNL     1       9.519  21.999  54.600  1.00  0.00    -0.384 OA
HETATM   28  C   UNL     1       9.012  21.232  53.502  1.00  0.00     0.168 C 
HETATM   29  C   UNL     1       7.720  20.617  53.982  1.00  0.00     0.029 C 
HETATM   30  C   UNL     1       8.019  20.337  55.435  1.00  0.00     0.035 C 
ENDBRANCH  25  26
ENDBRANCH  23  25
ENDBRANCH  21  23
ENDBRANCH  19  21
ENDBRANCH   2  19
TORSDOF 9
ENDMDL
MODEL 2
REMARK VINA RESULT:      -8.2      4.479     10.083
REMARK  9 active torsions:
REMARK  status: ('A' for Active; 'I' for Inactive)
REMARK    1  A    between atoms: C_2  and  O_3 
REMARK    2  A    between atoms: O_3  and  C_4 
REMARK    3  A    between atoms: C_4  and  C_5 
REMARK    4  A    between atoms: C_7  and  C_8 
REMARK       I    between atoms: C_8  and  N_9 
REMARK    5  A    between atoms: N_9  and  N_10 
REMARK    6  A    between atoms: N_10  and  C_11 
REMARK    7  A    between atoms: C_11  and  N_12 
REMARK    8  A    between atoms: N_12  and  C_13 
REMARK    9  A    between atoms: C_13  and  C_14 
ROOT
HETATM    1  C   UNL     1       7.372  28.475  57.648  1.00  0.00     0.293 C 
HETATM    2  N   UNL     1       7.319  29.789  58.096  1.00  0.00    -0.262 N 
HETATM    3  O   UNL     1       7.950  27.612  58.311  1.00  0.00    -0.264 OA
HETATM    4  H   UNL     1       6.659  30.455  57.705  1.00  0.00     0.190 HD
ENDROOT
BRANCH   1   5
HETATM    5  C   UNL     1       6.699  28.234  56.387  1.00  0.00     0.145 A 
HETATM    6  O   UNL     1       7.336  27.455  55.455  1.00  0.00    -0.307 OA
HETATM    7  C   UNL     1       6.533  27.380  54.356  1.00  0.00     0.078 A 
HETATM    8  C   UNL     1       5.377  28.096  54.568  1.00  0.00     0.038 A 
HETATM    9  C   UNL     1       5.480  28.644  55.870  1.00  0.00     0.045 A 
BRANCH   7  10
HETATM   10  C   UNL     1       7.038  26.580  53.209  1.00  0.00     0.240 C 
BRANCH  10  11
HETATM   11  O   UNL     1       6.255  25.388  53.176  1.00  0.00    -0.345 OA
BRANCH  11  12
HETATM   12  C   UNL     1       6.809  24.267  53.727  1.00  0.00     0.069 A 
HETATM   13  C   UNL     1       6.836  23.945  55.085  1.00  0.00     0.038 A 
HETATM   14  C   UNL     1       7.423  22.749  55.511  1.00  0.00     0.022 A 
HETATM   15  C   UNL     1       7.983  21.876  54.580  1.00  0.00     0.011 A 
HETATM   16  C   UNL     1       7.962  22.189  53.224  1.00  0.00     0.022 A 
HETATM   17 BR   UNL     1       8.775  20.262  55.161  1.00  0.00    -0.051 Br
HETATM   18  C   UNL     1       7.371  23.382  52.802  1.00  0.00     0.038 A 
ENDBRANCH  11  12
ENDBRANCH  10  11
ENDBRANCH   7  10
ENDBRANCH   1   5
BRANCH   2  19
HETATM   19  N   UNL     1       7.764  30.060  59.409  1.00  0.00    -0.274 N 
HETATM   20  H   UNL     1       7.001  30.305  60.040  1.00  0.00     0.189 HD
BRANCH  19  21
HETATM   21  C   UNL     1       8.974  30.677  59.603  1.00  0.00     0.186 C 
HETATM   22  S   UNL     1      10.002  31.176  58.379  1.00  0.00    -0.040 SA
BRANCH  21  23
HETATM   23  N   UNL     1       9.374  30.843  60.891  1.00  0.00    -0.364 N 
HETATM   24  H   UNL     1       9.727  30.001  61.339  1.00  0.00     0.162 HD
BRANCH  23  25
HETATM   25  C   UNL     1       9.182  31.977  61.792  1.00  0.00     0.154 C 
BRANCH  25  26
HETATM   26  C   UNL     1       8.165  31.669  62.903  1.00  0.00     0.139 C 
HETATM   27  O   UNL     1       6.907  31.288  62.306  1.00  0.00    -0.384 OA
HETATM   28  C   UNL     1       5.867  32.068  62.908  1.00  0.00     0.168 C 
HETATM   29  C   UNL     1       6.527  33.331  63.407  1.00  0.00     0.029 C 
HETATM   30  C   UNL     1       7.882  32.832  63.846  1.00  0.00     0.035 C 
ENDBRANCH  25  26
ENDBRANCH  23  25
ENDBRANCH  21  23
ENDBRANCH  19  21
ENDBRANCH   2  19
TORSDOF 9
ENDMDL
MODEL 3
REMARK VINA RESULT:      -8.2      4.951     10.808
REMARK  9 active torsions:
REMARK  status: ('A' for Active; 'I' for Inactive)
REMARK    1  A    between atoms: C_2  and  O_3 
REMARK    2  A    between atoms: O_3  and  C_4 
REMARK    3  A    between atoms: C_4  and  C_5 
REMARK    4  A    between atoms: C_7  and  C_8 
REMARK       I    between atoms: C_8  and  N_9 
REMARK    5  A    between atoms: N_9  and  N_10 
REMARK    6  A    between atoms: N_10  and  C_11 
REMARK    7  A    between atoms: C_11  and  N_12 
REMARK    8  A    between atoms: N_12  and  C_13 
REMARK    9  A    between atoms: C_13  and  C_14 
ROOT
HETATM    1  C   UNL     1       7.378  29.755  58.221  1.00  0.00     0.293 C 
HETATM    2  N   UNL     1       7.026  31.046  58.592  1.00  0.00    -0.262 N 
HETATM    3  O   UNL     1       8.479  29.295  58.531  1.00  0.00    -0.264 OA
HETATM    4  H   UNL     1       6.059  31.359  58.565  1.00  0.00     0.190 HD
ENDROOT
BRANCH   1   5
HETATM    5  C   UNL     1       6.363  29.036  57.477  1.00  0.00     0.145 A 
HETATM    6  O   UNL     1       6.627  27.741  57.111  1.00  0.00    -0.307 OA
HETATM    7  C   UNL     1       5.551  27.277  56.415  1.00  0.00     0.078 A 
HETATM    8  C   UNL     1       4.585  28.255  56.333  1.00  0.00     0.038 A 
HETATM    9  C   UNL     1       5.103  29.384  57.014  1.00  0.00     0.045 A 
BRANCH   7  10
HETATM   10  C   UNL     1       5.628  25.880  55.913  1.00  0.00     0.240 C 
BRANCH  10  11
HETATM   11  O   UNL     1       6.906  25.747  55.293  1.00  0.00    -0.345 OA
BRANCH  11  12
HETATM   12  C   UNL     1       7.261  24.499  54.863  1.00  0.00     0.069 A 
HETATM   13  C   UNL     1       7.399  23.363  55.662  1.00  0.00     0.038 A 
HETATM   14  C   UNL     1       7.751  22.138  55.085  1.00  0.00     0.022 A 
HETATM   15  C   UNL     1       7.967  22.051  53.711  1.00  0.00     0.011 A 
HETATM   16  C   UNL     1       7.832  23.179  52.907  1.00  0.00     0.022 A 
HETATM   17 BR   UNL     1       8.442  20.394  52.936  1.00  0.00    -0.051 Br
HETATM   18  C   UNL     1       7.476  24.399  53.485  1.00  0.00     0.038 A 
ENDBRANCH  11  12
ENDBRANCH  10  11
ENDBRANCH   7  10
ENDBRANCH   1   5
BRANCH   2  19
HETATM   19  N   UNL     1       7.869  31.731  59.494  1.00  0.00    -0.274 N 
HETATM   20  H   UNL     1       8.817  31.850  59.134  1.00  0.00     0.189 HD
BRANCH  19  21
HETATM   21  C   UNL     1       7.723  31.536  60.844  1.00  0.00     0.186 C 
HETATM   22  S   UNL     1       8.901  30.906  61.854  1.00  0.00    -0.040 SA
BRANCH  21  23
HETATM   23  N   UNL     1       6.508  31.833  61.375  1.00  0.00    -0.364 N 
HETATM   24  H   UNL     1       5.731  31.309  60.983  1.00  0.00     0.162 HD
BRANCH  23  25
HETATM   25  C   UNL     1       6.118  32.928  62.261  1.00  0.00     0.154 C 
BRANCH  25  26
HETATM   26  C   UNL     1       6.114  32.505  63.739  1.00  0.00     0.139 C 
HETATM   27  O   UNL     1       4.830  32.817  64.321  1.00  0.00    -0.384 OA
HETATM   28  C   UNL     1       5.050  33.545  65.535  1.00  0.00     0.168 C 
HETATM   29  C   UNL     1       6.398  34.208  65.387  1.00  0.00     0.029 C 
HETATM   30  C   UNL     1       7.175  33.182  64.598  1.00  0.00     0.035 C 
ENDBRANCH  25  26
ENDBRANCH  23  25
ENDBRANCH  21  23
ENDBRANCH  19  21
ENDBRANCH   2  19
TORSDOF 9
ENDMDL
MODEL 4
REMARK VINA RESULT:      -8.1      5.073      9.810
REMARK  9 active torsions:
REMARK  status: ('A' for Active; 'I' for Inactive)
REMARK    1  A    between atoms: C_2  and  O_3 
REMARK    2  A    between atoms: O_3  and  C_4 
REMARK    3  A    between atoms: C_4  and  C_5 
REMARK    4  A    between atoms: C_7  and  C_8 
REMARK       I    between atoms: C_8  and  N_9 
REMARK    5  A    between atoms: N_9  and  N_10 
REMARK    6  A    between atoms: N_10  and  C_11 
REMARK    7  A    between atoms: C_11  and  N_12 
REMARK    8  A    between atoms: N_12  and  C_13 
REMARK    9  A    between atoms: C_13  and  C_14 
ROOT
HETATM    1  C   UNL     1       9.031  31.092  59.870  1.00  0.00     0.293 C 
HETATM    2  N   UNL     1       8.457  30.618  61.043  1.00  0.00    -0.262 N 
HETATM    3  O   UNL     1       9.505  32.228  59.821  1.00  0.00    -0.264 OA
HETATM    4  H   UNL     1       8.282  29.628  61.184  1.00  0.00     0.190 HD
ENDROOT
BRANCH   1   5
HETATM    5  C   UNL     1       9.025  30.151  58.766  1.00  0.00     0.145 A 
HETATM    6  O   UNL     1       8.057  29.180  58.752  1.00  0.00    -0.307 OA
HETATM    7  C   UNL     1       8.255  28.411  57.644  1.00  0.00     0.078 A 
HETATM    8  C   UNL     1       9.338  28.879  56.933  1.00  0.00     0.038 A 
HETATM    9  C   UNL     1       9.832  29.996  57.650  1.00  0.00     0.045 A 
BRANCH   7  10
HETATM   10  C   UNL     1       7.312  27.282  57.433  1.00  0.00     0.240 C 
BRANCH  10  11
HETATM   11  O   UNL     1       8.037  26.091  57.740  1.00  0.00    -0.345 OA
BRANCH  11  12
HETATM   12  C   UNL     1       8.098  25.134  56.767  1.00  0.00     0.069 A 
HETATM   13  C   UNL     1       8.932  24.015  56.766  1.00  0.00     0.038 A 
HETATM   14  C   UNL     1       8.878  23.100  55.709  1.00  0.00     0.022 A 
HETATM   15  C   UNL     1       7.992  23.306  54.653  1.00  0.00     0.011 A 
HETATM   16  C   UNL     1       7.158  24.420  54.645  1.00  0.00     0.022 A 
HETATM   17 BR   UNL     1       7.923  22.068  53.227  1.00  0.00    -0.051 Br
HETATM   18  C   UNL     1       7.211  25.328  55.704  1.00  0.00     0.038 A 
ENDBRANCH  11  12
ENDBRANCH  10  11
ENDBRANCH   7  10
ENDBRANCH   1   5
BRANCH   2  19
HETATM   19  N   UNL     1       8.612  31.390  62.215  1.00  0.00    -0.274 N 
HETATM   20  H   UNL     1       9.352  31.038  62.823  1.00  0.00     0.189 HD
BRANCH  19  21
HETATM   21  C   UNL     1       7.511  31.950  62.813  1.00  0.00     0.186 C 
HETATM   22  S   UNL     1       7.562  33.043  64.080  1.00  0.00    -0.040 SA
BRANCH  21  23
HETATM   23  N   UNL     1       6.298  31.537  62.363  1.00  0.00    -0.364 N 
HETATM   24  H   UNL     1       6.330  30.804  61.659  1.00  0.00     0.162 HD
BRANCH  23  25
HETATM   25  C   UNL     1       4.975  32.120  62.573  1.00  0.00     0.154 C 
BRANCH  25  26
HETATM   26  C   UNL     1       4.421  32.778  61.298  1.00  0.00     0.139 C 
HETATM   27  O   UNL     1       3.443  31.903  60.696  1.00  0.00    -0.384 OA
HETATM   28  C   UNL     1       3.768  31.748  59.310  1.00  0.00     0.168 C 
HETATM   29  C   UNL     1       5.251  32.007  59.197  1.00  0.00     0.029 C 
HETATM   30  C   UNL     1       5.469  33.082  60.233  1.00  0.00     0.035 C 
ENDBRANCH  25  26
ENDBRANCH  23  25
ENDBRANCH  21  23
ENDBRANCH  19  21
ENDBRANCH   2  19
TORSDOF 9
ENDMDL
MODEL 5
REMARK VINA RESULT:      -8.1      5.026     10.862
REMARK  9 active torsions:
REMARK  status: ('A' for Active; 'I' for Inactive)
REMARK    1  A    between atoms: C_2  and  O_3 
REMARK    2  A    between atoms: O_3  and  C_4 
REMARK    3  A    between atoms: C_4  and  C_5 
REMARK    4  A    between atoms: C_7  and  C_8 
REMARK       I    between atoms: C_8  and  N_9 
REMARK    5  A    between atoms: N_9  and  N_10 
REMARK    6  A    between atoms: N_10  and  C_11 
REMARK    7  A    between atoms: C_11  and  N_12 
REMARK    8  A    between atoms: N_12  and  C_13 
REMARK    9  A    between atoms: C_13  and  C_14 
ROOT
HETATM    1  C   UNL     1       8.362  30.692  59.333  1.00  0.00     0.293 C 
HETATM    2  N   UNL     1       7.018  30.805  59.665  1.00  0.00    -0.262 N 
HETATM    3  O   UNL     1       9.202  31.413  59.874  1.00  0.00    -0.264 OA
HETATM    4  H   UNL     1       6.350  30.079  59.423  1.00  0.00     0.190 HD
ENDROOT
BRANCH   1   5
HETATM    5  C   UNL     1       8.660  29.679  58.339  1.00  0.00     0.145 A 
HETATM    6  O   UNL     1       7.867  28.561  58.299  1.00  0.00    -0.307 OA
HETATM    7  C   UNL     1       8.339  27.750  57.310  1.00  0.00     0.078 A 
HETATM    8  C   UNL     1       9.427  28.334  56.702  1.00  0.00     0.038 A 
HETATM    9  C   UNL     1       9.635  29.572  57.358  1.00  0.00     0.045 A 
BRANCH   7  10
HETATM   10  C   UNL     1       7.622  26.465  57.096  1.00  0.00     0.240 C 
BRANCH  10  11
HETATM   11  O   UNL     1       7.535  26.286  55.683  1.00  0.00    -0.345 OA
BRANCH  11  12
HETATM   12  C   UNL     1       7.696  25.016  55.207  1.00  0.00     0.069 A 
HETATM   13  C   UNL     1       8.012  23.888  55.967  1.00  0.00     0.038 A 
HETATM   14  C   UNL     1       8.129  22.637  55.350  1.00  0.00     0.022 A 
HETATM   15  C   UNL     1       7.933  22.517  53.975  1.00  0.00     0.011 A 
HETATM   16  C   UNL     1       7.619  23.636  53.211  1.00  0.00     0.022 A 
HETATM   17 BR   UNL     1       8.093  20.826  53.147  1.00  0.00    -0.051 Br
HETATM   18  C   UNL     1       7.498  24.881  53.830  1.00  0.00     0.038 A 
ENDBRANCH  11  12
ENDBRANCH  10  11
ENDBRANCH   7  10
ENDBRANCH   1   5
BRANCH   2  19
HETATM   19  N   UNL     1       6.674  31.615  60.769  1.00  0.00    -0.274 N 
HETATM   20  H   UNL     1       6.579  31.082  61.634  1.00  0.00     0.189 HD
BRANCH  19  21
HETATM   21  C   UNL     1       5.842  32.692  60.590  1.00  0.00     0.186 C 
HETATM   22  S   UNL     1       5.022  33.043  59.173  1.00  0.00    -0.040 SA
BRANCH  21  23
HETATM   23  N   UNL     1       5.727  33.554  61.634  1.00  0.00    -0.364 N 
HETATM   24  H   UNL     1       6.519  34.179  61.760  1.00  0.00     0.162 HD
BRANCH  23  25
HETATM   25  C   UNL     1       4.752  33.580  62.722  1.00  0.00     0.154 C 
BRANCH  25  26
HETATM   26  C   UNL     1       5.284  32.899  63.994  1.00  0.00     0.139 C 
HETATM   27  O   UNL     1       4.591  33.429  65.144  1.00  0.00    -0.384 OA
HETATM   28  C   UNL     1       5.566  33.824  66.117  1.00  0.00     0.168 C 
HETATM   29  C   UNL     1       6.831  34.115  65.346  1.00  0.00     0.029 C 
HETATM   30  C   UNL     1       6.776  33.088  64.241  1.00  0.00     0.035 C 
ENDBRANCH  25  26
ENDBRANCH  23  25
ENDBRANCH  21  23
ENDBRANCH  19  21
ENDBRANCH   2  19
TORSDOF 9
ENDMDL
MODEL 6
REMARK VINA RESULT:      -8.1      5.171     10.620
REMARK  9 active torsions:
REMARK  status: ('A' for Active; 'I' for Inactive)
REMARK    1  A    between atoms: C_2  and  O_3 
REMARK    2  A    between atoms: O_3  and  C_4 
REMARK    3  A    between atoms: C_4  and  C_5 
REMARK    4  A    between atoms: C_7  and  C_8 
REMARK       I    between atoms: C_8  and  N_9 
REMARK    5  A    between atoms: N_9  and  N_10 
REMARK    6  A    between atoms: N_10  and  C_11 
REMARK    7  A    between atoms: C_11  and  N_12 
REMARK    8  A    between atoms: N_12  and  C_13 
REMARK    9  A    between atoms: C_13  and  C_14 
ROOT
HETATM    1  C   UNL     1       3.571  30.200  57.110  1.00  0.00     0.293 C 
HETATM    2  N   UNL     1       4.000  30.108  58.428  1.00  0.00    -0.262 N 
HETATM    3  O   UNL     1       2.774  31.078  56.772  1.00  0.00    -0.264 OA
HETATM    4  H   UNL     1       4.820  29.564  58.680  1.00  0.00     0.190 HD
ENDROOT
BRANCH   1   5
HETATM    5  C   UNL     1       4.138  29.211  56.214  1.00  0.00     0.145 A 
HETATM    6  O   UNL     1       4.908  28.215  56.757  1.00  0.00    -0.307 OA
HETATM    7  C   UNL     1       5.342  27.421  55.737  1.00  0.00     0.078 A 
HETATM    8  C   UNL     1       4.855  27.889  54.537  1.00  0.00     0.038 A 
HETATM    9  C   UNL     1       4.081  29.036  54.840  1.00  0.00     0.045 A 
BRANCH   7  10
HETATM   10  C   UNL     1       6.207  26.270  56.105  1.00  0.00     0.240 C 
BRANCH  10  11
HETATM   11  O   UNL     1       7.213  26.187  55.096  1.00  0.00    -0.345 OA
BRANCH  11  12
HETATM   12  C   UNL     1       7.425  24.961  54.531  1.00  0.00     0.069 A 
HETATM   13  C   UNL     1       7.667  24.710  53.179  1.00  0.00     0.038 A 
HETATM   14  C   UNL     1       7.887  23.401  52.737  1.00  0.00     0.022 A 
HETATM   15  C   UNL     1       7.862  22.344  53.646  1.00  0.00     0.011 A 
HETATM   16  C   UNL     1       7.621  22.585  54.995  1.00  0.00     0.022 A 
HETATM   17 BR   UNL     1       8.159  20.578  53.044  1.00  0.00    -0.051 Br
HETATM   18  C   UNL     1       7.407  23.893  55.434  1.00  0.00     0.038 A 
ENDBRANCH  11  12
ENDBRANCH  10  11
ENDBRANCH   7  10
ENDBRANCH   1   5
BRANCH   2  19
HETATM   19  N   UNL     1       3.660  31.157  59.311  1.00  0.00    -0.274 N 
HETATM   20  H   UNL     1       2.671  31.404  59.266  1.00  0.00     0.189 HD
BRANCH  19  21
HETATM   21  C   UNL     1       4.559  32.167  59.544  1.00  0.00     0.186 C 
HETATM   22  S   UNL     1       4.555  33.651  58.767  1.00  0.00    -0.040 SA
BRANCH  21  23
HETATM   23  N   UNL     1       5.548  31.909  60.439  1.00  0.00    -0.364 N 
HETATM   24  H   UNL     1       5.725  30.922  60.605  1.00  0.00     0.162 HD
BRANCH  23  25
HETATM   25  C   UNL     1       6.245  32.814  61.349  1.00  0.00     0.154 C 
BRANCH  25  26
HETATM   26  C   UNL     1       6.405  32.213  62.756  1.00  0.00     0.139 C 
HETATM   27  O   UNL     1       5.418  32.792  63.636  1.00  0.00    -0.384 OA
HETATM   28  C   UNL     1       6.083  33.257  64.816  1.00  0.00     0.168 C 
HETATM   29  C   UNL     1       7.512  33.529  64.411  1.00  0.00     0.029 C 
HETATM   30  C   UNL     1       7.769  32.443  63.395  1.00  0.00     0.035 C 
ENDBRANCH  25  26
ENDBRANCH  23  25
ENDBRANCH  21  23
ENDBRANCH  19  21
ENDBRANCH   2  19
TORSDOF 9
ENDMDL
MODEL 7
REMARK VINA RESULT:      -8.1      5.069      9.446
REMARK  9 active torsions:
REMARK  status: ('A' for Active; 'I' for Inactive)
REMARK    1  A    between atoms: C_2  and  O_3 
REMARK    2  A    between atoms: O_3  and  C_4 
REMARK    3  A    between atoms: C_4  and  C_5 
REMARK    4  A    between atoms: C_7  and  C_8 
REMARK       I    between atoms: C_8  and  N_9 
REMARK    5  A    between atoms: N_9  and  N_10 
REMARK    6  A    between atoms: N_10  and  C_11 
REMARK    7  A    between atoms: C_11  and  N_12 
REMARK    8  A    between atoms: N_12  and  C_13 
REMARK    9  A    between atoms: C_13  and  C_14 
ROOT
HETATM    1  C   UNL     1       8.219  30.249  59.482  1.00  0.00     0.293 C 
HETATM    2  N   UNL     1       7.085  31.051  59.473  1.00  0.00    -0.262 N 
HETATM    3  O   UNL     1       8.987  30.265  60.446  1.00  0.00    -0.264 OA
HETATM    4  H   UNL     1       6.325  30.884  58.820  1.00  0.00     0.190 HD
ENDROOT
BRANCH   1   5
HETATM    5  C   UNL     1       8.391  29.423  58.303  1.00  0.00     0.145 A 
HETATM    6  O   UNL     1       7.826  28.174  58.303  1.00  0.00    -0.307 OA
HETATM    7  C   UNL     1       8.128  27.580  57.113  1.00  0.00     0.078 A 
HETATM    8  C   UNL     1       8.877  28.436  56.337  1.00  0.00     0.038 A 
HETATM    9  C   UNL     1       9.046  29.619  57.097  1.00  0.00     0.045 A 
BRANCH   7  10
HETATM   10  C   UNL     1       7.614  26.202  56.901  1.00  0.00     0.240 C 
BRANCH  10  11
HETATM   11  O   UNL     1       7.532  26.017  55.489  1.00  0.00    -0.345 OA
BRANCH  11  12
HETATM   12  C   UNL     1       7.698  24.745  55.018  1.00  0.00     0.069 A 
HETATM   13  C   UNL     1       7.749  23.583  55.791  1.00  0.00     0.038 A 
HETATM   14  C   UNL     1       7.905  22.337  55.174  1.00  0.00     0.022 A 
HETATM   15  C   UNL     1       8.013  22.254  53.787  1.00  0.00     0.011 A 
HETATM   16  C   UNL     1       7.964  23.407  53.009  1.00  0.00     0.022 A 
HETATM   17 BR   UNL     1       8.225  20.569  52.958  1.00  0.00    -0.051 Br
HETATM   18  C   UNL     1       7.803  24.649  53.627  1.00  0.00     0.038 A 
ENDBRANCH  11  12
ENDBRANCH  10  11
ENDBRANCH   7  10
ENDBRANCH   1   5
BRANCH   2  19
HETATM   19  N   UNL     1       6.737  31.721  60.666  1.00  0.00    -0.274 N 
HETATM   20  H   UNL     1       7.087  31.248  61.500  1.00  0.00     0.189 HD
BRANCH  19  21
HETATM   21  C   UNL     1       5.527  32.361  60.759  1.00  0.00     0.186 C 
HETATM   22  S   UNL     1       5.251  33.766  61.628  1.00  0.00    -0.040 SA
BRANCH  21  23
HETATM   23  N   UNL     1       4.475  31.770  60.135  1.00  0.00    -0.364 N 
HETATM   24  H   UNL     1       4.201  30.870  60.521  1.00  0.00     0.162 HD
BRANCH  23  25
HETATM   25  C   UNL     1       3.817  32.118  58.877  1.00  0.00     0.154 C 
BRANCH  25  26
HETATM   26  C   UNL     1       3.619  30.893  57.968  1.00  0.00     0.139 C 
HETATM   27  O   UNL     1       4.861  30.163  57.874  1.00  0.00    -0.384 OA
HETATM   28  C   UNL     1       5.144  29.932  56.489  1.00  0.00     0.168 C 
HETATM   29  C   UNL     1       4.433  31.025  55.728  1.00  0.00     0.029 C 
HETATM   30  C   UNL     1       3.180  31.222  56.546  1.00  0.00     0.035 C 
ENDBRANCH  25  26
ENDBRANCH  23  25
ENDBRANCH  21  23
ENDBRANCH  19  21
ENDBRANCH   2  19
TORSDOF 9
ENDMDL
MODEL 8
REMARK VINA RESULT:      -7.9      2.142      3.210
REMARK  9 active torsions:
REMARK  status: ('A' for Active; 'I' for Inactive)
REMARK    1  A    between atoms: C_2  and  O_3 
REMARK    2  A    between atoms: O_3  and  C_4 
REMARK    3  A    between atoms: C_4  and  C_5 
REMARK    4  A    between atoms: C_7  and  C_8 
REMARK       I    between atoms: C_8  and  N_9 
REMARK    5  A    between atoms: N_9  and  N_10 
REMARK    6  A    between atoms: N_10  and  C_11 
REMARK    7  A    between atoms: C_11  and  N_12 
REMARK    8  A    between atoms: N_12  and  C_13 
REMARK    9  A    between atoms: C_13  and  C_14 
ROOT
HETATM    1  C   UNL     1       7.912  25.143  57.105  1.00  0.00     0.293 C 
HETATM    2  N   UNL     1       7.089  24.414  56.256  1.00  0.00    -0.262 N 
HETATM    3  O   UNL     1       8.889  24.612  57.635  1.00  0.00    -0.264 OA
HETATM    4  H   UNL     1       6.436  24.874  55.629  1.00  0.00     0.190 HD
ENDROOT
BRANCH   1   5
HETATM    5  C   UNL     1       7.527  26.530  57.284  1.00  0.00     0.145 A 
HETATM    6  O   UNL     1       8.494  27.422  57.670  1.00  0.00    -0.307 OA
HETATM    7  C   UNL     1       7.906  28.647  57.790  1.00  0.00     0.078 A 
HETATM    8  C   UNL     1       6.568  28.559  57.477  1.00  0.00     0.038 A 
HETATM    9  C   UNL     1       6.323  27.203  57.150  1.00  0.00     0.045 A 
BRANCH   7  10
HETATM   10  C   UNL     1       8.781  29.773  58.211  1.00  0.00     0.240 C 
BRANCH  10  11
HETATM   11  O   UNL     1       7.932  30.912  58.342  1.00  0.00    -0.345 OA
BRANCH  11  12
HETATM   12  C   UNL     1       7.789  31.438  59.595  1.00  0.00     0.069 A 
HETATM   13  C   UNL     1       6.698  32.176  60.057  1.00  0.00     0.038 A 
HETATM   14  C   UNL     1       6.673  32.641  61.376  1.00  0.00     0.022 A 
HETATM   15  C   UNL     1       7.740  32.369  62.231  1.00  0.00     0.011 A 
HETATM   16  C   UNL     1       8.832  31.634  61.779  1.00  0.00     0.022 A 
HETATM   17 BR   UNL     1       7.702  32.999  64.012  1.00  0.00    -0.051 Br
HETATM   18  C   UNL     1       8.851  31.168  60.463  1.00  0.00     0.038 A 
ENDBRANCH  11  12
ENDBRANCH  10  11
ENDBRANCH   7  10
ENDBRANCH   1   5
BRANCH   2  19
HETATM   19  N   UNL     1       7.514  23.125  55.867  1.00  0.00    -0.274 N 
HETATM   20  H   UNL     1       8.013  22.633  56.609  1.00  0.00     0.189 HD
BRANCH  19  21
HETATM   21  C   UNL     1       7.919  22.904  54.575  1.00  0.00     0.186 C 
HETATM   22  S   UNL     1       8.119  21.393  53.879  1.00  0.00    -0.040 SA
BRANCH  21  23
HETATM   23  N   UNL     1       8.224  24.002  53.835  1.00  0.00    -0.364 N 
HETATM   24  H   UNL     1       8.622  24.774  54.363  1.00  0.00     0.162 HD
BRANCH  23  25
HETATM   25  C   UNL     1       7.879  24.323  52.452  1.00  0.00     0.154 C 
BRANCH  25  26
HETATM   26  C   UNL     1       6.954  25.548  52.355  1.00  0.00     0.139 C 
HETATM   27  O   UNL     1       6.709  26.067  53.680  1.00  0.00    -0.384 OA
HETATM   28  C   UNL     1       5.295  26.226  53.848  1.00  0.00     0.168 C 
HETATM   29  C   UNL     1       4.648  25.250  52.895  1.00  0.00     0.029 C 
HETATM   30  C   UNL     1       5.596  25.272  51.721  1.00  0.00     0.035 C 
ENDBRANCH  25  26
ENDBRANCH  23  25
ENDBRANCH  21  23
ENDBRANCH  19  21
ENDBRANCH   2  19
TORSDOF 9
ENDMDL
MODEL 9
REMARK VINA RESULT:      -7.9      2.842      4.107
REMARK  9 active torsions:
REMARK  status: ('A' for Active; 'I' for Inactive)
REMARK    1  A    between atoms: C_2  and  O_3 
REMARK    2  A    between atoms: O_3  and  C_4 
REMARK    3  A    between atoms: C_4  and  C_5 
REMARK    4  A    between atoms: C_7  and  C_8 
REMARK       I    between atoms: C_8  and  N_9 
REMARK    5  A    between atoms: N_9  and  N_10 
REMARK    6  A    between atoms: N_10  and  C_11 
REMARK    7  A    between atoms: C_11  and  N_12 
REMARK    8  A    between atoms: N_12  and  C_13 
REMARK    9  A    between atoms: C_13  and  C_14 
ROOT
HETATM    1  C   UNL     1       8.688  29.468  57.559  1.00  0.00     0.293 C 
HETATM    2  N   UNL     1       7.536  28.724  57.784  1.00  0.00    -0.262 N 
HETATM    3  O   UNL     1       9.327  29.329  56.514  1.00  0.00    -0.264 OA
HETATM    4  H   UNL     1       6.872  28.986  58.507  1.00  0.00     0.190 HD
ENDROOT
BRANCH   1   5
HETATM    5  C   UNL     1       9.039  30.387  58.624  1.00  0.00     0.145 A 
HETATM    6  O   UNL     1       8.572  30.120  59.886  1.00  0.00    -0.307 OA
HETATM    7  C   UNL     1       9.007  31.114  60.710  1.00  0.00     0.078 A 
HETATM    8  C   UNL     1       9.760  32.021  59.998  1.00  0.00     0.038 A 
HETATM    9  C   UNL     1       9.783  31.556  58.660  1.00  0.00     0.045 A 
BRANCH   7  10
HETATM   10  C   UNL     1       8.606  31.026  62.139  1.00  0.00     0.240 C 
BRANCH  10  11
HETATM   11  O   UNL     1       7.188  31.182  62.167  1.00  0.00    -0.345 OA
BRANCH  11  12
HETATM   12  C   UNL     1       6.676  32.027  63.112  1.00  0.00     0.069 A 
HETATM   13  C   UNL     1       5.323  32.290  63.332  1.00  0.00     0.038 A 
HETATM   14  C   UNL     1       4.935  33.167  64.351  1.00  0.00     0.022 A 
HETATM   15  C   UNL     1       5.901  33.781  65.147  1.00  0.00     0.011 A 
HETATM   16  C   UNL     1       7.252  33.525  64.934  1.00  0.00     0.022 A 
HETATM   17 BR   UNL     1       5.373  34.964  66.522  1.00  0.00    -0.051 Br
HETATM   18  C   UNL     1       7.635  32.646  63.919  1.00  0.00     0.038 A 
ENDBRANCH  11  12
ENDBRANCH  10  11
ENDBRANCH   7  10
ENDBRANCH   1   5
BRANCH   2  19
HETATM   19  N   UNL     1       7.016  27.968  56.711  1.00  0.00    -0.274 N 
HETATM   20  H   UNL     1       7.649  27.227  56.408  1.00  0.00     0.189 HD
BRANCH  19  21
HETATM   21  C   UNL     1       6.251  28.584  55.753  1.00  0.00     0.186 C 
HETATM   22  S   UNL     1       4.720  29.212  56.007  1.00  0.00    -0.040 SA
BRANCH  21  23
HETATM   23  N   UNL     1       6.771  28.634  54.498  1.00  0.00    -0.364 N 
HETATM   24  H   UNL     1       6.431  29.404  53.927  1.00  0.00     0.162 HD
BRANCH  23  25
HETATM   25  C   UNL     1       7.569  27.647  53.776  1.00  0.00     0.154 C 
BRANCH  25  26
HETATM   26  C   UNL     1       6.795  26.340  53.534  1.00  0.00     0.139 C 
HETATM   27  O   UNL     1       7.146  25.383  54.557  1.00  0.00    -0.384 OA
HETATM   28  C   UNL     1       7.504  24.151  53.918  1.00  0.00     0.168 C 
HETATM   29  C   UNL     1       7.969  24.520  52.530  1.00  0.00     0.029 C 
HETATM   30  C   UNL     1       7.066  25.680  52.187  1.00  0.00     0.035 C 
ENDBRANCH  25  26
ENDBRANCH  23  25
ENDBRANCH  21  23
ENDBRANCH  19  21
ENDBRANCH   2  19
TORSDOF 9
ENDMDL
MODEL 10
REMARK VINA RESULT:      -7.8      4.977     10.047
REMARK  9 active torsions:
REMARK  status: ('A' for Active; 'I' for Inactive)
REMARK    1  A    between atoms: C_2  and  O_3 
REMARK    2  A    between atoms: O_3  and  C_4 
REMARK    3  A    between atoms: C_4  and  C_5 
REMARK    4  A    between atoms: C_7  and  C_8 
REMARK       I    between atoms: C_8  and  N_9 
REMARK    5  A    between atoms: N_9  and  N_10 
REMARK    6  A    between atoms: N_10  and  C_11 
REMARK    7  A    between atoms: C_11  and  N_12 
REMARK    8  A    between atoms: N_12  and  C_13 
REMARK    9  A    between atoms: C_13  and  C_14 
ROOT
HETATM    1  C   UNL     1       5.536  30.497  57.432  1.00  0.00     0.293 C 
HETATM    2  N   UNL     1       5.647  31.162  58.647  1.00  0.00    -0.262 N 
HETATM    3  O   UNL     1       4.673  30.826  56.617  1.00  0.00    -0.264 OA
HETATM    4  H   UNL     1       6.481  31.077  59.221  1.00  0.00     0.190 HD
ENDROOT
BRANCH   1   5
HETATM    5  C   UNL     1       6.500  29.433  57.229  1.00  0.00     0.145 A 
HETATM    6  O   UNL     1       6.369  28.649  56.111  1.00  0.00    -0.307 OA
HETATM    7  C   UNL     1       7.364  27.717  56.137  1.00  0.00     0.078 A 
HETATM    8  C   UNL     1       8.145  27.894  57.258  1.00  0.00     0.038 A 
HETATM    9  C   UNL     1       7.594  28.994  57.959  1.00  0.00     0.045 A 
BRANCH   7  10
HETATM   10  C   UNL     1       7.407  26.749  55.010  1.00  0.00     0.240 C 
BRANCH  10  11
HETATM   11  O   UNL     1       6.678  25.600  55.441  1.00  0.00    -0.345 OA
BRANCH  11  12
HETATM   12  C   UNL     1       7.096  24.388  54.968  1.00  0.00     0.069 A 
HETATM   13  C   UNL     1       7.321  23.241  55.732  1.00  0.00     0.038 A 
HETATM   14  C   UNL     1       7.731  22.055  55.112  1.00  0.00     0.022 A 
HETATM   15  C   UNL     1       7.917  22.018  53.731  1.00  0.00     0.011 A 
HETATM   16  C   UNL     1       7.695  23.157  52.962  1.00  0.00     0.022 A 
HETATM   17 BR   UNL     1       8.470  20.414  52.899  1.00  0.00    -0.051 Br
HETATM   18  C   UNL     1       7.282  24.337  53.583  1.00  0.00     0.038 A 
ENDBRANCH  11  12
ENDBRANCH  10  11
ENDBRANCH   7  10
ENDBRANCH   1   5
BRANCH   2  19
HETATM   19  N   UNL     1       4.889  32.338  58.830  1.00  0.00    -0.274 N 
HETATM   20  H   UNL     1       5.174  33.092  58.204  1.00  0.00     0.189 HD
BRANCH  19  21
HETATM   21  C   UNL     1       4.461  32.683  60.088  1.00  0.00     0.186 C 
HETATM   22  S   UNL     1       3.479  33.993  60.439  1.00  0.00    -0.040 SA
BRANCH  21  23
HETATM   23  N   UNL     1       4.920  31.924  61.117  1.00  0.00    -0.364 N 
HETATM   24  H   UNL     1       4.479  31.012  61.203  1.00  0.00     0.162 HD
BRANCH  23  25
HETATM   25  C   UNL     1       5.784  32.290  62.236  1.00  0.00     0.154 C 
BRANCH  25  26
HETATM   26  C   UNL     1       7.256  32.427  61.812  1.00  0.00     0.139 C 
HETATM   27  O   UNL     1       7.520  31.530  60.712  1.00  0.00    -0.384 OA
HETATM   28  C   UNL     1       8.691  30.766  61.024  1.00  0.00     0.168 C 
HETATM   29  C   UNL     1       8.784  30.740  62.531  1.00  0.00     0.029 C 
HETATM   30  C   UNL     1       8.266  32.107  62.907  1.00  0.00     0.035 C 
ENDBRANCH  25  26
ENDBRANCH  23  25
ENDBRANCH  21  23
ENDBRANCH  19  21
ENDBRANCH   2  19
TORSDOF 9
ENDMDL
