MODEL 1
REMARK VINA RESULT:     -10.7      0.000      0.000
REMARK  7 active torsions:
REMARK  status: ('A' for Active; 'I' for Inactive)
REMARK    1  A    between atoms: C_4  and  C_14 
REMARK    2  A    between atoms: C_7  and  C_8 
REMARK       I    between atoms: C_14  and  N_16 
REMARK    3  A    between atoms: N_16  and  C_17 
REMARK    4  A    between atoms: C_17  and  C_18 
REMARK    5  A    between atoms: C_22  and  C_24 
REMARK       I    between atoms: C_24  and  N_26 
REMARK    6  A    between atoms: N_26  and  C_27 
REMARK    7  A    between atoms: C_27  and  C_28 
ROOT
HETATM    1  C   UNL     1       7.783  28.777  57.581  1.00  0.00    -0.040 A 
HETATM    2  C   UNL     1       6.416  29.077  57.534  1.00  0.00     0.009 A 
HETATM    3  C   UNL     1       5.502  28.136  57.060  1.00  0.00     0.002 A 
HETATM    4  C   UNL     1       5.943  26.877  56.648  1.00  0.00     0.017 A 
HETATM    5  C   UNL     1       7.303  26.552  56.709  1.00  0.00     0.032 A 
HETATM    6  C   UNL     1       8.219  27.512  57.155  1.00  0.00     0.026 A 
ENDROOT
BRANCH   1   7
HETATM    7  C   UNL     1       8.778  29.768  58.131  1.00  0.00     0.161 C 
BRANCH   7   8
HETATM    8  N   UNL     1       8.263  30.397  59.325  1.00  0.00    -0.353 N 
HETATM    9  C   UNL     1       8.649  31.660  59.714  1.00  0.00     0.251 C 
HETATM   10  O   UNL     1       9.438  32.364  59.093  1.00  0.00    -0.268 OA
HETATM   11  H   UNL     1       7.574  29.893  59.868  1.00  0.00     0.163 HD
BRANCH   9  12
HETATM   12  C   UNL     1       8.038  32.155  60.971  1.00  0.00     0.032 A 
HETATM   13  C   UNL     1       6.813  32.835  60.958  1.00  0.00     0.024 A 
HETATM   14  C   UNL     1       6.234  33.291  62.156  1.00  0.00    -0.050 A 
HETATM   15  C   UNL     1       4.908  34.004  62.093  1.00  0.00     0.049 C 
HETATM   16  C   UNL     1       6.898  33.042  63.376  1.00  0.00    -0.017 A 
HETATM   17  C   UNL     1       8.124  32.355  63.374  1.00  0.00     0.014 A 
HETATM   18  C   UNL     1       8.689  31.905  62.179  1.00  0.00     0.018 A 
BRANCH  16  19
HETATM   19  C   UNL     1       6.343  33.457  64.650  1.00  0.00     0.011 A 
HETATM   20  C   UNL     1       5.007  33.546  65.096  1.00  0.00     0.152 A 
HETATM   21  N   UNL     1       4.916  33.981  66.354  1.00  0.00    -0.187 NA
HETATM   22  N   UNL     1       6.196  34.163  66.720  1.00  0.00    -0.289 N 
HETATM   23  H   UNL     1       6.385  34.499  67.659  1.00  0.00     0.188 HD
HETATM   24  C   UNL     1       7.091  33.858  65.735  1.00  0.00     0.123 A 
ENDBRANCH  16  19
ENDBRANCH   9  12
ENDBRANCH   7   8
ENDBRANCH   1   7
BRANCH   5  25
HETATM   25  C   UNL     1       7.724  25.188  56.285  1.00  0.00     0.251 C 
HETATM   26  O   UNL     1       7.995  24.317  57.112  1.00  0.00    -0.268 OA
HETATM   27  N   UNL     1       7.808  24.927  54.932  1.00  0.00    -0.355 N 
HETATM   28  H   UNL     1       7.771  25.724  54.300  1.00  0.00     0.162 HD
BRANCH  27  29
HETATM   29  C   UNL     1       8.428  23.715  54.409  1.00  0.00     0.155 C 
BRANCH  29  30
HETATM   30  C   UNL     1       7.487  22.486  54.336  1.00  0.00     0.203 C 
HETATM   31  C   UNL     1       7.754  21.612  53.114  1.00  0.00     0.036 C 
HETATM   32  C   UNL     1       8.817  20.636  53.590  1.00  0.00     0.029 C 
HETATM   33  C   UNL     1       8.369  20.289  54.994  1.00  0.00     0.233 C 
HETATM   34  N   UNL     1       7.724  21.539  55.487  1.00  0.00    -0.069 N 
HETATM   35  H   UNL     1       8.332  22.004  56.199  1.00  0.00     0.277 HD
HETATM   36  H   UNL     1       6.856  21.346  56.001  1.00  0.00     0.277 HD
ENDBRANCH  29  30
ENDBRANCH  27  29
ENDBRANCH   5  25
TORSDOF 7
ENDMDL
MODEL 2
REMARK VINA RESULT:     -10.5      1.762     11.801
REMARK  7 active torsions:
REMARK  status: ('A' for Active; 'I' for Inactive)
REMARK    1  A    between atoms: C_4  and  C_14 
REMARK    2  A    between atoms: C_7  and  C_8 
REMARK       I    between atoms: C_14  and  N_16 
REMARK    3  A    between atoms: N_16  and  C_17 
REMARK    4  A    between atoms: C_17  and  C_18 
REMARK    5  A    between atoms: C_22  and  C_24 
REMARK       I    between atoms: C_24  and  N_26 
REMARK    6  A    between atoms: N_26  and  C_27 
REMARK    7  A    between atoms: C_27  and  C_28 
ROOT
HETATM    1  C   UNL     1       7.708  29.827  57.033  1.00  0.00    -0.040 A 
HETATM    2  C   UNL     1       9.037  29.447  56.812  1.00  0.00     0.009 A 
HETATM    3  C   UNL     1      10.065  29.993  57.581  1.00  0.00     0.002 A 
HETATM    4  C   UNL     1       9.773  30.907  58.594  1.00  0.00     0.017 A 
HETATM    5  C   UNL     1       8.447  31.282  58.844  1.00  0.00     0.032 A 
HETATM    6  C   UNL     1       7.424  30.756  58.048  1.00  0.00     0.026 A 
ENDROOT
BRANCH   1   7
HETATM    7  C   UNL     1       6.581  29.214  56.240  1.00  0.00     0.161 C 
BRANCH   7   8
HETATM    8  N   UNL     1       6.921  27.872  55.827  1.00  0.00    -0.353 N 
HETATM    9  C   UNL     1       6.144  26.784  56.158  1.00  0.00     0.251 C 
HETATM   10  O   UNL     1       5.106  26.847  56.807  1.00  0.00    -0.268 OA
HETATM   11  H   UNL     1       7.743  27.746  55.253  1.00  0.00     0.163 HD
BRANCH   9  12
HETATM   12  C   UNL     1       6.639  25.475  55.669  1.00  0.00     0.032 A 
HETATM   13  C   UNL     1       6.998  25.296  54.327  1.00  0.00     0.024 A 
HETATM   14  C   UNL     1       7.479  24.054  53.873  1.00  0.00    -0.050 A 
HETATM   15  C   UNL     1       7.866  23.914  52.423  1.00  0.00     0.049 C 
HETATM   16  C   UNL     1       7.608  22.991  54.793  1.00  0.00    -0.017 A 
HETATM   17  C   UNL     1       7.249  23.188  56.138  1.00  0.00     0.014 A 
HETATM   18  C   UNL     1       6.775  24.425  56.577  1.00  0.00     0.018 A 
BRANCH  16  19
HETATM   19  C   UNL     1       8.125  21.695  54.400  1.00  0.00     0.011 A 
HETATM   20  C   UNL     1       8.034  20.990  53.180  1.00  0.00     0.152 A 
HETATM   21  N   UNL     1       8.652  19.808  53.226  1.00  0.00    -0.187 NA
HETATM   22  N   UNL     1       9.148  19.758  54.474  1.00  0.00    -0.289 N 
HETATM   23  H   UNL     1       9.671  18.933  54.751  1.00  0.00     0.188 HD
HETATM   24  C   UNL     1       8.864  20.868  55.216  1.00  0.00     0.123 A 
ENDBRANCH  16  19
ENDBRANCH   9  12
ENDBRANCH   7   8
ENDBRANCH   1   7
BRANCH   5  25
HETATM   25  C   UNL     1       8.180  32.240  59.953  1.00  0.00     0.251 C 
HETATM   26  O   UNL     1       9.093  32.866  60.491  1.00  0.00    -0.268 OA
HETATM   27  N   UNL     1       6.873  32.405  60.365  1.00  0.00    -0.355 N 
HETATM   28  H   UNL     1       6.189  31.727  60.032  1.00  0.00     0.162 HD
BRANCH  27  29
HETATM   29  C   UNL     1       6.524  33.130  61.581  1.00  0.00     0.155 C 
BRANCH  29  30
HETATM   30  C   UNL     1       6.574  32.282  62.877  1.00  0.00     0.203 C 
HETATM   31  C   UNL     1       7.725  32.680  63.797  1.00  0.00     0.036 C 
HETATM   32  C   UNL     1       7.135  33.779  64.665  1.00  0.00     0.029 C 
HETATM   33  C   UNL     1       5.738  33.275  64.963  1.00  0.00     0.233 C 
HETATM   34  N   UNL     1       5.356  32.517  63.738  1.00  0.00    -0.069 N 
HETATM   35  H   UNL     1       4.642  33.049  63.191  1.00  0.00     0.277 HD
HETATM   36  H   UNL     1       4.880  31.637  63.964  1.00  0.00     0.277 HD
ENDBRANCH  29  30
ENDBRANCH  27  29
ENDBRANCH   5  25
TORSDOF 7
ENDMDL
MODEL 3
REMARK VINA RESULT:     -10.4      1.951     11.915
REMARK  7 active torsions:
REMARK  status: ('A' for Active; 'I' for Inactive)
REMARK    1  A    between atoms: C_4  and  C_14 
REMARK    2  A    between atoms: C_7  and  C_8 
REMARK       I    between atoms: C_14  and  N_16 
REMARK    3  A    between atoms: N_16  and  C_17 
REMARK    4  A    between atoms: C_17  and  C_18 
REMARK    5  A    between atoms: C_22  and  C_24 
REMARK       I    between atoms: C_24  and  N_26 
REMARK    6  A    between atoms: N_26  and  C_27 
REMARK    7  A    between atoms: C_27  and  C_28 
ROOT
HETATM    1  C   UNL     1       7.687  29.857  57.127  1.00  0.00    -0.040 A 
HETATM    2  C   UNL     1       9.018  29.503  56.877  1.00  0.00     0.009 A 
HETATM    3  C   UNL     1      10.051  30.073  57.621  1.00  0.00     0.002 A 
HETATM    4  C   UNL     1       9.763  30.986  58.636  1.00  0.00     0.017 A 
HETATM    5  C   UNL     1       8.436  31.334  58.915  1.00  0.00     0.032 A 
HETATM    6  C   UNL     1       7.406  30.784  58.144  1.00  0.00     0.026 A 
ENDROOT
BRANCH   1   7
HETATM    7  C   UNL     1       6.556  29.217  56.361  1.00  0.00     0.161 C 
BRANCH   7   8
HETATM    8  N   UNL     1       6.892  27.861  55.995  1.00  0.00    -0.353 N 
HETATM    9  C   UNL     1       7.127  27.490  54.690  1.00  0.00     0.251 C 
HETATM   10  O   UNL     1       7.091  28.258  53.736  1.00  0.00    -0.268 OA
HETATM   11  H   UNL     1       6.981  27.178  56.735  1.00  0.00     0.163 HD
BRANCH   9  12
HETATM   12  C   UNL     1       7.446  26.057  54.481  1.00  0.00     0.032 A 
HETATM   13  C   UNL     1       7.559  25.179  55.567  1.00  0.00     0.024 A 
HETATM   14  C   UNL     1       7.850  23.818  55.360  1.00  0.00    -0.050 A 
HETATM   15  C   UNL     1       7.947  22.909  56.559  1.00  0.00     0.049 C 
HETATM   16  C   UNL     1       8.012  23.344  54.041  1.00  0.00    -0.017 A 
HETATM   17  C   UNL     1       7.891  24.236  52.962  1.00  0.00     0.014 A 
HETATM   18  C   UNL     1       7.601  25.585  53.178  1.00  0.00     0.018 A 
BRANCH  16  19
HETATM   19  C   UNL     1       8.282  21.949  53.755  1.00  0.00     0.011 A 
HETATM   20  C   UNL     1       9.074  20.998  54.434  1.00  0.00     0.152 A 
HETATM   21  N   UNL     1       9.064  19.805  53.837  1.00  0.00    -0.187 NA
HETATM   22  N   UNL     1       8.258  19.987  52.778  1.00  0.00    -0.289 N 
HETATM   23  H   UNL     1       8.092  19.200  52.158  1.00  0.00     0.188 HD
HETATM   24  C   UNL     1       7.759  21.254  52.687  1.00  0.00     0.123 A 
ENDBRANCH  16  19
ENDBRANCH   9  12
ENDBRANCH   7   8
ENDBRANCH   1   7
BRANCH   5  25
HETATM   25  C   UNL     1       8.173  32.292  60.025  1.00  0.00     0.251 C 
HETATM   26  O   UNL     1       9.091  32.902  60.573  1.00  0.00    -0.268 OA
HETATM   27  N   UNL     1       6.866  32.473  60.428  1.00  0.00    -0.355 N 
HETATM   28  H   UNL     1       6.176  31.806  60.088  1.00  0.00     0.162 HD
BRANCH  27  29
HETATM   29  C   UNL     1       6.519  33.198  61.645  1.00  0.00     0.155 C 
BRANCH  29  30
HETATM   30  C   UNL     1       6.551  32.345  62.939  1.00  0.00     0.203 C 
HETATM   31  C   UNL     1       7.728  32.695  63.845  1.00  0.00     0.036 C 
HETATM   32  C   UNL     1       7.193  33.814  64.722  1.00  0.00     0.029 C 
HETATM   33  C   UNL     1       5.781  33.365  65.037  1.00  0.00     0.233 C 
HETATM   34  N   UNL     1       5.354  32.626  63.815  1.00  0.00    -0.069 N 
HETATM   35  H   UNL     1       4.655  33.187  63.278  1.00  0.00     0.277 HD
HETATM   36  H   UNL     1       4.846  31.765  64.045  1.00  0.00     0.277 HD
ENDBRANCH  29  30
ENDBRANCH  27  29
ENDBRANCH   5  25
TORSDOF 7
ENDMDL
MODEL 4
REMARK VINA RESULT:     -10.2      0.903      1.582
REMARK  7 active torsions:
REMARK  status: ('A' for Active; 'I' for Inactive)
REMARK    1  A    between atoms: C_4  and  C_14 
REMARK    2  A    between atoms: C_7  and  C_8 
REMARK       I    between atoms: C_14  and  N_16 
REMARK    3  A    between atoms: N_16  and  C_17 
REMARK    4  A    between atoms: C_17  and  C_18 
REMARK    5  A    between atoms: C_22  and  C_24 
REMARK       I    between atoms: C_24  and  N_26 
REMARK    6  A    between atoms: N_26  and  C_27 
REMARK    7  A    between atoms: C_27  and  C_28 
ROOT
HETATM    1  C   UNL     1       7.698  28.669  57.692  1.00  0.00    -0.040 A 
HETATM    2  C   UNL     1       6.329  28.930  57.551  1.00  0.00     0.009 A 
HETATM    3  C   UNL     1       5.486  27.982  56.972  1.00  0.00     0.002 A 
HETATM    4  C   UNL     1       5.997  26.755  56.548  1.00  0.00     0.017 A 
HETATM    5  C   UNL     1       7.358  26.467  56.702  1.00  0.00     0.032 A 
HETATM    6  C   UNL     1       8.206  27.434  57.254  1.00  0.00     0.026 A 
ENDROOT
BRANCH   1   7
HETATM    7  C   UNL     1       8.616  29.665  58.355  1.00  0.00     0.161 C 
BRANCH   7   8
HETATM    8  N   UNL     1       7.905  30.422  59.359  1.00  0.00    -0.353 N 
HETATM    9  C   UNL     1       8.238  31.721  59.671  1.00  0.00     0.251 C 
HETATM   10  O   UNL     1       9.139  32.353  59.131  1.00  0.00    -0.268 OA
HETATM   11  H   UNL     1       7.120  29.980  59.819  1.00  0.00     0.163 HD
BRANCH   9  12
HETATM   12  C   UNL     1       7.419  32.352  60.735  1.00  0.00     0.032 A 
HETATM   13  C   UNL     1       7.928  32.526  62.028  1.00  0.00     0.024 A 
HETATM   14  C   UNL     1       7.149  33.136  63.028  1.00  0.00    -0.050 A 
HETATM   15  C   UNL     1       7.746  33.314  64.401  1.00  0.00     0.049 C 
HETATM   16  C   UNL     1       5.851  33.585  62.708  1.00  0.00    -0.017 A 
HETATM   17  C   UNL     1       5.356  33.408  61.404  1.00  0.00     0.014 A 
HETATM   18  C   UNL     1       6.137  32.802  60.418  1.00  0.00     0.018 A 
BRANCH  16  19
HETATM   19  C   UNL     1       5.006  34.249  63.681  1.00  0.00     0.011 A 
HETATM   20  C   UNL     1       4.668  35.610  63.842  1.00  0.00     0.152 A 
HETATM   21  N   UNL     1       3.852  35.814  64.878  1.00  0.00    -0.187 NA
HETATM   22  N   UNL     1       3.658  34.582  65.377  1.00  0.00    -0.289 N 
HETATM   23  H   UNL     1       3.057  34.481  66.190  1.00  0.00     0.188 HD
HETATM   24  C   UNL     1       4.324  33.607  64.691  1.00  0.00     0.123 A 
ENDBRANCH  16  19
ENDBRANCH   9  12
ENDBRANCH   7   8
ENDBRANCH   1   7
BRANCH   5  25
HETATM   25  C   UNL     1       7.855  25.134  56.261  1.00  0.00     0.251 C 
HETATM   26  O   UNL     1       8.403  24.363  57.049  1.00  0.00    -0.268 OA
HETATM   27  N   UNL     1       7.687  24.786  54.936  1.00  0.00    -0.355 N 
HETATM   28  H   UNL     1       7.416  25.525  54.290  1.00  0.00     0.162 HD
BRANCH  27  29
HETATM   29  C   UNL     1       8.335  23.620  54.348  1.00  0.00     0.155 C 
BRANCH  29  30
HETATM   30  C   UNL     1       7.468  22.335  54.335  1.00  0.00     0.203 C 
HETATM   31  C   UNL     1       7.824  21.397  53.186  1.00  0.00     0.036 C 
HETATM   32  C   UNL     1       8.926  20.521  53.757  1.00  0.00     0.029 C 
HETATM   33  C   UNL     1       8.455  20.245  55.170  1.00  0.00     0.233 C 
HETATM   34  N   UNL     1       7.723  21.485  55.556  1.00  0.00    -0.069 N 
HETATM   35  H   UNL     1       8.281  22.033  56.250  1.00  0.00     0.277 HD
HETATM   36  H   UNL     1       6.853  21.277  56.058  1.00  0.00     0.277 HD
ENDBRANCH  29  30
ENDBRANCH  27  29
ENDBRANCH   5  25
TORSDOF 7
ENDMDL
MODEL 5
REMARK VINA RESULT:     -10.0      2.100     11.759
REMARK  7 active torsions:
REMARK  status: ('A' for Active; 'I' for Inactive)
REMARK    1  A    between atoms: C_4  and  C_14 
REMARK    2  A    between atoms: C_7  and  C_8 
REMARK       I    between atoms: C_14  and  N_16 
REMARK    3  A    between atoms: N_16  and  C_17 
REMARK    4  A    between atoms: C_17  and  C_18 
REMARK    5  A    between atoms: C_22  and  C_24 
REMARK       I    between atoms: C_24  and  N_26 
REMARK    6  A    between atoms: N_26  and  C_27 
REMARK    7  A    between atoms: C_27  and  C_28 
ROOT
HETATM    1  C   UNL     1       7.596  31.163  59.793  1.00  0.00    -0.040 A 
HETATM    2  C   UNL     1       8.781  30.519  60.171  1.00  0.00     0.009 A 
HETATM    3  C   UNL     1       9.384  30.812  61.394  1.00  0.00     0.002 A 
HETATM    4  C   UNL     1       8.797  31.734  62.262  1.00  0.00     0.017 A 
HETATM    5  C   UNL     1       7.601  32.370  61.910  1.00  0.00     0.032 A 
HETATM    6  C   UNL     1       7.018  32.097  60.668  1.00  0.00     0.026 A 
ENDROOT
BRANCH   1   7
HETATM    7  C   UNL     1       6.909  30.826  58.493  1.00  0.00     0.161 C 
BRANCH   7   8
HETATM    8  N   UNL     1       7.218  29.473  58.089  1.00  0.00    -0.353 N 
HETATM    9  C   UNL     1       6.464  28.796  57.158  1.00  0.00     0.251 C 
HETATM   10  O   UNL     1       5.490  29.266  56.582  1.00  0.00    -0.268 OA
HETATM   11  H   UNL     1       8.034  29.033  58.492  1.00  0.00     0.163 HD
BRANCH   9  12
HETATM   12  C   UNL     1       6.906  27.411  56.865  1.00  0.00     0.032 A 
HETATM   13  C   UNL     1       6.290  26.655  55.860  1.00  0.00     0.024 A 
HETATM   14  C   UNL     1       6.723  25.346  55.580  1.00  0.00    -0.050 A 
HETATM   15  C   UNL     1       6.038  24.577  54.479  1.00  0.00     0.049 C 
HETATM   16  C   UNL     1       7.799  24.807  56.318  1.00  0.00    -0.017 A 
HETATM   17  C   UNL     1       8.410  25.580  57.320  1.00  0.00     0.014 A 
HETATM   18  C   UNL     1       7.974  26.878  57.589  1.00  0.00     0.018 A 
BRANCH  16  19
HETATM   19  C   UNL     1       8.315  23.477  56.061  1.00  0.00     0.011 A 
HETATM   20  C   UNL     1       9.107  22.976  55.006  1.00  0.00     0.152 A 
HETATM   21  N   UNL     1       9.371  21.675  55.138  1.00  0.00    -0.187 NA
HETATM   22  N   UNL     1       8.755  21.341  56.285  1.00  0.00    -0.289 N 
HETATM   23  H   UNL     1       8.816  20.378  56.601  1.00  0.00     0.188 HD
HETATM   24  C   UNL     1       8.112  22.388  56.880  1.00  0.00     0.123 A 
ENDBRANCH  16  19
ENDBRANCH   9  12
ENDBRANCH   7   8
ENDBRANCH   1   7
BRANCH   5  25
HETATM   25  C   UNL     1       6.996  33.327  62.879  1.00  0.00     0.251 C 
HETATM   26  O   UNL     1       6.409  34.338  62.495  1.00  0.00    -0.268 OA
HETATM   27  N   UNL     1       7.118  33.049  64.225  1.00  0.00    -0.355 N 
HETATM   28  H   UNL     1       7.776  32.320  64.494  1.00  0.00     0.162 HD
BRANCH  27  29
HETATM   29  C   UNL     1       6.775  34.022  65.256  1.00  0.00     0.155 C 
BRANCH  29  30
HETATM   30  C   UNL     1       5.361  33.846  65.866  1.00  0.00     0.203 C 
HETATM   31  C   UNL     1       4.774  35.158  66.379  1.00  0.00     0.036 C 
HETATM   32  C   UNL     1       4.064  35.738  65.168  1.00  0.00     0.029 C 
HETATM   33  C   UNL     1       3.413  34.527  64.533  1.00  0.00     0.233 C 
HETATM   34  N   UNL     1       4.359  33.413  64.824  1.00  0.00    -0.069 N 
HETATM   35  H   UNL     1       4.864  33.130  63.954  1.00  0.00     0.277 HD
HETATM   36  H   UNL     1       3.868  32.556  65.106  1.00  0.00     0.277 HD
ENDBRANCH  29  30
ENDBRANCH  27  29
ENDBRANCH   5  25
TORSDOF 7
ENDMDL
MODEL 6
REMARK VINA RESULT:      -9.7      2.940     12.410
REMARK  7 active torsions:
REMARK  status: ('A' for Active; 'I' for Inactive)
REMARK    1  A    between atoms: C_4  and  C_14 
REMARK    2  A    between atoms: C_7  and  C_8 
REMARK       I    between atoms: C_14  and  N_16 
REMARK    3  A    between atoms: N_16  and  C_17 
REMARK    4  A    between atoms: C_17  and  C_18 
REMARK    5  A    between atoms: C_22  and  C_24 
REMARK       I    between atoms: C_24  and  N_26 
REMARK    6  A    between atoms: N_26  and  C_27 
REMARK    7  A    between atoms: C_27  and  C_28 
ROOT
HETATM    1  C   UNL     1       6.126  33.135  62.117  1.00  0.00    -0.040 A 
HETATM    2  C   UNL     1       7.465  32.725  62.113  1.00  0.00     0.009 A 
HETATM    3  C   UNL     1       8.204  32.717  63.296  1.00  0.00     0.002 A 
HETATM    4  C   UNL     1       7.606  33.097  64.499  1.00  0.00     0.017 A 
HETATM    5  C   UNL     1       6.262  33.487  64.525  1.00  0.00     0.032 A 
HETATM    6  C   UNL     1       5.535  33.525  63.330  1.00  0.00     0.026 A 
ENDROOT
BRANCH   1   7
HETATM    7  C   UNL     1       5.301  33.108  60.855  1.00  0.00     0.161 C 
BRANCH   7   8
HETATM    8  N   UNL     1       5.537  31.888  60.117  1.00  0.00    -0.353 N 
HETATM    9  C   UNL     1       5.961  31.893  58.808  1.00  0.00     0.251 C 
HETATM   10  O   UNL     1       6.189  32.907  58.158  1.00  0.00    -0.268 OA
HETATM   11  H   UNL     1       5.410  31.009  60.601  1.00  0.00     0.163 HD
BRANCH   9  12
HETATM   12  C   UNL     1       6.143  30.557  58.191  1.00  0.00     0.032 A 
HETATM   13  C   UNL     1       5.125  29.970  57.429  1.00  0.00     0.024 A 
HETATM   14  C   UNL     1       5.309  28.707  56.838  1.00  0.00    -0.050 A 
HETATM   15  C   UNL     1       4.189  28.124  56.015  1.00  0.00     0.049 C 
HETATM   16  C   UNL     1       6.542  28.043  57.010  1.00  0.00    -0.017 A 
HETATM   17  C   UNL     1       7.557  28.647  57.772  1.00  0.00     0.014 A 
HETATM   18  C   UNL     1       7.364  29.901  58.354  1.00  0.00     0.018 A 
BRANCH  16  19
HETATM   19  C   UNL     1       6.811  26.755  56.403  1.00  0.00     0.011 A 
HETATM   20  C   UNL     1       7.384  26.415  55.159  1.00  0.00     0.152 A 
HETATM   21  N   UNL     1       7.456  25.096  54.971  1.00  0.00    -0.187 NA
HETATM   22  N   UNL     1       6.935  24.587  56.101  1.00  0.00    -0.289 N 
HETATM   23  H   UNL     1       6.882  23.577  56.193  1.00  0.00     0.188 HD
HETATM   24  C   UNL     1       6.538  25.540  56.993  1.00  0.00     0.123 A 
ENDBRANCH  16  19
ENDBRANCH   9  12
ENDBRANCH   7   8
ENDBRANCH   1   7
BRANCH   5  25
HETATM   25  C   UNL     1       5.658  33.858  65.835  1.00  0.00     0.251 C 
HETATM   26  O   UNL     1       4.438  33.857  65.999  1.00  0.00    -0.268 OA
HETATM   27  N   UNL     1       6.508  34.209  66.864  1.00  0.00    -0.355 N 
HETATM   28  H   UNL     1       7.481  34.388  66.625  1.00  0.00     0.162 HD
BRANCH  27  29
HETATM   29  C   UNL     1       6.026  34.809  68.103  1.00  0.00     0.155 C 
BRANCH  29  30
HETATM   30  C   UNL     1       6.725  34.293  69.387  1.00  0.00     0.203 C 
HETATM   31  C   UNL     1       8.145  34.830  69.539  1.00  0.00     0.036 C 
HETATM   32  C   UNL     1       7.964  36.137  70.290  1.00  0.00     0.029 C 
HETATM   33  C   UNL     1       6.901  35.805  71.316  1.00  0.00     0.233 C 
HETATM   34  N   UNL     1       6.038  34.800  70.632  1.00  0.00    -0.069 N 
HETATM   35  H   UNL     1       5.121  35.228  70.371  1.00  0.00     0.277 HD
HETATM   36  H   UNL     1       5.775  34.030  71.257  1.00  0.00     0.277 HD
ENDBRANCH  29  30
ENDBRANCH  27  29
ENDBRANCH   5  25
TORSDOF 7
ENDMDL
MODEL 7
REMARK VINA RESULT:      -9.4      4.138     11.677
REMARK  7 active torsions:
REMARK  status: ('A' for Active; 'I' for Inactive)
REMARK    1  A    between atoms: C_4  and  C_14 
REMARK    2  A    between atoms: C_7  and  C_8 
REMARK       I    between atoms: C_14  and  N_16 
REMARK    3  A    between atoms: N_16  and  C_17 
REMARK    4  A    between atoms: C_17  and  C_18 
REMARK    5  A    between atoms: C_22  and  C_24 
REMARK       I    between atoms: C_24  and  N_26 
REMARK    6  A    between atoms: N_26  and  C_27 
REMARK    7  A    between atoms: C_27  and  C_28 
ROOT
HETATM    1  C   UNL     1       8.175  28.603  57.378  1.00  0.00    -0.040 A 
HETATM    2  C   UNL     1       9.326  28.639  56.581  1.00  0.00     0.009 A 
HETATM    3  C   UNL     1      10.317  29.592  56.814  1.00  0.00     0.002 A 
HETATM    4  C   UNL     1      10.179  30.506  57.860  1.00  0.00     0.017 A 
HETATM    5  C   UNL     1       9.046  30.470  58.681  1.00  0.00     0.032 A 
HETATM    6  C   UNL     1       8.040  29.533  58.422  1.00  0.00     0.026 A 
ENDROOT
BRANCH   1   7
HETATM    7  C   UNL     1       7.115  27.552  57.167  1.00  0.00     0.161 C 
BRANCH   7   8
HETATM    8  N   UNL     1       6.751  27.469  55.771  1.00  0.00    -0.353 N 
HETATM    9  C   UNL     1       5.484  27.772  55.324  1.00  0.00     0.251 C 
HETATM   10  O   UNL     1       4.567  28.146  56.046  1.00  0.00    -0.268 OA
HETATM   11  H   UNL     1       7.468  27.206  55.108  1.00  0.00     0.163 HD
BRANCH   9  12
HETATM   12  C   UNL     1       5.270  27.623  53.864  1.00  0.00     0.032 A 
HETATM   13  C   UNL     1       4.271  28.350  53.205  1.00  0.00     0.024 A 
HETATM   14  C   UNL     1       4.082  28.211  51.817  1.00  0.00    -0.050 A 
HETATM   15  C   UNL     1       3.004  29.026  51.150  1.00  0.00     0.049 C 
HETATM   16  C   UNL     1       4.923  27.339  51.094  1.00  0.00    -0.017 A 
HETATM   17  C   UNL     1       5.925  26.620  51.770  1.00  0.00     0.014 A 
HETATM   18  C   UNL     1       6.104  26.766  53.147  1.00  0.00     0.018 A 
BRANCH  16  19
HETATM   19  C   UNL     1       4.804  27.172  49.660  1.00  0.00     0.011 A 
HETATM   20  C   UNL     1       5.311  27.940  48.590  1.00  0.00     0.152 A 
HETATM   21  N   UNL     1       4.971  27.444  47.398  1.00  0.00    -0.187 NA
HETATM   22  N   UNL     1       4.251  26.351  47.703  1.00  0.00    -0.289 N 
HETATM   23  H   UNL     1       3.875  25.795  46.941  1.00  0.00     0.188 HD
HETATM   24  C   UNL     1       4.126  26.141  49.046  1.00  0.00     0.123 A 
ENDBRANCH  16  19
ENDBRANCH   9  12
ENDBRANCH   7   8
ENDBRANCH   1   7
BRANCH   5  25
HETATM   25  C   UNL     1       8.953  31.447  59.802  1.00  0.00     0.251 C 
HETATM   26  O   UNL     1       9.076  32.656  59.608  1.00  0.00    -0.268 OA
HETATM   27  N   UNL     1       8.729  30.955  61.072  1.00  0.00    -0.355 N 
HETATM   28  H   UNL     1       8.835  29.952  61.210  1.00  0.00     0.162 HD
BRANCH  27  29
HETATM   29  C   UNL     1       8.852  31.788  62.263  1.00  0.00     0.155 C 
BRANCH  29  30
HETATM   30  C   UNL     1       7.539  31.968  63.066  1.00  0.00     0.203 C 
HETATM   31  C   UNL     1       7.119  33.430  63.186  1.00  0.00     0.036 C 
HETATM   32  C   UNL     1       6.271  33.669  61.949  1.00  0.00     0.029 C 
HETATM   33  C   UNL     1       5.458  32.397  61.832  1.00  0.00     0.233 C 
HETATM   34  N   UNL     1       6.366  31.337  62.355  1.00  0.00    -0.069 N 
HETATM   35  H   UNL     1       6.716  30.741  61.571  1.00  0.00     0.277 HD
HETATM   36  H   UNL     1       5.872  30.672  62.961  1.00  0.00     0.277 HD
ENDBRANCH  29  30
ENDBRANCH  27  29
ENDBRANCH   5  25
TORSDOF 7
ENDMDL
MODEL 8
REMARK VINA RESULT:      -9.3      8.806     13.301
REMARK  7 active torsions:
REMARK  status: ('A' for Active; 'I' for Inactive)
REMARK    1  A    between atoms: C_4  and  C_14 
REMARK    2  A    between atoms: C_7  and  C_8 
REMARK       I    between atoms: C_14  and  N_16 
REMARK    3  A    between atoms: N_16  and  C_17 
REMARK    4  A    between atoms: C_17  and  C_18 
REMARK    5  A    between atoms: C_22  and  C_24 
REMARK       I    between atoms: C_24  and  N_26 
REMARK    6  A    between atoms: N_26  and  C_27 
REMARK    7  A    between atoms: C_27  and  C_28 
ROOT
HETATM    1  C   UNL     1       4.116  27.145  48.958  1.00  0.00    -0.040 A 
HETATM    2  C   UNL     1       4.101  25.799  48.570  1.00  0.00     0.009 A 
HETATM    3  C   UNL     1       3.143  25.335  47.668  1.00  0.00     0.002 A 
HETATM    4  C   UNL     1       2.205  26.215  47.128  1.00  0.00     0.017 A 
HETATM    5  C   UNL     1       2.219  27.568  47.487  1.00  0.00     0.032 A 
HETATM    6  C   UNL     1       3.161  28.021  48.417  1.00  0.00     0.026 A 
ENDROOT
BRANCH   1   7
HETATM    7  C   UNL     1       5.171  27.671  49.898  1.00  0.00     0.161 C 
BRANCH   7   8
HETATM    8  N   UNL     1       5.728  26.599  50.691  1.00  0.00    -0.353 N 
HETATM    9  C   UNL     1       6.132  26.784  51.994  1.00  0.00     0.251 C 
HETATM   10  O   UNL     1       6.049  27.845  52.600  1.00  0.00    -0.268 OA
HETATM   11  H   UNL     1       5.790  25.681  50.270  1.00  0.00     0.163 HD
BRANCH   9  12
HETATM   12  C   UNL     1       6.695  25.586  52.663  1.00  0.00     0.032 A 
HETATM   13  C   UNL     1       6.514  25.376  54.036  1.00  0.00     0.024 A 
HETATM   14  C   UNL     1       7.041  24.231  54.661  1.00  0.00    -0.050 A 
HETATM   15  C   UNL     1       6.807  24.041  56.138  1.00  0.00     0.049 C 
HETATM   16  C   UNL     1       7.743  23.286  53.883  1.00  0.00    -0.017 A 
HETATM   17  C   UNL     1       7.912  23.508  52.505  1.00  0.00     0.014 A 
HETATM   18  C   UNL     1       7.384  24.648  51.894  1.00  0.00     0.018 A 
BRANCH  16  19
HETATM   19  C   UNL     1       8.285  22.071  54.456  1.00  0.00     0.011 A 
HETATM   20  C   UNL     1       9.246  21.871  55.471  1.00  0.00     0.152 A 
HETATM   21  N   UNL     1       9.475  20.578  55.711  1.00  0.00    -0.187 NA
HETATM   22  N   UNL     1       8.653  19.946  54.854  1.00  0.00    -0.289 N 
HETATM   23  H   UNL     1       8.650  18.931  54.851  1.00  0.00     0.188 HD
HETATM   24  C   UNL     1       7.914  20.797  54.084  1.00  0.00     0.123 A 
ENDBRANCH  16  19
ENDBRANCH   9  12
ENDBRANCH   7   8
ENDBRANCH   1   7
BRANCH   5  25
HETATM   25  C   UNL     1       1.216  28.476  46.865  1.00  0.00     0.251 C 
HETATM   26  O   UNL     1       1.391  29.694  46.831  1.00  0.00    -0.268 OA
HETATM   27  N   UNL     1       0.075  27.912  46.330  1.00  0.00    -0.355 N 
HETATM   28  H   UNL     1      -0.116  26.939  46.560  1.00  0.00     0.162 HD
BRANCH  27  29
HETATM   29  C   UNL     1      -1.069  28.715  45.912  1.00  0.00     0.155 C 
BRANCH  29  30
HETATM   30  C   UNL     1      -1.056  29.131  44.419  1.00  0.00     0.203 C 
HETATM   31  C   UNL     1      -2.397  29.690  43.953  1.00  0.00     0.036 C 
HETATM   32  C   UNL     1      -2.299  31.175  44.258  1.00  0.00     0.029 C 
HETATM   33  C   UNL     1      -0.877  31.519  43.867  1.00  0.00     0.233 C 
HETATM   34  N   UNL     1      -0.107  30.280  44.174  1.00  0.00    -0.069 N 
HETATM   35  H   UNL     1       0.488  30.424  45.021  1.00  0.00     0.277 HD
HETATM   36  H   UNL     1       0.571  30.057  43.437  1.00  0.00     0.277 HD
ENDBRANCH  29  30
ENDBRANCH  27  29
ENDBRANCH   5  25
TORSDOF 7
ENDMDL
MODEL 9
REMARK VINA RESULT:      -9.2      1.451      2.016
REMARK  7 active torsions:
REMARK  status: ('A' for Active; 'I' for Inactive)
REMARK    1  A    between atoms: C_4  and  C_14 
REMARK    2  A    between atoms: C_7  and  C_8 
REMARK       I    between atoms: C_14  and  N_16 
REMARK    3  A    between atoms: N_16  and  C_17 
REMARK    4  A    between atoms: C_17  and  C_18 
REMARK    5  A    between atoms: C_22  and  C_24 
REMARK       I    between atoms: C_24  and  N_26 
REMARK    6  A    between atoms: N_26  and  C_27 
REMARK    7  A    between atoms: C_27  and  C_28 
ROOT
HETATM    1  C   UNL     1       6.174  29.261  57.322  1.00  0.00    -0.040 A 
HETATM    2  C   UNL     1       7.535  29.456  57.588  1.00  0.00     0.009 A 
HETATM    3  C   UNL     1       8.449  28.423  57.381  1.00  0.00     0.002 A 
HETATM    4  C   UNL     1       8.016  27.192  56.886  1.00  0.00     0.017 A 
HETATM    5  C   UNL     1       6.663  26.987  56.594  1.00  0.00     0.032 A 
HETATM    6  C   UNL     1       5.745  28.016  56.834  1.00  0.00     0.026 A 
ENDROOT
BRANCH   1   7
HETATM    7  C   UNL     1       5.179  30.381  57.500  1.00  0.00     0.161 C 
BRANCH   7   8
HETATM    8  N   UNL     1       5.247  30.916  58.840  1.00  0.00    -0.353 N 
HETATM    9  C   UNL     1       5.772  32.160  59.108  1.00  0.00     0.251 C 
HETATM   10  O   UNL     1       6.209  32.924  58.256  1.00  0.00    -0.268 OA
HETATM   11  H   UNL     1       4.867  30.357  59.593  1.00  0.00     0.163 HD
BRANCH   9  12
HETATM   12  C   UNL     1       5.781  32.553  60.538  1.00  0.00     0.032 A 
HETATM   13  C   UNL     1       4.627  33.049  61.156  1.00  0.00     0.024 A 
HETATM   14  C   UNL     1       4.640  33.409  62.516  1.00  0.00    -0.050 A 
HETATM   15  C   UNL     1       3.369  33.924  63.141  1.00  0.00     0.049 C 
HETATM   16  C   UNL     1       5.831  33.250  63.256  1.00  0.00    -0.017 A 
HETATM   17  C   UNL     1       6.981  32.746  62.623  1.00  0.00     0.014 A 
HETATM   18  C   UNL     1       6.956  32.391  61.273  1.00  0.00     0.018 A 
BRANCH  16  19
HETATM   19  C   UNL     1       5.907  33.572  64.667  1.00  0.00     0.011 A 
HETATM   20  C   UNL     1       4.894  33.778  65.628  1.00  0.00     0.152 A 
HETATM   21  N   UNL     1       5.386  34.062  66.836  1.00  0.00    -0.187 NA
HETATM   22  N   UNL     1       6.716  34.029  66.652  1.00  0.00    -0.289 N 
HETATM   23  H   UNL     1       7.317  34.218  67.449  1.00  0.00     0.188 HD
HETATM   24  C   UNL     1       7.080  33.735  65.370  1.00  0.00     0.123 A 
ENDBRANCH  16  19
ENDBRANCH   9  12
ENDBRANCH   7   8
ENDBRANCH   1   7
BRANCH   5  25
HETATM   25  C   UNL     1       6.249  25.667  56.042  1.00  0.00     0.251 C 
HETATM   26  O   UNL     1       5.360  25.002  56.573  1.00  0.00    -0.268 OA
HETATM   27  N   UNL     1       6.898  25.205  54.914  1.00  0.00    -0.355 N 
HETATM   28  H   UNL     1       7.749  25.687  54.634  1.00  0.00     0.162 HD
BRANCH  27  29
HETATM   29  C   UNL     1       6.741  23.838  54.430  1.00  0.00     0.155 C 
BRANCH  29  30
HETATM   30  C   UNL     1       8.070  23.068  54.222  1.00  0.00     0.203 C 
HETATM   31  C   UNL     1       8.522  22.326  55.476  1.00  0.00     0.036 C 
HETATM   32  C   UNL     1       7.843  20.971  55.363  1.00  0.00     0.029 C 
HETATM   33  C   UNL     1       7.978  20.635  53.893  1.00  0.00     0.233 C 
HETATM   34  N   UNL     1       7.913  21.958  53.210  1.00  0.00    -0.069 N 
HETATM   35  H   UNL     1       6.998  22.066  52.717  1.00  0.00     0.277 HD
HETATM   36  H   UNL     1       8.604  22.036  52.456  1.00  0.00     0.277 HD
ENDBRANCH  29  30
ENDBRANCH  27  29
ENDBRANCH   5  25
TORSDOF 7
ENDMDL
MODEL 10
REMARK VINA RESULT:      -9.2      2.820     11.379
REMARK  7 active torsions:
REMARK  status: ('A' for Active; 'I' for Inactive)
REMARK    1  A    between atoms: C_4  and  C_14 
REMARK    2  A    between atoms: C_7  and  C_8 
REMARK       I    between atoms: C_14  and  N_16 
REMARK    3  A    between atoms: N_16  and  C_17 
REMARK    4  A    between atoms: C_17  and  C_18 
REMARK    5  A    between atoms: C_22  and  C_24 
REMARK       I    between atoms: C_24  and  N_26 
REMARK    6  A    between atoms: N_26  and  C_27 
REMARK    7  A    between atoms: C_27  and  C_28 
ROOT
HETATM    1  C   UNL     1       8.647  31.373  60.343  1.00  0.00    -0.040 A 
HETATM    2  C   UNL     1       9.472  30.659  61.221  1.00  0.00     0.009 A 
HETATM    3  C   UNL     1       9.080  30.449  62.543  1.00  0.00     0.002 A 
HETATM    4  C   UNL     1       7.851  30.930  62.995  1.00  0.00     0.017 A 
HETATM    5  C   UNL     1       7.004  31.625  62.125  1.00  0.00     0.032 A 
HETATM    6  C   UNL     1       7.416  31.862  60.809  1.00  0.00     0.026 A 
ENDROOT
BRANCH   1   7
HETATM    7  C   UNL     1       9.036  31.572  58.900  1.00  0.00     0.161 C 
BRANCH   7   8
HETATM    8  N   UNL     1       8.379  30.599  58.057  1.00  0.00    -0.353 N 
HETATM    9  C   UNL     1       9.075  29.610  57.398  1.00  0.00     0.251 C 
HETATM   10  O   UNL     1      10.287  29.451  57.472  1.00  0.00    -0.268 OA
HETATM   11  H   UNL     1       7.372  30.642  57.979  1.00  0.00     0.163 HD
BRANCH   9  12
HETATM   12  C   UNL     1       8.253  28.702  56.561  1.00  0.00     0.032 A 
HETATM   13  C   UNL     1       7.367  27.789  57.146  1.00  0.00     0.024 A 
HETATM   14  C   UNL     1       6.582  26.938  56.345  1.00  0.00    -0.050 A 
HETATM   15  C   UNL     1       5.633  25.982  57.020  1.00  0.00     0.049 C 
HETATM   16  C   UNL     1       6.689  27.028  54.941  1.00  0.00    -0.017 A 
HETATM   17  C   UNL     1       7.579  27.954  54.369  1.00  0.00     0.014 A 
HETATM   18  C   UNL     1       8.352  28.793  55.173  1.00  0.00     0.018 A 
BRANCH  16  19
HETATM   19  C   UNL     1       5.889  26.205  54.057  1.00  0.00     0.011 A 
HETATM   20  C   UNL     1       6.089  24.894  53.574  1.00  0.00     0.152 A 
HETATM   21  N   UNL     1       5.106  24.490  52.767  1.00  0.00    -0.187 NA
HETATM   22  N   UNL     1       4.268  25.540  52.738  1.00  0.00    -0.289 N 
HETATM   23  H   UNL     1       3.426  25.468  52.176  1.00  0.00     0.188 HD
HETATM   24  C   UNL     1       4.689  26.592  53.500  1.00  0.00     0.123 A 
ENDBRANCH  16  19
ENDBRANCH   9  12
ENDBRANCH   7   8
ENDBRANCH   1   7
BRANCH   5  25
HETATM   25  C   UNL     1       5.689  32.097  62.643  1.00  0.00     0.251 C 
HETATM   26  O   UNL     1       4.980  31.372  63.342  1.00  0.00    -0.268 OA
HETATM   27  N   UNL     1       5.283  33.374  62.313  1.00  0.00    -0.355 N 
HETATM   28  H   UNL     1       5.800  33.853  61.579  1.00  0.00     0.162 HD
BRANCH  27  29
HETATM   29  C   UNL     1       3.928  33.851  62.565  1.00  0.00     0.155 C 
BRANCH  29  30
HETATM   30  C   UNL     1       3.805  34.864  63.731  1.00  0.00     0.203 C 
HETATM   31  C   UNL     1       5.160  35.372  64.214  1.00  0.00     0.036 C 
HETATM   32  C   UNL     1       5.432  36.579  63.334  1.00  0.00     0.029 C 
HETATM   33  C   UNL     1       4.081  37.256  63.242  1.00  0.00     0.233 C 
HETATM   34  N   UNL     1       3.107  36.129  63.292  1.00  0.00    -0.069 N 
HETATM   35  H   UNL     1       2.677  35.979  62.351  1.00  0.00     0.277 HD
HETATM   36  H   UNL     1       2.303  36.343  63.893  1.00  0.00     0.277 HD
ENDBRANCH  29  30
ENDBRANCH  27  29
ENDBRANCH   5  25
TORSDOF 7
ENDMDL
