MODEL 1
REMARK VINA RESULT:      -8.8      0.000      0.000
REMARK  3 active torsions:
REMARK  status: ('A' for Active; 'I' for Inactive)
REMARK    1  A    between atoms: C_5  and  N_6 
REMARK       I    between atoms: N_6  and  C_7 
REMARK    2  A    between atoms: C_7  and  C_8 
REMARK    3  A    between atoms: C_8  and  C_9 
ROOT
HETATM    1  C   UNL     1       6.694  27.377  56.084  1.00  0.00     0.286 C 
HETATM    2  N   UNL     1       8.177  27.724  56.101  1.00  0.00    -0.056 N 
HETATM    3  H   UNL     1       8.508  27.495  57.063  1.00  0.00     0.278 HD
HETATM    4  H   UNL     1       8.700  27.111  55.467  1.00  0.00     0.278 HD
HETATM    5  C   UNL     1       8.422  29.179  55.788  1.00  0.00     0.209 C 
HETATM    6  C   UNL     1       7.678  30.055  56.830  1.00  0.00     0.115 C 
HETATM    7  N   UNL     1       6.280  29.651  57.000  1.00  0.00    -0.353 N 
HETATM    8  C   UNL     1       5.837  28.352  56.921  1.00  0.00     0.249 C 
HETATM    9  O   UNL     1       4.757  28.039  57.408  1.00  0.00    -0.271 OA
HETATM   10  C   UNL     1       9.926  29.443  55.746  1.00  0.00     0.035 C 
HETATM   11  C   UNL     1      10.577  29.445  57.126  1.00  0.00     0.002 C 
HETATM   12  C   UNL     1       9.864  30.401  58.073  1.00  0.00     0.002 C 
HETATM   13  C   UNL     1       8.381  30.066  58.195  1.00  0.00     0.027 C 
HETATM   14  H   UNL     1       5.672  30.253  57.551  1.00  0.00     0.163 HD
ENDROOT
BRANCH   1  15
HETATM   15  C   UNL     1       6.452  25.917  56.486  1.00  0.00     0.146 C 
BRANCH  15  16
HETATM   16  C   UNL     1       7.584  25.394  57.332  1.00  0.00     0.224 C 
HETATM   17  N   UNL     1       8.263  24.262  57.020  1.00  0.00    -0.327 N 
HETATM   18  H   UNL     1       8.906  23.992  57.760  1.00  0.00     0.169 HD
HETATM   19  O   UNL     1       7.921  26.048  58.330  1.00  0.00    -0.273 OA
BRANCH  17  20
HETATM   20  C   UNL     1       8.237  23.386  55.916  1.00  0.00     0.034 A 
HETATM   21  C   UNL     1       8.366  23.761  54.580  1.00  0.00     0.030 A 
HETATM   22  C   UNL     1       8.328  22.800  53.559  1.00  0.00     0.009 A 
HETATM   23  C   UNL     1       8.163  21.445  53.857  1.00  0.00    -0.062 A 
HETATM   24  C   UNL     1       8.149  20.424  52.758  1.00  0.00     0.048 C 
HETATM   25  C   UNL     1       8.073  21.060  55.195  1.00  0.00     0.009 A 
HETATM   26  C   UNL     1       8.111  22.021  56.211  1.00  0.00     0.030 A 
ENDBRANCH  17  20
ENDBRANCH  15  16
ENDBRANCH   1  15
TORSDOF 3
ENDMDL
MODEL 2
REMARK VINA RESULT:      -8.6      1.670      6.990
REMARK  3 active torsions:
REMARK  status: ('A' for Active; 'I' for Inactive)
REMARK    1  A    between atoms: C_5  and  N_6 
REMARK       I    between atoms: N_6  and  C_7 
REMARK    2  A    between atoms: C_7  and  C_8 
REMARK    3  A    between atoms: C_8  and  C_9 
ROOT
HETATM    1  C   UNL     1       7.075  24.866  55.086  1.00  0.00     0.286 C 
HETATM    2  N   UNL     1       7.056  23.558  54.306  1.00  0.00    -0.056 N 
HETATM    3  H   UNL     1       6.444  22.914  54.852  1.00  0.00     0.278 HD
HETATM    4  H   UNL     1       6.597  23.684  53.397  1.00  0.00     0.278 HD
HETATM    5  C   UNL     1       8.437  22.972  54.150  1.00  0.00     0.209 C 
HETATM    6  C   UNL     1       9.045  22.723  55.556  1.00  0.00     0.115 C 
HETATM    7  N   UNL     1       8.928  23.894  56.427  1.00  0.00    -0.353 N 
HETATM    8  C   UNL     1       7.868  24.769  56.408  1.00  0.00     0.249 C 
HETATM    9  O   UNL     1       7.654  25.501  57.367  1.00  0.00    -0.271 OA
HETATM   10  C   UNL     1       8.359  21.708  53.297  1.00  0.00     0.035 C 
HETATM   11  C   UNL     1       7.743  20.520  54.032  1.00  0.00     0.002 C 
HETATM   12  C   UNL     1       8.449  20.263  55.358  1.00  0.00     0.002 C 
HETATM   13  C   UNL     1       8.431  21.499  56.251  1.00  0.00     0.027 C 
HETATM   14  H   UNL     1       9.424  23.880  57.316  1.00  0.00     0.163 HD
ENDROOT
BRANCH   1  15
HETATM   15  C   UNL     1       5.658  25.408  55.311  1.00  0.00     0.146 C 
BRANCH  15  16
HETATM   16  C   UNL     1       5.360  26.550  54.374  1.00  0.00     0.224 C 
HETATM   17  N   UNL     1       5.775  27.819  54.618  1.00  0.00    -0.327 N 
HETATM   18  H   UNL     1       5.383  28.479  53.951  1.00  0.00     0.169 HD
HETATM   19  O   UNL     1       4.742  26.305  53.328  1.00  0.00    -0.273 OA
BRANCH  17  20
HETATM   20  C   UNL     1       6.596  28.400  55.606  1.00  0.00     0.034 A 
HETATM   21  C   UNL     1       6.190  28.757  56.891  1.00  0.00     0.030 A 
HETATM   22  C   UNL     1       7.097  29.327  57.795  1.00  0.00     0.009 A 
HETATM   23  C   UNL     1       8.428  29.550  57.432  1.00  0.00    -0.062 A 
HETATM   24  C   UNL     1       9.394  30.138  58.416  1.00  0.00     0.048 C 
HETATM   25  C   UNL     1       8.849  29.158  56.160  1.00  0.00     0.009 A 
HETATM   26  C   UNL     1       7.942  28.589  55.260  1.00  0.00     0.030 A 
ENDBRANCH  17  20
ENDBRANCH  15  16
ENDBRANCH   1  15
TORSDOF 3
ENDMDL
MODEL 3
REMARK VINA RESULT:      -8.4      2.539      4.167
REMARK  3 active torsions:
REMARK  status: ('A' for Active; 'I' for Inactive)
REMARK    1  A    between atoms: C_5  and  N_6 
REMARK       I    between atoms: N_6  and  C_7 
REMARK    2  A    between atoms: C_7  and  C_8 
REMARK    3  A    between atoms: C_8  and  C_9 
ROOT
HETATM    1  C   UNL     1       6.381  25.985  55.529  1.00  0.00     0.286 C 
HETATM    2  N   UNL     1       6.332  25.481  54.093  1.00  0.00    -0.056 N 
HETATM    3  H   UNL     1       6.968  26.107  53.553  1.00  0.00     0.278 HD
HETATM    4  H   UNL     1       6.736  24.540  54.025  1.00  0.00     0.278 HD
HETATM    5  C   UNL     1       4.936  25.524  53.525  1.00  0.00     0.209 C 
HETATM    6  C   UNL     1       4.412  26.984  53.574  1.00  0.00     0.115 C 
HETATM    7  N   UNL     1       4.601  27.597  54.891  1.00  0.00    -0.353 N 
HETATM    8  C   UNL     1       5.670  27.343  55.715  1.00  0.00     0.249 C 
HETATM    9  O   UNL     1       5.953  28.124  56.617  1.00  0.00    -0.271 OA
HETATM   10  C   UNL     1       4.943  24.936  52.115  1.00  0.00     0.035 C 
HETATM   11  C   UNL     1       5.585  25.856  51.080  1.00  0.00     0.002 C 
HETATM   12  C   UNL     1       4.959  27.244  51.109  1.00  0.00     0.002 C 
HETATM   13  C   UNL     1       5.050  27.871  52.495  1.00  0.00     0.027 C 
HETATM   14  H   UNL     1       4.160  28.499  55.065  1.00  0.00     0.163 HD
ENDROOT
BRANCH   1  15
HETATM   15  C   UNL     1       7.817  26.016  56.067  1.00  0.00     0.146 C 
BRANCH  15  16
HETATM   16  C   UNL     1       7.949  25.170  57.307  1.00  0.00     0.224 C 
HETATM   17  N   UNL     1       8.024  23.815  57.260  1.00  0.00    -0.327 N 
HETATM   18  H   UNL     1       7.985  23.403  58.188  1.00  0.00     0.169 HD
HETATM   19  O   UNL     1       8.023  25.743  58.403  1.00  0.00    -0.273 OA
BRANCH  17  20
HETATM   20  C   UNL     1       8.114  22.883  56.206  1.00  0.00     0.034 A 
HETATM   21  C   UNL     1       7.608  21.584  56.227  1.00  0.00     0.030 A 
HETATM   22  C   UNL     1       7.753  20.742  55.115  1.00  0.00     0.009 A 
HETATM   23  C   UNL     1       8.404  21.184  53.961  1.00  0.00    -0.062 A 
HETATM   24  C   UNL     1       8.531  20.282  52.770  1.00  0.00     0.048 C 
HETATM   25  C   UNL     1       8.877  22.496  53.920  1.00  0.00     0.009 A 
HETATM   26  C   UNL     1       8.731  23.334  55.030  1.00  0.00     0.030 A 
ENDBRANCH  17  20
ENDBRANCH  15  16
ENDBRANCH   1  15
TORSDOF 3
ENDMDL
MODEL 4
REMARK VINA RESULT:      -8.4      2.758      7.751
REMARK  3 active torsions:
REMARK  status: ('A' for Active; 'I' for Inactive)
REMARK    1  A    between atoms: C_5  and  N_6 
REMARK       I    between atoms: N_6  and  C_7 
REMARK    2  A    between atoms: C_7  and  C_8 
REMARK    3  A    between atoms: C_8  and  C_9 
ROOT
HETATM    1  C   UNL     1       6.982  28.472  57.749  1.00  0.00     0.286 C 
HETATM    2  N   UNL     1       7.760  27.270  57.230  1.00  0.00    -0.056 N 
HETATM    3  H   UNL     1       7.864  27.423  56.204  1.00  0.00     0.278 HD
HETATM    4  H   UNL     1       8.712  27.261  57.613  1.00  0.00     0.278 HD
HETATM    5  C   UNL     1       7.043  25.971  57.503  1.00  0.00     0.209 C 
HETATM    6  C   UNL     1       5.647  26.009  56.827  1.00  0.00     0.115 C 
HETATM    7  N   UNL     1       4.913  27.238  57.139  1.00  0.00    -0.353 N 
HETATM    8  C   UNL     1       5.502  28.468  57.308  1.00  0.00     0.249 C 
HETATM    9  O   UNL     1       4.833  29.490  57.216  1.00  0.00    -0.271 OA
HETATM   10  C   UNL     1       7.908  24.805  57.029  1.00  0.00     0.035 C 
HETATM   11  C   UNL     1       7.956  24.667  55.510  1.00  0.00     0.002 C 
HETATM   12  C   UNL     1       6.555  24.607  54.915  1.00  0.00     0.002 C 
HETATM   13  C   UNL     1       5.729  25.828  55.304  1.00  0.00     0.027 C 
HETATM   14  H   UNL     1       3.934  27.292  56.863  1.00  0.00     0.163 HD
ENDROOT
BRANCH   1  15
HETATM   15  C   UNL     1       7.679  29.790  57.391  1.00  0.00     0.146 C 
BRANCH  15  16
HETATM   16  C   UNL     1       9.152  29.725  57.702  1.00  0.00     0.224 C 
HETATM   17  N   UNL     1       9.693  30.321  58.795  1.00  0.00    -0.327 N 
HETATM   18  H   UNL     1      10.709  30.282  58.782  1.00  0.00     0.169 HD
HETATM   19  O   UNL     1       9.884  29.075  56.942  1.00  0.00    -0.273 OA
BRANCH  17  20
HETATM   20  C   UNL     1       9.145  30.995  59.906  1.00  0.00     0.034 A 
HETATM   21  C   UNL     1       8.472  32.215  59.863  1.00  0.00     0.030 A 
HETATM   22  C   UNL     1       7.964  32.793  61.036  1.00  0.00     0.009 A 
HETATM   23  C   UNL     1       8.118  32.160  62.272  1.00  0.00    -0.062 A 
HETATM   24  C   UNL     1       7.548  32.776  63.515  1.00  0.00     0.048 C 
HETATM   25  C   UNL     1       8.755  30.919  62.314  1.00  0.00     0.009 A 
HETATM   26  C   UNL     1       9.260  30.345  61.143  1.00  0.00     0.030 A 
ENDBRANCH  17  20
ENDBRANCH  15  16
ENDBRANCH   1  15
TORSDOF 3
ENDMDL
MODEL 5
REMARK VINA RESULT:      -8.3      2.045      3.075
REMARK  3 active torsions:
REMARK  status: ('A' for Active; 'I' for Inactive)
REMARK    1  A    between atoms: C_5  and  N_6 
REMARK       I    between atoms: N_6  and  C_7 
REMARK    2  A    between atoms: C_7  and  C_8 
REMARK    3  A    between atoms: C_8  and  C_9 
ROOT
HETATM    1  C   UNL     1       6.589  26.927  56.101  1.00  0.00     0.286 C 
HETATM    2  N   UNL     1       6.143  28.012  57.073  1.00  0.00    -0.056 N 
HETATM    3  H   UNL     1       5.158  27.779  57.322  1.00  0.00     0.278 HD
HETATM    4  H   UNL     1       6.678  27.957  57.947  1.00  0.00     0.278 HD
HETATM    5  C   UNL     1       6.225  29.388  56.462  1.00  0.00     0.209 C 
HETATM    6  C   UNL     1       5.330  29.436  55.195  1.00  0.00     0.115 C 
HETATM    7  N   UNL     1       5.581  28.307  54.296  1.00  0.00    -0.353 N 
HETATM    8  C   UNL     1       5.910  27.041  54.719  1.00  0.00     0.249 C 
HETATM    9  O   UNL     1       5.762  26.083  53.969  1.00  0.00    -0.271 OA
HETATM   10  C   UNL     1       5.840  30.432  57.509  1.00  0.00     0.035 C 
HETATM   11  C   UNL     1       4.344  30.460  57.812  1.00  0.00     0.002 C 
HETATM   12  C   UNL     1       3.524  30.610  56.537  1.00  0.00     0.002 C 
HETATM   13  C   UNL     1       3.835  29.503  55.536  1.00  0.00     0.027 C 
HETATM   14  H   UNL     1       5.150  28.326  53.374  1.00  0.00     0.163 HD
ENDROOT
BRANCH   1  15
HETATM   15  C   UNL     1       6.422  25.527  56.704  1.00  0.00     0.146 C 
BRANCH  15  16
HETATM   16  C   UNL     1       7.631  25.140  57.515  1.00  0.00     0.224 C 
HETATM   17  N   UNL     1       8.360  24.026  57.249  1.00  0.00    -0.327 N 
HETATM   18  H   UNL     1       9.060  23.854  57.965  1.00  0.00     0.169 HD
HETATM   19  O   UNL     1       7.984  25.888  58.438  1.00  0.00    -0.273 OA
BRANCH  17  20
HETATM   20  C   UNL     1       8.325  23.065  56.218  1.00  0.00     0.034 A 
HETATM   21  C   UNL     1       8.153  21.693  56.394  1.00  0.00     0.030 A 
HETATM   22  C   UNL     1       8.130  20.827  55.291  1.00  0.00     0.009 A 
HETATM   23  C   UNL     1       8.277  21.318  53.991  1.00  0.00    -0.062 A 
HETATM   24  C   UNL     1       8.227  20.385  52.818  1.00  0.00     0.048 C 
HETATM   25  C   UNL     1       8.410  22.695  53.807  1.00  0.00     0.009 A 
HETATM   26  C   UNL     1       8.432  23.556  54.909  1.00  0.00     0.030 A 
ENDBRANCH  17  20
ENDBRANCH  15  16
ENDBRANCH   1  15
TORSDOF 3
ENDMDL
MODEL 6
REMARK VINA RESULT:      -8.1      4.946      5.976
REMARK  3 active torsions:
REMARK  status: ('A' for Active; 'I' for Inactive)
REMARK    1  A    between atoms: C_5  and  N_6 
REMARK       I    between atoms: N_6  and  C_7 
REMARK    2  A    between atoms: C_7  and  C_8 
REMARK    3  A    between atoms: C_8  and  C_9 
ROOT
HETATM    1  C   UNL     1       5.674  27.084  51.980  1.00  0.00     0.286 C 
HETATM    2  N   UNL     1       5.349  28.504  51.536  1.00  0.00    -0.056 N 
HETATM    3  H   UNL     1       4.343  28.649  51.769  1.00  0.00     0.278 HD
HETATM    4  H   UNL     1       5.871  29.188  52.095  1.00  0.00     0.278 HD
HETATM    5  C   UNL     1       5.585  28.704  50.059  1.00  0.00     0.209 C 
HETATM    6  C   UNL     1       4.705  27.703  49.264  1.00  0.00     0.115 C 
HETATM    7  N   UNL     1       4.831  26.333  49.766  1.00  0.00    -0.353 N 
HETATM    8  C   UNL     1       5.017  26.008  51.089  1.00  0.00     0.249 C 
HETATM    9  O   UNL     1       4.766  24.877  51.487  1.00  0.00    -0.271 OA
HETATM   10  C   UNL     1       5.315  30.162  49.695  1.00  0.00     0.035 C 
HETATM   11  C   UNL     1       3.831  30.518  49.688  1.00  0.00     0.002 C 
HETATM   12  C   UNL     1       3.036  29.561  48.809  1.00  0.00     0.002 C 
HETATM   13  C   UNL     1       3.225  28.112  49.244  1.00  0.00     0.027 C 
HETATM   14  H   UNL     1       4.408  25.584  49.221  1.00  0.00     0.163 HD
ENDROOT
BRANCH   1  15
HETATM   15  C   UNL     1       5.350  26.871  53.464  1.00  0.00     0.146 C 
BRANCH  15  16
HETATM   16  C   UNL     1       6.556  27.145  54.326  1.00  0.00     0.224 C 
HETATM   17  N   UNL     1       7.432  26.172  54.683  1.00  0.00    -0.327 N 
HETATM   18  H   UNL     1       8.110  26.507  55.362  1.00  0.00     0.169 HD
HETATM   19  O   UNL     1       6.763  28.311  54.690  1.00  0.00    -0.273 OA
BRANCH  17  20
HETATM   20  C   UNL     1       7.571  24.813  54.334  1.00  0.00     0.034 A 
HETATM   21  C   UNL     1       7.921  24.332  53.073  1.00  0.00     0.030 A 
HETATM   22  C   UNL     1       8.033  22.954  52.840  1.00  0.00     0.009 A 
HETATM   23  C   UNL     1       7.800  22.032  53.864  1.00  0.00    -0.062 A 
HETATM   24  C   UNL     1       7.949  20.561  53.608  1.00  0.00     0.048 C 
HETATM   25  C   UNL     1       7.489  22.510  55.137  1.00  0.00     0.009 A 
HETATM   26  C   UNL     1       7.378  23.885  55.367  1.00  0.00     0.030 A 
ENDBRANCH  17  20
ENDBRANCH  15  16
ENDBRANCH   1  15
TORSDOF 3
ENDMDL
MODEL 7
REMARK VINA RESULT:      -8.0      4.191      5.315
REMARK  3 active torsions:
REMARK  status: ('A' for Active; 'I' for Inactive)
REMARK    1  A    between atoms: C_5  and  N_6 
REMARK       I    between atoms: N_6  and  C_7 
REMARK    2  A    between atoms: C_7  and  C_8 
REMARK    3  A    between atoms: C_8  and  C_9 
ROOT
HETATM    1  C   UNL     1       4.899  26.736  53.586  1.00  0.00     0.286 C 
HETATM    2  N   UNL     1       3.980  27.163  52.448  1.00  0.00    -0.056 N 
HETATM    3  H   UNL     1       4.509  26.968  51.571  1.00  0.00     0.278 HD
HETATM    4  H   UNL     1       3.144  26.569  52.414  1.00  0.00     0.278 HD
HETATM    5  C   UNL     1       3.614  28.624  52.534  1.00  0.00     0.209 C 
HETATM    6  C   UNL     1       4.911  29.476  52.494  1.00  0.00     0.115 C 
HETATM    7  N   UNL     1       5.918  28.998  53.443  1.00  0.00    -0.353 N 
HETATM    8  C   UNL     1       6.110  27.676  53.767  1.00  0.00     0.249 C 
HETATM    9  O   UNL     1       7.164  27.313  54.275  1.00  0.00    -0.271 OA
HETATM   10  C   UNL     1       2.634  28.968  51.414  1.00  0.00     0.035 C 
HETATM   11  C   UNL     1       3.288  29.029  50.036  1.00  0.00     0.002 C 
HETATM   12  C   UNL     1       4.494  29.959  50.036  1.00  0.00     0.002 C 
HETATM   13  C   UNL     1       5.520  29.547  51.086  1.00  0.00     0.027 C 
HETATM   14  H   UNL     1       6.743  29.576  53.595  1.00  0.00     0.163 HD
ENDROOT
BRANCH   1  15
HETATM   15  C   UNL     1       5.331  25.272  53.441  1.00  0.00     0.146 C 
BRANCH  15  16
HETATM   16  C   UNL     1       6.299  25.104  52.298  1.00  0.00     0.224 C 
HETATM   17  N   UNL     1       7.392  24.303  52.382  1.00  0.00    -0.327 N 
HETATM   18  H   UNL     1       7.996  24.404  51.571  1.00  0.00     0.169 HD
HETATM   19  O   UNL     1       6.062  25.697  51.237  1.00  0.00    -0.273 OA
BRANCH  17  20
HETATM   20  C   UNL     1       7.864  23.402  53.358  1.00  0.00     0.034 A 
HETATM   21  C   UNL     1       8.352  23.752  54.616  1.00  0.00     0.030 A 
HETATM   22  C   UNL     1       8.794  22.767  55.511  1.00  0.00     0.009 A 
HETATM   23  C   UNL     1       8.755  21.414  55.165  1.00  0.00    -0.062 A 
HETATM   24  C   UNL     1       9.208  20.369  56.140  1.00  0.00     0.048 C 
HETATM   25  C   UNL     1       8.231  21.056  53.922  1.00  0.00     0.009 A 
HETATM   26  C   UNL     1       7.790  22.040  53.031  1.00  0.00     0.030 A 
ENDBRANCH  17  20
ENDBRANCH  15  16
ENDBRANCH   1  15
TORSDOF 3
ENDMDL
MODEL 8
REMARK VINA RESULT:      -7.8      4.318      5.222
REMARK  3 active torsions:
REMARK  status: ('A' for Active; 'I' for Inactive)
REMARK    1  A    between atoms: C_5  and  N_6 
REMARK       I    between atoms: N_6  and  C_7 
REMARK    2  A    between atoms: C_7  and  C_8 
REMARK    3  A    between atoms: C_8  and  C_9 
ROOT
HETATM    1  C   UNL     1       4.377  27.204  53.030  1.00  0.00     0.286 C 
HETATM    2  N   UNL     1       4.939  27.287  51.616  1.00  0.00    -0.056 N 
HETATM    3  H   UNL     1       5.842  27.802  51.702  1.00  0.00     0.278 HD
HETATM    4  H   UNL     1       5.178  26.352  51.266  1.00  0.00     0.278 HD
HETATM    5  C   UNL     1       4.005  28.006  50.676  1.00  0.00     0.209 C 
HETATM    6  C   UNL     1       3.750  29.440  51.211  1.00  0.00     0.115 C 
HETATM    7  N   UNL     1       3.383  29.446  52.629  1.00  0.00    -0.353 N 
HETATM    8  C   UNL     1       3.880  28.566  53.560  1.00  0.00     0.249 C 
HETATM    9  O   UNL     1       3.817  28.832  54.755  1.00  0.00    -0.271 OA
HETATM   10  C   UNL     1       4.590  27.987  49.265  1.00  0.00     0.035 C 
HETATM   11  C   UNL     1       5.778  28.929  49.092  1.00  0.00     0.002 C 
HETATM   12  C   UNL     1       5.434  30.343  49.539  1.00  0.00     0.002 C 
HETATM   13  C   UNL     1       4.951  30.371  50.985  1.00  0.00     0.027 C 
HETATM   14  H   UNL     1       3.055  30.322  53.034  1.00  0.00     0.163 HD
ENDROOT
BRANCH   1  15
HETATM   15  C   UNL     1       5.372  26.546  53.993  1.00  0.00     0.146 C 
BRANCH  15  16
HETATM   16  C   UNL     1       6.790  26.919  53.646  1.00  0.00     0.224 C 
HETATM   17  N   UNL     1       7.796  26.008  53.617  1.00  0.00    -0.327 N 
HETATM   18  H   UNL     1       8.701  26.451  53.486  1.00  0.00     0.169 HD
HETATM   19  O   UNL     1       7.030  28.097  53.347  1.00  0.00    -0.273 OA
BRANCH  17  20
HETATM   20  C   UNL     1       7.842  24.606  53.757  1.00  0.00     0.034 A 
HETATM   21  C   UNL     1       7.905  23.688  52.711  1.00  0.00     0.030 A 
HETATM   22  C   UNL     1       7.950  22.310  52.969  1.00  0.00     0.009 A 
HETATM   23  C   UNL     1       7.935  21.826  54.280  1.00  0.00    -0.062 A 
HETATM   24  C   UNL     1       8.009  20.351  54.543  1.00  0.00     0.048 C 
HETATM   25  C   UNL     1       7.912  22.742  55.332  1.00  0.00     0.009 A 
HETATM   26  C   UNL     1       7.867  24.116  55.071  1.00  0.00     0.030 A 
ENDBRANCH  17  20
ENDBRANCH  15  16
ENDBRANCH   1  15
TORSDOF 3
ENDMDL
MODEL 9
REMARK VINA RESULT:      -7.8     10.039     12.096
REMARK  3 active torsions:
REMARK  status: ('A' for Active; 'I' for Inactive)
REMARK    1  A    between atoms: C_5  and  N_6 
REMARK       I    between atoms: N_6  and  C_7 
REMARK    2  A    between atoms: C_7  and  C_8 
REMARK    3  A    between atoms: C_8  and  C_9 
ROOT
HETATM    1  C   UNL     1       3.944  36.642  63.897  1.00  0.00     0.286 C 
HETATM    2  N   UNL     1       3.078  35.554  63.276  1.00  0.00    -0.056 N 
HETATM    3  H   UNL     1       3.671  34.696  63.261  1.00  0.00     0.278 HD
HETATM    4  H   UNL     1       2.279  35.336  63.882  1.00  0.00     0.278 HD
HETATM    5  C   UNL     1       2.630  35.913  61.881  1.00  0.00     0.209 C 
HETATM    6  C   UNL     1       3.879  36.145  60.990  1.00  0.00     0.115 C 
HETATM    7  N   UNL     1       4.848  37.046  61.617  1.00  0.00    -0.353 N 
HETATM    8  C   UNL     1       5.090  37.102  62.969  1.00  0.00     0.249 C 
HETATM    9  O   UNL     1       6.127  37.600  63.390  1.00  0.00    -0.271 OA
HETATM   10  C   UNL     1       1.706  34.820  61.348  1.00  0.00     0.035 C 
HETATM   11  C   UNL     1       2.443  33.536  60.973  1.00  0.00     0.002 C 
HETATM   12  C   UNL     1       3.595  33.817  60.017  1.00  0.00     0.002 C 
HETATM   13  C   UNL     1       4.572  34.831  60.601  1.00  0.00     0.027 C 
HETATM   14  H   UNL     1       5.630  37.374  61.052  1.00  0.00     0.163 HD
ENDROOT
BRANCH   1  15
HETATM   15  C   UNL     1       4.462  36.229  65.279  1.00  0.00     0.146 C 
BRANCH  15  16
HETATM   16  C   UNL     1       3.838  34.932  65.726  1.00  0.00     0.224 C 
HETATM   17  N   UNL     1       4.324  33.723  65.349  1.00  0.00    -0.327 N 
HETATM   18  H   UNL     1       3.713  32.964  65.638  1.00  0.00     0.169 HD
HETATM   19  O   UNL     1       2.866  34.982  66.492  1.00  0.00    -0.273 OA
BRANCH  17  20
HETATM   20  C   UNL     1       5.465  33.315  64.626  1.00  0.00     0.034 A 
HETATM   21  C   UNL     1       6.787  33.544  65.003  1.00  0.00     0.030 A 
HETATM   22  C   UNL     1       7.847  33.089  64.205  1.00  0.00     0.009 A 
HETATM   23  C   UNL     1       7.603  32.395  63.017  1.00  0.00    -0.062 A 
HETATM   24  C   UNL     1       8.745  31.892  62.185  1.00  0.00     0.048 C 
HETATM   25  C   UNL     1       6.282  32.128  62.656  1.00  0.00     0.009 A 
HETATM   26  C   UNL     1       5.227  32.584  63.454  1.00  0.00     0.030 A 
ENDBRANCH  17  20
ENDBRANCH  15  16
ENDBRANCH   1  15
TORSDOF 3
ENDMDL
MODEL 10
REMARK VINA RESULT:      -7.8      3.075      7.964
REMARK  3 active torsions:
REMARK  status: ('A' for Active; 'I' for Inactive)
REMARK    1  A    between atoms: C_5  and  N_6 
REMARK       I    between atoms: N_6  and  C_7 
REMARK    2  A    between atoms: C_7  and  C_8 
REMARK    3  A    between atoms: C_8  and  C_9 
ROOT
HETATM    1  C   UNL     1       8.378  28.032  56.772  1.00  0.00     0.286 C 
HETATM    2  N   UNL     1       7.668  28.581  55.541  1.00  0.00    -0.056 N 
HETATM    3  H   UNL     1       6.721  28.871  55.868  1.00  0.00     0.278 HD
HETATM    4  H   UNL     1       8.128  29.435  55.208  1.00  0.00     0.278 HD
HETATM    5  C   UNL     1       7.558  27.551  54.444  1.00  0.00     0.209 C 
HETATM    6  C   UNL     1       6.779  26.320  54.979  1.00  0.00     0.115 C 
HETATM    7  N   UNL     1       7.299  25.851  56.266  1.00  0.00    -0.353 N 
HETATM    8  C   UNL     1       7.809  26.675  57.240  1.00  0.00     0.249 C 
HETATM    9  O   UNL     1       7.896  26.281  58.397  1.00  0.00    -0.271 OA
HETATM   10  C   UNL     1       6.908  28.185  53.216  1.00  0.00     0.035 C 
HETATM   11  C   UNL     1       5.410  28.429  53.383  1.00  0.00     0.002 C 
HETATM   12  C   UNL     1       4.687  27.159  53.811  1.00  0.00     0.002 C 
HETATM   13  C   UNL     1       5.271  26.587  55.098  1.00  0.00     0.027 C 
HETATM   14  H   UNL     1       6.951  24.964  56.627  1.00  0.00     0.163 HD
ENDROOT
BRANCH   1  15
HETATM   15  C   UNL     1       8.409  29.060  57.909  1.00  0.00     0.146 C 
BRANCH  15  16
HETATM   16  C   UNL     1       9.389  30.165  57.613  1.00  0.00     0.224 C 
HETATM   17  N   UNL     1       9.499  31.270  58.394  1.00  0.00    -0.327 N 
HETATM   18  H   UNL     1      10.117  31.963  57.981  1.00  0.00     0.169 HD
HETATM   19  O   UNL     1      10.141  30.036  56.636  1.00  0.00    -0.273 OA
BRANCH  17  20
HETATM   20  C   UNL     1       8.919  31.655  59.620  1.00  0.00     0.034 A 
HETATM   21  C   UNL     1       7.616  32.118  59.790  1.00  0.00     0.030 A 
HETATM   22  C   UNL     1       7.143  32.471  61.062  1.00  0.00     0.009 A 
HETATM   23  C   UNL     1       7.964  32.365  62.188  1.00  0.00    -0.062 A 
HETATM   24  C   UNL     1       7.438  32.722  63.546  1.00  0.00     0.048 C 
HETATM   25  C   UNL     1       9.256  31.863  62.028  1.00  0.00     0.009 A 
HETATM   26  C   UNL     1       9.726  31.512  60.758  1.00  0.00     0.030 A 
ENDBRANCH  17  20
ENDBRANCH  15  16
ENDBRANCH   1  15
TORSDOF 3
ENDMDL
