MODEL 1
REMARK VINA RESULT:      -9.5      0.000      0.000
REMARK  10 active torsions:
REMARK  status: ('A' for Active; 'I' for Inactive)
REMARK    1  A    between atoms: C_4  and  N_5 
REMARK    2  A    between atoms: N_5  and  C_6 
REMARK    3  A    between atoms: C_6  and  N_7 
REMARK    4  A    between atoms: N_7  and  N_8 
REMARK       I    between atoms: N_8  and  C_9 
REMARK    5  A    between atoms: C_9  and  C_10 
REMARK    6  A    between atoms: C_10  and  O_11 
REMARK    7  A    between atoms: O_11  and  C_12 
REMARK    8  A    between atoms: C_22  and  C_23 
REMARK    9  A    between atoms: C_23  and  O_24 
REMARK   10  A    between atoms: C_27  and  C_28 
ROOT
HETATM    1  N   UNL     1       4.978  28.972  57.788  1.00  0.00    -0.228 NA
HETATM    2  H   UNL     1       5.267  28.510  58.646  1.00  0.00     0.136 HD
ENDROOT
BRANCH   1   3
HETATM    3  C   UNL     1       5.333  28.242  56.662  1.00  0.00     0.073 C 
HETATM    4  S   UNL     1       4.393  28.694  55.316  1.00  0.00    -0.081 SA
HETATM    5  C   UNL     1       5.015  27.419  54.368  1.00  0.00    -0.007 C 
HETATM    6  C   UNL     1       4.440  27.178  53.008  1.00  0.00     0.057 C 
HETATM    7  C   UNL     1       6.037  26.750  55.029  1.00  0.00     0.005 C 
HETATM    8  C   UNL     1       6.300  27.304  56.351  1.00  0.00     0.080 C 
BRANCH   7   9
HETATM    9  C   UNL     1       6.681  25.590  54.420  1.00  0.00    -0.024 A 
HETATM   10  C   UNL     1       7.511  25.771  53.305  1.00  0.00     0.012 A 
HETATM   11  C   UNL     1       8.142  24.675  52.714  1.00  0.00     0.001 A 
HETATM   12  C   UNL     1       7.953  23.397  53.237  1.00  0.00     0.000 A 
HETATM   13  C   UNL     1       7.128  23.211  54.346  1.00  0.00     0.001 A 
HETATM   14  C   UNL     1       6.489  24.303  54.936  1.00  0.00     0.012 A 
ENDBRANCH   7   9
BRANCH   8  15
HETATM   15  C   UNL     1       7.423  26.957  57.223  1.00  0.00     0.296 C 
HETATM   16  O   UNL     1       7.755  25.805  57.476  1.00  0.00    -0.259 OA
BRANCH  15  17
HETATM   17  O   UNL     1       8.033  28.049  57.769  1.00  0.00    -0.322 OA
HETATM   18  C   UNL     1       9.128  28.559  57.009  1.00  0.00     0.213 C 
ENDBRANCH  15  17
ENDBRANCH   8  15
ENDBRANCH   1   3
BRANCH   1  19
HETATM   19  C   UNL     1       5.273  30.315  57.894  1.00  0.00     0.170 C 
HETATM   20  S   UNL     1       4.011  31.398  57.649  1.00  0.00    -0.045 SA
BRANCH  19  21
HETATM   21  N   UNL     1       6.548  30.664  58.265  1.00  0.00    -0.278 N 
HETATM   22  H   UNL     1       7.095  31.136  57.534  1.00  0.00     0.189 HD
BRANCH  21  23
HETATM   23  N   UNL     1       6.803  31.147  59.561  1.00  0.00    -0.266 N 
HETATM   24  C   UNL     1       7.885  31.979  59.775  1.00  0.00     0.260 C 
HETATM   25  O   UNL     1       8.768  32.187  58.944  1.00  0.00    -0.269 OA
HETATM   26  H   UNL     1       6.015  31.180  60.208  1.00  0.00     0.190 HD
BRANCH  24  27
HETATM   27  C   UNL     1       7.891  32.645  61.151  1.00  0.00     0.280 C 
BRANCH  27  28
HETATM   28  O   UNL     1       7.084  31.917  62.072  1.00  0.00    -0.340 OA
BRANCH  28  29
HETATM   29  C   UNL     1       6.720  32.546  63.232  1.00  0.00     0.091 A 
HETATM   30  C   UNL     1       5.341  32.703  63.462  1.00  0.00     0.068 A 
HETATM   31 CL   UNL     1       4.175  32.101  62.333  1.00  0.00    -0.081 Cl
HETATM   32  C   UNL     1       4.872  33.338  64.613  1.00  0.00     0.046 A 
HETATM   33  C   UNL     1       5.784  33.830  65.540  1.00  0.00     0.012 A 
HETATM   34 BR   UNL     1       5.164  34.692  67.104  1.00  0.00    -0.051 Br
HETATM   35  C   UNL     1       7.154  33.694  65.324  1.00  0.00     0.022 A 
HETATM   36  C   UNL     1       7.622  33.056  64.170  1.00  0.00     0.040 A 
ENDBRANCH  28  29
ENDBRANCH  27  28
ENDBRANCH  24  27
ENDBRANCH  21  23
ENDBRANCH  19  21
ENDBRANCH   1  19
TORSDOF 10
ENDMDL
MODEL 2
REMARK VINA RESULT:      -9.4      2.416      3.748
REMARK  10 active torsions:
REMARK  status: ('A' for Active; 'I' for Inactive)
REMARK    1  A    between atoms: C_4  and  N_5 
REMARK    2  A    between atoms: N_5  and  C_6 
REMARK    3  A    between atoms: C_6  and  N_7 
REMARK    4  A    between atoms: N_7  and  N_8 
REMARK       I    between atoms: N_8  and  C_9 
REMARK    5  A    between atoms: C_9  and  C_10 
REMARK    6  A    between atoms: C_10  and  O_11 
REMARK    7  A    between atoms: O_11  and  C_12 
REMARK    8  A    between atoms: C_22  and  C_23 
REMARK    9  A    between atoms: C_23  and  O_24 
REMARK   10  A    between atoms: C_27  and  C_28 
ROOT
HETATM    1  N   UNL     1       6.710  27.939  54.524  1.00  0.00    -0.228 NA
HETATM    2  H   UNL     1       6.337  28.027  53.582  1.00  0.00     0.136 HD
ENDROOT
BRANCH   1   3
HETATM    3  C   UNL     1       6.991  26.618  54.848  1.00  0.00     0.073 C 
HETATM    4  S   UNL     1       7.684  26.501  56.399  1.00  0.00    -0.081 SA
HETATM    5  C   UNL     1       8.031  24.843  56.193  1.00  0.00    -0.007 C 
HETATM    6  C   UNL     1       8.822  24.131  57.244  1.00  0.00     0.057 C 
HETATM    7  C   UNL     1       7.488  24.357  55.011  1.00  0.00     0.005 C 
HETATM    8  C   UNL     1       6.778  25.385  54.260  1.00  0.00     0.080 C 
BRANCH   7   9
HETATM    9  C   UNL     1       7.705  22.970  54.609  1.00  0.00    -0.024 A 
HETATM   10  C   UNL     1       8.121  22.691  53.299  1.00  0.00     0.012 A 
HETATM   11  C   UNL     1       8.341  21.373  52.899  1.00  0.00     0.001 A 
HETATM   12  C   UNL     1       8.152  20.329  53.803  1.00  0.00     0.000 A 
HETATM   13  C   UNL     1       7.736  20.600  55.106  1.00  0.00     0.001 A 
HETATM   14  C   UNL     1       7.508  21.917  55.510  1.00  0.00     0.012 A 
ENDBRANCH   7   9
BRANCH   8  15
HETATM   15  C   UNL     1       5.942  25.168  53.079  1.00  0.00     0.296 C 
HETATM   16  O   UNL     1       4.948  24.450  53.073  1.00  0.00    -0.259 OA
BRANCH  15  17
HETATM   17  O   UNL     1       6.410  25.807  51.968  1.00  0.00    -0.322 OA
HETATM   18  C   UNL     1       5.403  26.171  51.024  1.00  0.00     0.213 C 
ENDBRANCH  15  17
ENDBRANCH   8  15
ENDBRANCH   1   3
BRANCH   1  19
HETATM   19  C   UNL     1       5.970  28.742  55.364  1.00  0.00     0.170 C 
HETATM   20  S   UNL     1       4.413  28.230  55.739  1.00  0.00    -0.045 SA
BRANCH  19  21
HETATM   21  N   UNL     1       6.580  29.854  55.890  1.00  0.00    -0.278 N 
HETATM   22  H   UNL     1       6.265  30.747  55.491  1.00  0.00     0.189 HD
BRANCH  21  23
HETATM   23  N   UNL     1       6.869  29.921  57.265  1.00  0.00    -0.266 N 
HETATM   24  C   UNL     1       8.187  29.953  57.681  1.00  0.00     0.260 C 
HETATM   25  O   UNL     1       9.146  29.737  56.942  1.00  0.00    -0.269 OA
HETATM   26  H   UNL     1       6.147  30.303  57.874  1.00  0.00     0.190 HD
BRANCH  24  27
HETATM   27  C   UNL     1       8.361  30.299  59.159  1.00  0.00     0.280 C 
BRANCH  27  28
HETATM   28  O   UNL     1       8.129  31.686  59.388  1.00  0.00    -0.340 OA
BRANCH  28  29
HETATM   29  C   UNL     1       7.853  32.080  60.670  1.00  0.00     0.091 A 
HETATM   30  C   UNL     1       6.609  32.700  60.888  1.00  0.00     0.068 A 
HETATM   31 CL   UNL     1       5.485  32.924  59.591  1.00  0.00    -0.081 Cl
HETATM   32  C   UNL     1       6.240  33.142  62.159  1.00  0.00     0.046 A 
HETATM   33  C   UNL     1       7.120  32.974  63.222  1.00  0.00     0.012 A 
HETATM   34 BR   UNL     1       6.633  33.568  64.949  1.00  0.00    -0.051 Br
HETATM   35  C   UNL     1       8.361  32.372  63.024  1.00  0.00     0.022 A 
HETATM   36  C   UNL     1       8.729  31.928  61.748  1.00  0.00     0.040 A 
ENDBRANCH  28  29
ENDBRANCH  27  28
ENDBRANCH  24  27
ENDBRANCH  21  23
ENDBRANCH  19  21
ENDBRANCH   1  19
TORSDOF 10
ENDMDL
MODEL 3
REMARK VINA RESULT:      -9.3      2.372      3.801
REMARK  10 active torsions:
REMARK  status: ('A' for Active; 'I' for Inactive)
REMARK    1  A    between atoms: C_4  and  N_5 
REMARK    2  A    between atoms: N_5  and  C_6 
REMARK    3  A    between atoms: C_6  and  N_7 
REMARK    4  A    between atoms: N_7  and  N_8 
REMARK       I    between atoms: N_8  and  C_9 
REMARK    5  A    between atoms: C_9  and  C_10 
REMARK    6  A    between atoms: C_10  and  O_11 
REMARK    7  A    between atoms: O_11  and  C_12 
REMARK    8  A    between atoms: C_22  and  C_23 
REMARK    9  A    between atoms: C_23  and  O_24 
REMARK   10  A    between atoms: C_27  and  C_28 
ROOT
HETATM    1  N   UNL     1       6.709  28.104  55.349  1.00  0.00    -0.228 NA
HETATM    2  H   UNL     1       6.942  28.455  54.424  1.00  0.00     0.136 HD
ENDROOT
BRANCH   1   3
HETATM    3  C   UNL     1       7.001  26.753  55.480  1.00  0.00     0.073 C 
HETATM    4  S   UNL     1       7.757  26.430  56.971  1.00  0.00    -0.081 SA
HETATM    5  C   UNL     1       8.094  24.816  56.528  1.00  0.00    -0.007 C 
HETATM    6  C   UNL     1       8.927  23.972  57.439  1.00  0.00     0.057 C 
HETATM    7  C   UNL     1       7.503  24.493  55.314  1.00  0.00     0.005 C 
HETATM    8  C   UNL     1       6.764  25.610  54.738  1.00  0.00     0.080 C 
BRANCH   7   9
HETATM    9  C   UNL     1       7.702  23.174  54.718  1.00  0.00    -0.024 A 
HETATM   10  C   UNL     1       7.503  22.029  55.502  1.00  0.00     0.012 A 
HETATM   11  C   UNL     1       7.680  20.761  54.948  1.00  0.00     0.001 A 
HETATM   12  C   UNL     1       8.051  20.629  53.611  1.00  0.00     0.000 A 
HETATM   13  C   UNL     1       8.252  21.765  52.827  1.00  0.00     0.001 A 
HETATM   14  C   UNL     1       8.082  23.037  53.379  1.00  0.00     0.012 A 
ENDBRANCH   7   9
BRANCH   8  15
HETATM   15  C   UNL     1       5.880  25.551  53.574  1.00  0.00     0.296 C 
HETATM   16  O   UNL     1       4.868  24.862  53.524  1.00  0.00    -0.259 OA
BRANCH  15  17
HETATM   17  O   UNL     1       6.324  26.305  52.527  1.00  0.00    -0.322 OA
HETATM   18  C   UNL     1       5.386  26.454  51.462  1.00  0.00     0.213 C 
ENDBRANCH  15  17
ENDBRANCH   8  15
ENDBRANCH   1   3
BRANCH   1  19
HETATM   19  C   UNL     1       5.478  28.609  55.711  1.00  0.00     0.170 C 
HETATM   20  S   UNL     1       4.457  29.102  54.469  1.00  0.00    -0.045 SA
BRANCH  19  21
HETATM   21  N   UNL     1       5.149  28.603  57.044  1.00  0.00    -0.278 N 
HETATM   22  H   UNL     1       5.440  27.761  57.555  1.00  0.00     0.189 HD
BRANCH  21  23
HETATM   23  N   UNL     1       5.241  29.785  57.803  1.00  0.00    -0.266 N 
HETATM   24  C   UNL     1       6.484  30.254  58.181  1.00  0.00     0.260 C 
HETATM   25  O   UNL     1       7.527  29.612  58.063  1.00  0.00    -0.269 OA
HETATM   26  H   UNL     1       4.461  30.438  57.741  1.00  0.00     0.190 HD
BRANCH  24  27
HETATM   27  C   UNL     1       6.463  31.670  58.756  1.00  0.00     0.280 C 
BRANCH  27  28
HETATM   28  O   UNL     1       7.611  31.907  59.565  1.00  0.00    -0.340 OA
BRANCH  28  29
HETATM   29  C   UNL     1       7.406  32.364  60.839  1.00  0.00     0.091 A 
HETATM   30  C   UNL     1       8.272  31.876  61.835  1.00  0.00     0.068 A 
HETATM   31 CL   UNL     1       9.544  30.769  61.446  1.00  0.00    -0.081 Cl
HETATM   32  C   UNL     1       8.136  32.278  63.164  1.00  0.00     0.046 A 
HETATM   33  C   UNL     1       7.125  33.168  63.509  1.00  0.00     0.012 A 
HETATM   34 BR   UNL     1       6.930  33.721  65.306  1.00  0.00    -0.051 Br
HETATM   35  C   UNL     1       6.251  33.654  62.539  1.00  0.00     0.022 A 
HETATM   36  C   UNL     1       6.389  33.251  61.205  1.00  0.00     0.040 A 
ENDBRANCH  28  29
ENDBRANCH  27  28
ENDBRANCH  24  27
ENDBRANCH  21  23
ENDBRANCH  19  21
ENDBRANCH   1  19
TORSDOF 10
ENDMDL
MODEL 4
REMARK VINA RESULT:      -9.1      1.698      2.247
REMARK  10 active torsions:
REMARK  status: ('A' for Active; 'I' for Inactive)
REMARK    1  A    between atoms: C_4  and  N_5 
REMARK    2  A    between atoms: N_5  and  C_6 
REMARK    3  A    between atoms: C_6  and  N_7 
REMARK    4  A    between atoms: N_7  and  N_8 
REMARK       I    between atoms: N_8  and  C_9 
REMARK    5  A    between atoms: C_9  and  C_10 
REMARK    6  A    between atoms: C_10  and  O_11 
REMARK    7  A    between atoms: O_11  and  C_12 
REMARK    8  A    between atoms: C_22  and  C_23 
REMARK    9  A    between atoms: C_23  and  O_24 
REMARK   10  A    between atoms: C_27  and  C_28 
ROOT
HETATM    1  N   UNL     1       6.150  29.967  56.037  1.00  0.00    -0.228 NA
HETATM    2  H   UNL     1       5.314  30.411  55.666  1.00  0.00     0.136 HD
ENDROOT
BRANCH   1   3
HETATM    3  C   UNL     1       6.114  28.587  55.889  1.00  0.00     0.073 C 
HETATM    4  S   UNL     1       4.942  27.890  56.907  1.00  0.00    -0.081 SA
HETATM    5  C   UNL     1       5.463  26.308  56.538  1.00  0.00    -0.007 C 
HETATM    6  C   UNL     1       4.862  25.154  57.276  1.00  0.00     0.057 C 
HETATM    7  C   UNL     1       6.423  26.314  55.535  1.00  0.00     0.005 C 
HETATM    8  C   UNL     1       6.737  27.661  55.072  1.00  0.00     0.080 C 
BRANCH   7   9
HETATM    9  C   UNL     1       7.046  25.069  55.094  1.00  0.00    -0.024 A 
HETATM   10  C   UNL     1       8.105  24.529  55.838  1.00  0.00     0.012 A 
HETATM   11  C   UNL     1       8.707  23.336  55.438  1.00  0.00     0.001 A 
HETATM   12  C   UNL     1       8.254  22.675  54.298  1.00  0.00     0.000 A 
HETATM   13  C   UNL     1       7.201  23.207  53.553  1.00  0.00     0.001 A 
HETATM   14  C   UNL     1       6.600  24.405  53.947  1.00  0.00     0.012 A 
ENDBRANCH   7   9
BRANCH   8  15
HETATM   15  C   UNL     1       7.558  28.004  53.912  1.00  0.00     0.296 C 
HETATM   16  O   UNL     1       8.640  28.574  53.990  1.00  0.00    -0.259 OA
BRANCH  15  17
HETATM   17  O   UNL     1       6.973  27.670  52.725  1.00  0.00    -0.322 OA
HETATM   18  C   UNL     1       5.870  28.496  52.353  1.00  0.00     0.213 C 
ENDBRANCH  15  17
ENDBRANCH   8  15
ENDBRANCH   1   3
BRANCH   1  19
HETATM   19  C   UNL     1       6.453  30.551  57.249  1.00  0.00     0.170 C 
HETATM   20  S   UNL     1       5.284  31.547  57.933  1.00  0.00    -0.045 SA
BRANCH  19  21
HETATM   21  N   UNL     1       7.646  30.218  57.840  1.00  0.00    -0.278 N 
HETATM   22  H   UNL     1       8.480  30.438  57.281  1.00  0.00     0.189 HD
BRANCH  21  23
HETATM   23  N   UNL     1       7.829  30.404  59.223  1.00  0.00    -0.266 N 
HETATM   24  C   UNL     1       8.585  31.470  59.671  1.00  0.00     0.260 C 
HETATM   25  O   UNL     1       9.278  32.176  58.941  1.00  0.00    -0.269 OA
HETATM   26  H   UNL     1       7.131  29.994  59.842  1.00  0.00     0.190 HD
BRANCH  24  27
HETATM   27  C   UNL     1       8.479  31.714  61.176  1.00  0.00     0.280 C 
BRANCH  27  28
HETATM   28  O   UNL     1       7.121  31.677  61.603  1.00  0.00    -0.340 OA
BRANCH  28  29
HETATM   29  C   UNL     1       6.807  32.308  62.777  1.00  0.00     0.091 A 
HETATM   30  C   UNL     1       5.441  32.533  63.030  1.00  0.00     0.068 A 
HETATM   31 CL   UNL     1       4.229  32.008  61.912  1.00  0.00    -0.081 Cl
HETATM   32  C   UNL     1       5.024  33.175  64.196  1.00  0.00     0.046 A 
HETATM   33  C   UNL     1       5.974  33.606  65.116  1.00  0.00     0.012 A 
HETATM   34 BR   UNL     1       5.422  34.478  66.700  1.00  0.00    -0.051 Br
HETATM   35  C   UNL     1       7.332  33.403  64.877  1.00  0.00     0.022 A 
HETATM   36  C   UNL     1       7.748  32.757  63.707  1.00  0.00     0.040 A 
ENDBRANCH  28  29
ENDBRANCH  27  28
ENDBRANCH  24  27
ENDBRANCH  21  23
ENDBRANCH  19  21
ENDBRANCH   1  19
TORSDOF 10
ENDMDL
MODEL 5
REMARK VINA RESULT:      -9.0      2.089      2.792
REMARK  10 active torsions:
REMARK  status: ('A' for Active; 'I' for Inactive)
REMARK    1  A    between atoms: C_4  and  N_5 
REMARK    2  A    between atoms: N_5  and  C_6 
REMARK    3  A    between atoms: C_6  and  N_7 
REMARK    4  A    between atoms: N_7  and  N_8 
REMARK       I    between atoms: N_8  and  C_9 
REMARK    5  A    between atoms: C_9  and  C_10 
REMARK    6  A    between atoms: C_10  and  O_11 
REMARK    7  A    between atoms: O_11  and  C_12 
REMARK    8  A    between atoms: C_22  and  C_23 
REMARK    9  A    between atoms: C_23  and  O_24 
REMARK   10  A    between atoms: C_27  and  C_28 
ROOT
HETATM    1  N   UNL     1       7.701  28.170  58.311  1.00  0.00    -0.228 NA
HETATM    2  H   UNL     1       8.273  27.745  59.036  1.00  0.00     0.136 HD
ENDROOT
BRANCH   1   3
HETATM    3  C   UNL     1       7.396  27.271  57.298  1.00  0.00     0.073 C 
HETATM    4  S   UNL     1       8.250  25.812  57.494  1.00  0.00    -0.081 SA
HETATM    5  C   UNL     1       7.740  25.230  55.973  1.00  0.00    -0.007 C 
HETATM    6  C   UNL     1       8.303  23.941  55.463  1.00  0.00     0.057 C 
HETATM    7  C   UNL     1       6.810  26.082  55.393  1.00  0.00     0.005 C 
HETATM    8  C   UNL     1       6.523  27.244  56.225  1.00  0.00     0.080 C 
BRANCH   7   9
HETATM    9  C   UNL     1       6.274  25.802  54.063  1.00  0.00    -0.024 A 
HETATM   10  C   UNL     1       5.113  25.026  53.940  1.00  0.00     0.012 A 
HETATM   11  C   UNL     1       4.581  24.756  52.679  1.00  0.00     0.001 A 
HETATM   12  C   UNL     1       5.201  25.261  51.538  1.00  0.00     0.000 A 
HETATM   13  C   UNL     1       6.357  26.033  51.654  1.00  0.00     0.001 A 
HETATM   14  C   UNL     1       6.897  26.300  52.914  1.00  0.00     0.012 A 
ENDBRANCH   7   9
BRANCH   8  15
HETATM   15  C   UNL     1       5.465  28.228  55.998  1.00  0.00     0.296 C 
HETATM   16  O   UNL     1       4.279  28.013  56.220  1.00  0.00    -0.259 OA
BRANCH  15  17
HETATM   17  O   UNL     1       5.927  29.396  55.464  1.00  0.00    -0.322 OA
HETATM   18  C   UNL     1       4.906  30.310  55.064  1.00  0.00     0.213 C 
ENDBRANCH  15  17
ENDBRANCH   8  15
ENDBRANCH   1   3
BRANCH   1  19
HETATM   19  C   UNL     1       8.209  29.421  58.031  1.00  0.00     0.170 C 
HETATM   20  S   UNL     1       9.824  29.507  57.571  1.00  0.00    -0.045 SA
BRANCH  19  21
HETATM   21  N   UNL     1       7.346  30.488  58.075  1.00  0.00    -0.278 N 
HETATM   22  H   UNL     1       6.542  30.418  57.439  1.00  0.00     0.189 HD
BRANCH  21  23
HETATM   23  N   UNL     1       7.042  31.104  59.303  1.00  0.00    -0.266 N 
HETATM   24  C   UNL     1       7.814  32.163  59.740  1.00  0.00     0.260 C 
HETATM   25  O   UNL     1       8.878  32.498  59.224  1.00  0.00    -0.269 OA
HETATM   26  H   UNL     1       6.086  31.011  59.645  1.00  0.00     0.190 HD
BRANCH  24  27
HETATM   27  C   UNL     1       7.220  32.909  60.934  1.00  0.00     0.280 C 
BRANCH  27  28
HETATM   28  O   UNL     1       7.073  32.041  62.055  1.00  0.00    -0.340 OA
BRANCH  28  29
HETATM   29  C   UNL     1       6.701  32.602  63.247  1.00  0.00     0.091 A 
HETATM   30  C   UNL     1       5.320  32.741  63.478  1.00  0.00     0.068 A 
HETATM   31 CL   UNL     1       4.162  32.204  62.309  1.00  0.00    -0.081 Cl
HETATM   32  C   UNL     1       4.843  33.307  64.661  1.00  0.00     0.046 A 
HETATM   33  C   UNL     1       5.749  33.746  65.621  1.00  0.00     0.012 A 
HETATM   34 BR   UNL     1       5.117  34.515  67.228  1.00  0.00    -0.051 Br
HETATM   35  C   UNL     1       7.120  33.626  65.406  1.00  0.00     0.022 A 
HETATM   36  C   UNL     1       7.596  33.057  64.219  1.00  0.00     0.040 A 
ENDBRANCH  28  29
ENDBRANCH  27  28
ENDBRANCH  24  27
ENDBRANCH  21  23
ENDBRANCH  19  21
ENDBRANCH   1  19
TORSDOF 10
ENDMDL
MODEL 6
REMARK VINA RESULT:      -9.0      4.203     10.251
REMARK  10 active torsions:
REMARK  status: ('A' for Active; 'I' for Inactive)
REMARK    1  A    between atoms: C_4  and  N_5 
REMARK    2  A    between atoms: N_5  and  C_6 
REMARK    3  A    between atoms: C_6  and  N_7 
REMARK    4  A    between atoms: N_7  and  N_8 
REMARK       I    between atoms: N_8  and  C_9 
REMARK    5  A    between atoms: C_9  and  C_10 
REMARK    6  A    between atoms: C_10  and  O_11 
REMARK    7  A    between atoms: O_11  and  C_12 
REMARK    8  A    between atoms: C_22  and  C_23 
REMARK    9  A    between atoms: C_23  and  O_24 
REMARK   10  A    between atoms: C_27  and  C_28 
ROOT
HETATM    1  N   UNL     1       5.682  32.312  57.219  1.00  0.00    -0.228 NA
HETATM    2  H   UNL     1       6.559  32.694  56.875  1.00  0.00     0.136 HD
ENDROOT
BRANCH   1   3
HETATM    3  C   UNL     1       5.582  32.406  58.601  1.00  0.00     0.073 C 
HETATM    4  S   UNL     1       3.955  32.427  59.099  1.00  0.00    -0.081 SA
HETATM    5  C   UNL     1       4.382  32.782  60.713  1.00  0.00    -0.007 C 
HETATM    6  C   UNL     1       3.300  33.075  61.703  1.00  0.00     0.057 C 
HETATM    7  C   UNL     1       5.759  32.737  60.891  1.00  0.00     0.005 C 
HETATM    8  C   UNL     1       6.470  32.410  59.662  1.00  0.00     0.080 C 
BRANCH   7   9
HETATM    9  C   UNL     1       6.351  33.058  62.187  1.00  0.00    -0.024 A 
HETATM   10  C   UNL     1       6.113  34.315  62.759  1.00  0.00     0.012 A 
HETATM   11  C   UNL     1       6.663  34.637  64.001  1.00  0.00     0.001 A 
HETATM   12  C   UNL     1       7.448  33.705  64.677  1.00  0.00     0.000 A 
HETATM   13  C   UNL     1       7.690  32.453  64.112  1.00  0.00     0.001 A 
HETATM   14  C   UNL     1       7.146  32.129  62.867  1.00  0.00     0.012 A 
ENDBRANCH   7   9
BRANCH   8  15
HETATM   15  C   UNL     1       7.895  32.102  59.545  1.00  0.00     0.296 C 
HETATM   16  O   UNL     1       8.786  32.872  59.886  1.00  0.00    -0.259 OA
BRANCH  15  17
HETATM   17  O   UNL     1       8.135  30.888  58.970  1.00  0.00    -0.322 OA
HETATM   18  C   UNL     1       9.430  30.754  58.386  1.00  0.00     0.213 C 
ENDBRANCH  15  17
ENDBRANCH   8  15
ENDBRANCH   1   3
BRANCH   1  19
HETATM   19  C   UNL     1       5.433  31.126  56.561  1.00  0.00     0.170 C 
HETATM   20  S   UNL     1       4.006  31.025  55.678  1.00  0.00    -0.045 SA
BRANCH  19  21
HETATM   21  N   UNL     1       6.397  30.150  56.612  1.00  0.00    -0.278 N 
HETATM   22  H   UNL     1       6.350  29.542  57.439  1.00  0.00     0.189 HD
BRANCH  21  23
HETATM   23  N   UNL     1       6.792  29.480  55.440  1.00  0.00    -0.266 N 
HETATM   24  C   UNL     1       7.558  28.335  55.537  1.00  0.00     0.260 C 
HETATM   25  O   UNL     1       8.088  27.948  56.578  1.00  0.00    -0.269 OA
HETATM   26  H   UNL     1       6.224  29.629  54.607  1.00  0.00     0.190 HD
BRANCH  24  27
HETATM   27  C   UNL     1       7.685  27.562  54.225  1.00  0.00     0.280 C 
BRANCH  27  28
HETATM   28  O   UNL     1       6.654  26.585  54.108  1.00  0.00    -0.340 OA
BRANCH  28  29
HETATM   29  C   UNL     1       7.031  25.287  53.889  1.00  0.00     0.091 A 
HETATM   30  C   UNL     1       6.906  24.400  54.974  1.00  0.00     0.068 A 
HETATM   31 CL   UNL     1       6.282  24.936  56.497  1.00  0.00    -0.081 Cl
HETATM   32  C   UNL     1       7.272  23.059  54.850  1.00  0.00     0.046 A 
HETATM   33  C   UNL     1       7.774  22.597  53.638  1.00  0.00     0.012 A 
HETATM   34 BR   UNL     1       8.273  20.784  53.457  1.00  0.00    -0.051 Br
HETATM   35  C   UNL     1       7.916  23.464  52.556  1.00  0.00     0.022 A 
HETATM   36  C   UNL     1       7.547  24.808  52.682  1.00  0.00     0.040 A 
ENDBRANCH  28  29
ENDBRANCH  27  28
ENDBRANCH  24  27
ENDBRANCH  21  23
ENDBRANCH  19  21
ENDBRANCH   1  19
TORSDOF 10
ENDMDL
MODEL 7
REMARK VINA RESULT:      -8.9      4.473     10.655
REMARK  10 active torsions:
REMARK  status: ('A' for Active; 'I' for Inactive)
REMARK    1  A    between atoms: C_4  and  N_5 
REMARK    2  A    between atoms: N_5  and  C_6 
REMARK    3  A    between atoms: C_6  and  N_7 
REMARK    4  A    between atoms: N_7  and  N_8 
REMARK       I    between atoms: N_8  and  C_9 
REMARK    5  A    between atoms: C_9  and  C_10 
REMARK    6  A    between atoms: C_10  and  O_11 
REMARK    7  A    between atoms: O_11  and  C_12 
REMARK    8  A    between atoms: C_22  and  C_23 
REMARK    9  A    between atoms: C_23  and  O_24 
REMARK   10  A    between atoms: C_27  and  C_28 
ROOT
HETATM    1  N   UNL     1       5.881  31.150  57.628  1.00  0.00    -0.228 NA
HETATM    2  H   UNL     1       6.658  30.640  57.213  1.00  0.00     0.136 HD
ENDROOT
BRANCH   1   3
HETATM    3  C   UNL     1       6.225  31.714  58.848  1.00  0.00     0.073 C 
HETATM    4  S   UNL     1       7.794  31.252  59.319  1.00  0.00    -0.081 SA
HETATM    5  C   UNL     1       7.612  31.956  60.863  1.00  0.00    -0.007 C 
HETATM    6  C   UNL     1       8.690  31.761  61.882  1.00  0.00     0.057 C 
HETATM    7  C   UNL     1       6.420  32.662  60.958  1.00  0.00     0.005 C 
HETATM    8  C   UNL     1       5.641  32.609  59.727  1.00  0.00     0.080 C 
BRANCH   7   9
HETATM    9  C   UNL     1       6.036  33.306  62.212  1.00  0.00    -0.024 A 
HETATM   10  C   UNL     1       6.235  34.685  62.365  1.00  0.00     0.012 A 
HETATM   11  C   UNL     1       5.866  35.319  63.552  1.00  0.00     0.001 A 
HETATM   12  C   UNL     1       5.294  34.583  64.587  1.00  0.00     0.000 A 
HETATM   13  C   UNL     1       5.095  33.210  64.441  1.00  0.00     0.001 A 
HETATM   14  C   UNL     1       5.469  32.570  63.258  1.00  0.00     0.012 A 
ENDBRANCH   7   9
BRANCH   8  15
HETATM   15  C   UNL     1       4.441  33.391  59.432  1.00  0.00     0.296 C 
HETATM   16  O   UNL     1       4.444  34.410  58.751  1.00  0.00    -0.259 OA
BRANCH  15  17
HETATM   17  O   UNL     1       3.320  32.898  60.035  1.00  0.00    -0.322 OA
HETATM   18  C   UNL     1       2.622  33.838  60.851  1.00  0.00     0.213 C 
ENDBRANCH  15  17
ENDBRANCH   8  15
ENDBRANCH   1   3
BRANCH   1  19
HETATM   19  C   UNL     1       4.737  30.395  57.484  1.00  0.00     0.170 C 
HETATM   20  S   UNL     1       3.437  31.116  56.698  1.00  0.00    -0.045 SA
BRANCH  19  21
HETATM   21  N   UNL     1       4.768  29.094  57.921  1.00  0.00    -0.278 N 
HETATM   22  H   UNL     1       4.133  28.887  58.703  1.00  0.00     0.189 HD
BRANCH  21  23
HETATM   23  N   UNL     1       4.890  28.038  57.000  1.00  0.00    -0.266 N 
HETATM   24  C   UNL     1       6.147  27.648  56.577  1.00  0.00     0.260 C 
HETATM   25  O   UNL     1       7.176  28.282  56.804  1.00  0.00    -0.269 OA
HETATM   26  H   UNL     1       4.121  27.371  56.952  1.00  0.00     0.190 HD
BRANCH  24  27
HETATM   27  C   UNL     1       6.158  26.331  55.801  1.00  0.00     0.280 C 
BRANCH  27  28
HETATM   28  O   UNL     1       7.458  26.053  55.290  1.00  0.00    -0.340 OA
BRANCH  28  29
HETATM   29  C   UNL     1       7.671  24.821  54.733  1.00  0.00     0.091 A 
HETATM   30  C   UNL     1       8.343  23.874  55.527  1.00  0.00     0.068 A 
HETATM   31 CL   UNL     1       8.849  24.258  57.136  1.00  0.00    -0.081 Cl
HETATM   32  C   UNL     1       8.611  22.593  55.043  1.00  0.00     0.046 A 
HETATM   33  C   UNL     1       8.215  22.252  53.754  1.00  0.00     0.012 A 
HETATM   34 BR   UNL     1       8.573  20.521  53.086  1.00  0.00    -0.051 Br
HETATM   35  C   UNL     1       7.558  23.181  52.949  1.00  0.00     0.022 A 
HETATM   36  C   UNL     1       7.288  24.465  53.436  1.00  0.00     0.040 A 
ENDBRANCH  28  29
ENDBRANCH  27  28
ENDBRANCH  24  27
ENDBRANCH  21  23
ENDBRANCH  19  21
ENDBRANCH   1  19
TORSDOF 10
ENDMDL
MODEL 8
REMARK VINA RESULT:      -8.6      4.554     10.643
REMARK  10 active torsions:
REMARK  status: ('A' for Active; 'I' for Inactive)
REMARK    1  A    between atoms: C_4  and  N_5 
REMARK    2  A    between atoms: N_5  and  C_6 
REMARK    3  A    between atoms: C_6  and  N_7 
REMARK    4  A    between atoms: N_7  and  N_8 
REMARK       I    between atoms: N_8  and  C_9 
REMARK    5  A    between atoms: C_9  and  C_10 
REMARK    6  A    between atoms: C_10  and  O_11 
REMARK    7  A    between atoms: O_11  and  C_12 
REMARK    8  A    between atoms: C_22  and  C_23 
REMARK    9  A    between atoms: C_23  and  O_24 
REMARK   10  A    between atoms: C_27  and  C_28 
ROOT
HETATM    1  N   UNL     1       7.257  31.573  58.127  1.00  0.00    -0.228 NA
HETATM    2  H   UNL     1       7.992  32.230  57.877  1.00  0.00     0.136 HD
ENDROOT
BRANCH   1   3
HETATM    3  C   UNL     1       6.501  32.025  59.200  1.00  0.00     0.073 C 
HETATM    4  S   UNL     1       4.854  32.141  58.784  1.00  0.00    -0.081 SA
HETATM    5  C   UNL     1       4.468  32.918  60.254  1.00  0.00    -0.007 C 
HETATM    6  C   UNL     1       3.080  33.437  60.458  1.00  0.00     0.057 C 
HETATM    7  C   UNL     1       5.561  32.951  61.109  1.00  0.00     0.005 C 
HETATM    8  C   UNL     1       6.743  32.327  60.528  1.00  0.00     0.080 C 
BRANCH   7   9
HETATM    9  C   UNL     1       5.470  33.614  62.408  1.00  0.00    -0.024 A 
HETATM   10  C   UNL     1       5.786  34.976  62.507  1.00  0.00     0.012 A 
HETATM   11  C   UNL     1       5.696  35.629  63.737  1.00  0.00     0.001 A 
HETATM   12  C   UNL     1       5.287  34.928  64.870  1.00  0.00     0.000 A 
HETATM   13  C   UNL     1       4.972  33.572  64.777  1.00  0.00     0.001 A 
HETATM   14  C   UNL     1       5.067  32.913  63.550  1.00  0.00     0.012 A 
ENDBRANCH   7   9
BRANCH   8  15
HETATM   15  C   UNL     1       7.994  32.031  61.226  1.00  0.00     0.296 C 
HETATM   16  O   UNL     1       8.054  31.394  62.271  1.00  0.00    -0.259 OA
BRANCH  15  17
HETATM   17  O   UNL     1       9.087  32.580  60.621  1.00  0.00    -0.322 OA
HETATM   18  C   UNL     1      10.311  31.888  60.865  1.00  0.00     0.213 C 
ENDBRANCH  15  17
ENDBRANCH   8  15
ENDBRANCH   1   3
BRANCH   1  19
HETATM   19  C   UNL     1       7.785  30.299  58.107  1.00  0.00     0.170 C 
HETATM   20  S   UNL     1       9.432  30.157  57.802  1.00  0.00    -0.045 SA
BRANCH  19  21
HETATM   21  N   UNL     1       6.948  29.254  58.410  1.00  0.00    -0.278 N 
HETATM   22  H   UNL     1       6.232  29.466  59.115  1.00  0.00     0.189 HD
BRANCH  21  23
HETATM   23  N   UNL     1       6.503  28.385  57.397  1.00  0.00    -0.266 N 
HETATM   24  C   UNL     1       7.050  27.120  57.299  1.00  0.00     0.260 C 
HETATM   25  O   UNL     1       8.045  26.751  57.921  1.00  0.00    -0.269 OA
HETATM   26  H   UNL     1       5.574  28.556  57.014  1.00  0.00     0.190 HD
BRANCH  24  27
HETATM   27  C   UNL     1       6.297  26.193  56.346  1.00  0.00     0.280 C 
BRANCH  27  28
HETATM   28  O   UNL     1       7.015  26.026  55.126  1.00  0.00    -0.340 OA
BRANCH  28  29
HETATM   29  C   UNL     1       7.326  24.748  54.743  1.00  0.00     0.091 A 
HETATM   30  C   UNL     1       7.512  24.528  53.366  1.00  0.00     0.068 A 
HETATM   31 CL   UNL     1       7.374  25.824  52.228  1.00  0.00    -0.081 Cl
HETATM   32  C   UNL     1       7.825  23.258  52.878  1.00  0.00     0.046 A 
HETATM   33  C   UNL     1       7.946  22.196  53.768  1.00  0.00     0.012 A 
HETATM   34 BR   UNL     1       8.369  20.471  53.121  1.00  0.00    -0.051 Br
HETATM   35  C   UNL     1       7.754  22.393  55.134  1.00  0.00     0.022 A 
HETATM   36  C   UNL     1       7.442  23.667  55.621  1.00  0.00     0.040 A 
ENDBRANCH  28  29
ENDBRANCH  27  28
ENDBRANCH  24  27
ENDBRANCH  21  23
ENDBRANCH  19  21
ENDBRANCH   1  19
TORSDOF 10
ENDMDL
MODEL 9
REMARK VINA RESULT:      -8.5      7.639     10.347
REMARK  10 active torsions:
REMARK  status: ('A' for Active; 'I' for Inactive)
REMARK    1  A    between atoms: C_4  and  N_5 
REMARK    2  A    between atoms: N_5  and  C_6 
REMARK    3  A    between atoms: C_6  and  N_7 
REMARK    4  A    between atoms: N_7  and  N_8 
REMARK       I    between atoms: N_8  and  C_9 
REMARK    5  A    between atoms: C_9  and  C_10 
REMARK    6  A    between atoms: C_10  and  O_11 
REMARK    7  A    between atoms: O_11  and  C_12 
REMARK    8  A    between atoms: C_22  and  C_23 
REMARK    9  A    between atoms: C_23  and  O_24 
REMARK   10  A    between atoms: C_27  and  C_28 
ROOT
HETATM    1  N   UNL     1       5.369  27.714  55.486  1.00  0.00    -0.228 NA
HETATM    2  H   UNL     1       4.967  27.976  56.382  1.00  0.00     0.136 HD
ENDROOT
BRANCH   1   3
HETATM    3  C   UNL     1       5.946  26.451  55.525  1.00  0.00     0.073 C 
HETATM    4  S   UNL     1       6.722  26.178  57.016  1.00  0.00    -0.081 SA
HETATM    5  C   UNL     1       7.411  24.716  56.466  1.00  0.00    -0.007 C 
HETATM    6  C   UNL     1       8.388  23.999  57.342  1.00  0.00     0.057 C 
HETATM    7  C   UNL     1       6.930  24.374  55.209  1.00  0.00     0.005 C 
HETATM    8  C   UNL     1       5.978  25.349  54.691  1.00  0.00     0.080 C 
BRANCH   7   9
HETATM    9  C   UNL     1       7.424  23.182  54.524  1.00  0.00    -0.024 A 
HETATM   10  C   UNL     1       7.923  23.296  53.219  1.00  0.00     0.012 A 
HETATM   11  C   UNL     1       8.407  22.171  52.551  1.00  0.00     0.001 A 
HETATM   12  C   UNL     1       8.399  20.929  53.183  1.00  0.00     0.000 A 
HETATM   13  C   UNL     1       7.903  20.808  54.482  1.00  0.00     0.001 A 
HETATM   14  C   UNL     1       7.412  21.931  55.151  1.00  0.00     0.012 A 
ENDBRANCH   7   9
BRANCH   8  15
HETATM   15  C   UNL     1       5.154  25.196  53.493  1.00  0.00     0.296 C 
HETATM   16  O   UNL     1       4.396  24.251  53.305  1.00  0.00    -0.259 OA
BRANCH  15  17
HETATM   17  O   UNL     1       5.350  26.191  52.579  1.00  0.00    -0.322 OA
HETATM   18  C   UNL     1       5.959  25.765  51.360  1.00  0.00     0.213 C 
ENDBRANCH  15  17
ENDBRANCH   8  15
ENDBRANCH   1   3
BRANCH   1  19
HETATM   19  C   UNL     1       6.053  28.799  54.979  1.00  0.00     0.170 C 
HETATM   20  S   UNL     1       6.763  29.842  56.089  1.00  0.00    -0.045 SA
BRANCH  19  21
HETATM   21  N   UNL     1       6.166  28.905  53.615  1.00  0.00    -0.278 N 
HETATM   22  H   UNL     1       6.823  28.242  53.185  1.00  0.00     0.189 HD
BRANCH  21  23
HETATM   23  N   UNL     1       5.031  29.168  52.827  1.00  0.00    -0.266 N 
HETATM   24  C   UNL     1       5.192  29.532  51.504  1.00  0.00     0.260 C 
HETATM   25  O   UNL     1       6.274  29.832  51.000  1.00  0.00    -0.269 OA
HETATM   26  H   UNL     1       4.152  28.743  53.122  1.00  0.00     0.190 HD
BRANCH  24  27
HETATM   27  C   UNL     1       3.895  29.521  50.697  1.00  0.00     0.280 C 
BRANCH  27  28
HETATM   28  O   UNL     1       3.678  28.246  50.100  1.00  0.00    -0.340 OA
BRANCH  28  29
HETATM   29  C   UNL     1       2.729  28.158  49.117  1.00  0.00     0.091 A 
HETATM   30  C   UNL     1       2.937  27.187  48.121  1.00  0.00     0.068 A 
HETATM   31 CL   UNL     1       4.319  26.146  48.164  1.00  0.00    -0.081 Cl
HETATM   32  C   UNL     1       2.029  27.027  47.073  1.00  0.00     0.046 A 
HETATM   33  C   UNL     1       0.907  27.847  47.012  1.00  0.00     0.012 A 
HETATM   34 BR   UNL     1      -0.332  27.641  45.599  1.00  0.00    -0.051 Br
HETATM   35  C   UNL     1       0.690  28.822  47.983  1.00  0.00     0.022 A 
HETATM   36  C   UNL     1       1.601  28.980  49.034  1.00  0.00     0.040 A 
ENDBRANCH  28  29
ENDBRANCH  27  28
ENDBRANCH  24  27
ENDBRANCH  21  23
ENDBRANCH  19  21
ENDBRANCH   1  19
TORSDOF 10
ENDMDL
MODEL 10
REMARK VINA RESULT:      -8.5      1.818      2.538
REMARK  10 active torsions:
REMARK  status: ('A' for Active; 'I' for Inactive)
REMARK    1  A    between atoms: C_4  and  N_5 
REMARK    2  A    between atoms: N_5  and  C_6 
REMARK    3  A    between atoms: C_6  and  N_7 
REMARK    4  A    between atoms: N_7  and  N_8 
REMARK       I    between atoms: N_8  and  C_9 
REMARK    5  A    between atoms: C_9  and  C_10 
REMARK    6  A    between atoms: C_10  and  O_11 
REMARK    7  A    between atoms: O_11  and  C_12 
REMARK    8  A    between atoms: C_22  and  C_23 
REMARK    9  A    between atoms: C_23  and  O_24 
REMARK   10  A    between atoms: C_27  and  C_28 
ROOT
HETATM    1  N   UNL     1       3.836  28.351  55.852  1.00  0.00    -0.228 NA
HETATM    2  H   UNL     1       3.447  27.930  56.692  1.00  0.00     0.136 HD
ENDROOT
BRANCH   1   3
HETATM    3  C   UNL     1       4.589  27.445  55.119  1.00  0.00     0.073 C 
HETATM    4  S   UNL     1       4.059  27.371  53.503  1.00  0.00    -0.081 SA
HETATM    5  C   UNL     1       5.070  26.039  53.161  1.00  0.00    -0.007 C 
HETATM    6  C   UNL     1       4.963  25.369  51.827  1.00  0.00     0.057 C 
HETATM    7  C   UNL     1       5.908  25.754  54.230  1.00  0.00     0.005 C 
HETATM    8  C   UNL     1       5.699  26.654  55.358  1.00  0.00     0.080 C 
BRANCH   7   9
HETATM    9  C   UNL     1       6.825  24.618  54.174  1.00  0.00    -0.024 A 
HETATM   10  C   UNL     1       6.788  23.654  55.190  1.00  0.00     0.012 A 
HETATM   11  C   UNL     1       7.650  22.558  55.150  1.00  0.00     0.001 A 
HETATM   12  C   UNL     1       8.550  22.418  54.094  1.00  0.00     0.000 A 
HETATM   13  C   UNL     1       8.592  23.375  53.081  1.00  0.00     0.001 A 
HETATM   14  C   UNL     1       7.736  24.477  53.121  1.00  0.00     0.012 A 
ENDBRANCH   7   9
BRANCH   8  15
HETATM   15  C   UNL     1       6.534  26.745  56.555  1.00  0.00     0.296 C 
HETATM   16  O   UNL     1       6.089  26.729  57.697  1.00  0.00    -0.259 OA
BRANCH  15  17
HETATM   17  O   UNL     1       7.860  26.902  56.271  1.00  0.00    -0.322 OA
HETATM   18  C   UNL     1       8.526  27.880  57.069  1.00  0.00     0.213 C 
ENDBRANCH  15  17
ENDBRANCH   8  15
ENDBRANCH   1   3
BRANCH   1  19
HETATM   19  C   UNL     1       4.329  29.597  56.176  1.00  0.00     0.170 C 
HETATM   20  S   UNL     1       4.618  30.661  54.906  1.00  0.00    -0.045 SA
BRANCH  19  21
HETATM   21  N   UNL     1       4.474  29.903  57.506  1.00  0.00    -0.278 N 
HETATM   22  H   UNL     1       3.747  29.515  58.119  1.00  0.00     0.189 HD
BRANCH  21  23
HETATM   23  N   UNL     1       5.753  29.927  58.093  1.00  0.00    -0.266 N 
HETATM   24  C   UNL     1       6.376  31.140  58.315  1.00  0.00     0.260 C 
HETATM   25  O   UNL     1       5.974  32.212  57.864  1.00  0.00    -0.269 OA
HETATM   26  H   UNL     1       6.021  29.120  58.656  1.00  0.00     0.190 HD
BRANCH  24  27
HETATM   27  C   UNL     1       7.621  31.044  59.195  1.00  0.00     0.280 C 
BRANCH  27  28
HETATM   28  O   UNL     1       8.011  32.331  59.666  1.00  0.00    -0.340 OA
BRANCH  28  29
HETATM   29  C   UNL     1       7.638  32.682  60.936  1.00  0.00     0.091 A 
HETATM   30  C   UNL     1       8.491  32.284  61.981  1.00  0.00     0.068 A 
HETATM   31 CL   UNL     1       9.950  31.412  61.657  1.00  0.00    -0.081 Cl
HETATM   32  C   UNL     1       8.191  32.589  63.309  1.00  0.00     0.046 A 
HETATM   33  C   UNL     1       7.027  33.291  63.602  1.00  0.00     0.012 A 
HETATM   34 BR   UNL     1       6.608  33.712  65.396  1.00  0.00    -0.051 Br
HETATM   35  C   UNL     1       6.163  33.685  62.581  1.00  0.00     0.022 A 
HETATM   36  C   UNL     1       6.467  33.379  61.249  1.00  0.00     0.040 A 
ENDBRANCH  28  29
ENDBRANCH  27  28
ENDBRANCH  24  27
ENDBRANCH  21  23
ENDBRANCH  19  21
ENDBRANCH   1  19
TORSDOF 10
ENDMDL
