MODEL 1
REMARK VINA RESULT:     -10.3      0.000      0.000
REMARK  7 active torsions:
REMARK  status: ('A' for Active; 'I' for Inactive)
REMARK    1  A    between atoms: O_2  and  C_3 
REMARK    2  A    between atoms: N_7  and  C_9 
REMARK    3  A    between atoms: C_9  and  C_10 
REMARK    4  A    between atoms: C_11  and  O_12 
REMARK    5  A    between atoms: C_22  and  N_23 
REMARK       I    between atoms: N_23  and  C_24 
REMARK    6  A    between atoms: C_24  and  C_25 
REMARK    7  A    between atoms: C_25  and  C_26 
ROOT
HETATM    1  C   UNL     1       8.426  29.642  57.544  1.00  0.00     0.161 C 
HETATM    2  C   UNL     1       7.174  28.822  57.033  1.00  0.00     0.019 C 
HETATM    3  C   UNL     1       7.058  27.480  57.795  1.00  0.00     0.045 C 
HETATM    4  C   UNL     1       8.085  26.449  57.332  1.00  0.00     0.236 C 
HETATM    5  N   UNL     1       8.031  26.269  55.840  1.00  0.00    -0.067 N 
HETATM    6  H   UNL     1       8.828  25.662  55.583  1.00  0.00     0.280 HD
HETATM    7  C   UNL     1       8.253  27.564  55.105  1.00  0.00     0.236 C 
HETATM    8  C   UNL     1       7.187  28.569  55.508  1.00  0.00     0.045 C 
HETATM    9  C   UNL     1       6.022  29.729  57.410  1.00  0.00    -0.038 A 
HETATM   10  C   UNL     1       6.435  30.785  58.224  1.00  0.00    -0.026 A 
HETATM   11  C   UNL     1       7.897  30.714  58.556  1.00  0.00     0.148 C 
HETATM   12  C   UNL     1       4.680  29.601  57.060  1.00  0.00     0.009 A 
HETATM   13  C   UNL     1       3.765  30.551  57.520  1.00  0.00     0.001 A 
HETATM   14  C   UNL     1       4.189  31.616  58.323  1.00  0.00     0.001 A 
HETATM   15  C   UNL     1       5.530  31.736  58.683  1.00  0.00     0.010 A 
ENDROOT
BRANCH   1  16
HETATM   16  O   UNL     1       9.092  30.244  56.417  1.00  0.00    -0.387 OA
HETATM   17  C   UNL     1      10.511  30.094  56.456  1.00  0.00     0.202 C 
ENDBRANCH   1  16
BRANCH  11  18
HETATM   18  N   UNL     1       8.062  30.360  59.954  1.00  0.00    -0.350 N 
HETATM   19  C   UNL     1       8.664  31.212  60.855  1.00  0.00     0.223 C 
HETATM   20  O   UNL     1       9.316  32.193  60.501  1.00  0.00    -0.273 OA
HETATM   21  H   UNL     1       7.463  29.629  60.321  1.00  0.00     0.163 HD
BRANCH  19  22
HETATM   22  C   UNL     1       8.464  30.832  62.311  1.00  0.00     0.148 C 
BRANCH  22  23
HETATM   23  C   UNL     1       7.592  31.829  63.007  1.00  0.00    -0.009 A 
HETATM   24  S   UNL     1       5.900  31.859  62.722  1.00  0.00    -0.106 SA
HETATM   25  C   UNL     1       5.689  33.219  63.736  1.00  0.00     0.050 A 
HETATM   26  C   UNL     1       6.878  33.641  64.288  1.00  0.00     0.008 A 
HETATM   27  C   UNL     1       7.976  32.836  63.870  1.00  0.00     0.015 A 
ENDBRANCH  22  23
ENDBRANCH  19  22
ENDBRANCH  11  18
BRANCH   5  28
HETATM   28  C   UNL     1       6.844  25.477  55.331  1.00  0.00     0.276 C 
BRANCH  28  29
HETATM   29  C   UNL     1       7.222  24.143  54.746  1.00  0.00     0.002 A 
HETATM   30  C   UNL     1       7.527  24.018  53.385  1.00  0.00     0.073 A 
HETATM   31  C   UNL     1       7.847  22.784  52.824  1.00  0.00     0.039 A 
HETATM   32  C   UNL     1       7.876  21.649  53.635  1.00  0.00     0.026 A 
HETATM   33  C   UNL     1       7.584  21.758  54.992  1.00  0.00     0.034 A 
HETATM   34 CL   UNL     1       7.635  20.362  55.995  1.00  0.00    -0.084 Cl
HETATM   35  C   UNL     1       7.253  22.994  55.551  1.00  0.00     0.035 A 
BRANCH  30  36
HETATM   36  O   UNL     1       7.530  25.154  52.622  1.00  0.00    -0.360 OA
HETATM   37  H   UNL     1       6.786  25.717  52.916  1.00  0.00     0.217 HD
ENDBRANCH  30  36
ENDBRANCH  28  29
ENDBRANCH   5  28
TORSDOF 7
ENDMDL
MODEL 2
REMARK VINA RESULT:      -9.4      1.829      2.113
REMARK  7 active torsions:
REMARK  status: ('A' for Active; 'I' for Inactive)
REMARK    1  A    between atoms: O_2  and  C_3 
REMARK    2  A    between atoms: N_7  and  C_9 
REMARK    3  A    between atoms: C_9  and  C_10 
REMARK    4  A    between atoms: C_11  and  O_12 
REMARK    5  A    between atoms: C_22  and  N_23 
REMARK       I    between atoms: N_23  and  C_24 
REMARK    6  A    between atoms: C_24  and  C_25 
REMARK    7  A    between atoms: C_25  and  C_26 
ROOT
HETATM    1  C   UNL     1       8.500  29.826  58.002  1.00  0.00     0.161 C 
HETATM    2  C   UNL     1       7.197  29.218  57.346  1.00  0.00     0.019 C 
HETATM    3  C   UNL     1       6.786  27.913  58.070  1.00  0.00     0.045 C 
HETATM    4  C   UNL     1       7.679  26.729  57.704  1.00  0.00     0.236 C 
HETATM    5  N   UNL     1       7.760  26.558  56.212  1.00  0.00    -0.067 N 
HETATM    6  H   UNL     1       8.473  25.830  56.033  1.00  0.00     0.280 HD
HETATM    7  C   UNL     1       8.265  27.799  55.526  1.00  0.00     0.236 C 
HETATM    8  C   UNL     1       7.335  28.963  55.827  1.00  0.00     0.045 C 
HETATM    9  C   UNL     1       6.171  30.298  57.611  1.00  0.00    -0.038 A 
HETATM   10  C   UNL     1       6.656  31.275  58.481  1.00  0.00    -0.026 A 
HETATM   11  C   UNL     1       8.043  30.971  58.967  1.00  0.00     0.148 C 
HETATM   12  C   UNL     1       4.872  30.387  57.116  1.00  0.00     0.009 A 
HETATM   13  C   UNL     1       4.076  31.473  57.489  1.00  0.00     0.001 A 
HETATM   14  C   UNL     1       4.574  32.456  58.351  1.00  0.00     0.001 A 
HETATM   15  C   UNL     1       5.870  32.360  58.855  1.00  0.00     0.010 A 
ENDROOT
BRANCH   1  16
HETATM   16  O   UNL     1       9.373  30.311  56.963  1.00  0.00    -0.387 OA
HETATM   17  C   UNL     1      10.756  30.231  57.306  1.00  0.00     0.202 C 
ENDBRANCH   1  16
BRANCH  11  18
HETATM   18  N   UNL     1       7.996  30.597  60.369  1.00  0.00    -0.350 N 
HETATM   19  C   UNL     1       8.747  31.251  61.323  1.00  0.00     0.223 C 
HETATM   20  O   UNL     1       9.676  32.002  61.031  1.00  0.00    -0.273 OA
HETATM   21  H   UNL     1       7.188  30.071  60.682  1.00  0.00     0.163 HD
BRANCH  19  22
HETATM   22  C   UNL     1       8.340  30.957  62.756  1.00  0.00     0.148 C 
BRANCH  22  23
HETATM   23  C   UNL     1       7.469  32.047  63.296  1.00  0.00    -0.009 A 
HETATM   24  S   UNL     1       5.807  32.125  62.878  1.00  0.00    -0.106 SA
HETATM   25  C   UNL     1       5.588  33.575  63.756  1.00  0.00     0.050 A 
HETATM   26  C   UNL     1       6.752  33.992  64.362  1.00  0.00     0.008 A 
HETATM   27  C   UNL     1       7.837  33.107  64.100  1.00  0.00     0.015 A 
ENDBRANCH  22  23
ENDBRANCH  19  22
ENDBRANCH  11  18
BRANCH   5  28
HETATM   28  C   UNL     1       6.524  25.965  55.565  1.00  0.00     0.276 C 
BRANCH  28  29
HETATM   29  C   UNL     1       6.748  25.517  54.147  1.00  0.00     0.002 A 
HETATM   30  C   UNL     1       7.718  24.553  53.846  1.00  0.00     0.073 A 
HETATM   31  C   UNL     1       7.958  24.150  52.534  1.00  0.00     0.039 A 
HETATM   32  C   UNL     1       7.209  24.710  51.497  1.00  0.00     0.026 A 
HETATM   33  C   UNL     1       6.233  25.662  51.781  1.00  0.00     0.034 A 
HETATM   34 CL   UNL     1       5.299  26.340  50.507  1.00  0.00    -0.084 Cl
HETATM   35  C   UNL     1       6.002  26.072  53.096  1.00  0.00     0.035 A 
BRANCH  30  36
HETATM   36  O   UNL     1       8.410  23.992  54.884  1.00  0.00    -0.360 OA
HETATM   37  H   UNL     1       7.859  23.278  55.264  1.00  0.00     0.217 HD
ENDBRANCH  30  36
ENDBRANCH  28  29
ENDBRANCH   5  28
TORSDOF 7
ENDMDL
MODEL 3
REMARK VINA RESULT:      -9.2      4.068      5.848
REMARK  7 active torsions:
REMARK  status: ('A' for Active; 'I' for Inactive)
REMARK    1  A    between atoms: O_2  and  C_3 
REMARK    2  A    between atoms: N_7  and  C_9 
REMARK    3  A    between atoms: C_9  and  C_10 
REMARK    4  A    between atoms: C_11  and  O_12 
REMARK    5  A    between atoms: C_22  and  N_23 
REMARK       I    between atoms: N_23  and  C_24 
REMARK    6  A    between atoms: C_24  and  C_25 
REMARK    7  A    between atoms: C_25  and  C_26 
ROOT
HETATM    1  C   UNL     1       5.973  27.643  56.044  1.00  0.00     0.161 C 
HETATM    2  C   UNL     1       6.457  26.726  54.851  1.00  0.00     0.019 C 
HETATM    3  C   UNL     1       7.359  27.530  53.883  1.00  0.00     0.045 C 
HETATM    4  C   UNL     1       6.566  28.488  52.997  1.00  0.00     0.236 C 
HETATM    5  N   UNL     1       5.457  27.766  52.282  1.00  0.00    -0.067 N 
HETATM    6  H   UNL     1       4.888  28.487  51.807  1.00  0.00     0.280 HD
HETATM    7  C   UNL     1       4.522  27.076  53.239  1.00  0.00     0.236 C 
HETATM    8  C   UNL     1       5.295  26.067  54.072  1.00  0.00     0.045 C 
HETATM    9  C   UNL     1       7.279  25.675  55.566  1.00  0.00    -0.038 A 
HETATM   10  C   UNL     1       7.489  26.003  56.907  1.00  0.00    -0.026 A 
HETATM   11  C   UNL     1       6.894  27.332  57.271  1.00  0.00     0.148 C 
HETATM   12  C   UNL     1       7.822  24.506  55.040  1.00  0.00     0.009 A 
HETATM   13  C   UNL     1       8.560  23.664  55.875  1.00  0.00     0.001 A 
HETATM   14  C   UNL     1       8.755  23.991  57.221  1.00  0.00     0.001 A 
HETATM   15  C   UNL     1       8.220  25.168  57.745  1.00  0.00     0.010 A 
ENDROOT
BRANCH   1  16
HETATM   16  O   UNL     1       4.587  27.365  56.324  1.00  0.00    -0.387 OA
HETATM   17  C   UNL     1       3.788  28.543  56.436  1.00  0.00     0.202 C 
ENDBRANCH   1  16
BRANCH  11  18
HETATM   18  N   UNL     1       7.957  28.296  57.491  1.00  0.00    -0.350 N 
HETATM   19  C   UNL     1       7.713  29.535  58.044  1.00  0.00     0.223 C 
HETATM   20  O   UNL     1       6.580  29.999  58.150  1.00  0.00    -0.273 OA
HETATM   21  H   UNL     1       8.906  27.941  57.524  1.00  0.00     0.163 HD
BRANCH  19  22
HETATM   22  C   UNL     1       8.958  30.278  58.497  1.00  0.00     0.148 C 
BRANCH  22  23
HETATM   23  C   UNL     1       8.756  30.875  59.855  1.00  0.00    -0.009 A 
HETATM   24  S   UNL     1       7.850  32.319  60.048  1.00  0.00    -0.106 SA
HETATM   25  C   UNL     1       8.155  32.361  61.730  1.00  0.00     0.050 A 
HETATM   26  C   UNL     1       8.926  31.296  62.141  1.00  0.00     0.008 A 
HETATM   27  C   UNL     1       9.269  30.436  61.059  1.00  0.00     0.015 A 
ENDBRANCH  22  23
ENDBRANCH  19  22
ENDBRANCH  11  18
BRANCH   5  28
HETATM   28  C   UNL     1       5.899  26.890  51.127  1.00  0.00     0.276 C 
BRANCH  28  29
HETATM   29  C   UNL     1       5.119  27.128  49.863  1.00  0.00     0.002 A 
HETATM   30  C   UNL     1       5.064  28.402  49.285  1.00  0.00     0.073 A 
HETATM   31  C   UNL     1       4.320  28.644  48.132  1.00  0.00     0.039 A 
HETATM   32  C   UNL     1       3.623  27.593  47.533  1.00  0.00     0.026 A 
HETATM   33  C   UNL     1       3.676  26.318  48.091  1.00  0.00     0.034 A 
HETATM   34 CL   UNL     1       2.831  25.020  47.344  1.00  0.00    -0.084 Cl
HETATM   35  C   UNL     1       4.413  26.080  49.252  1.00  0.00     0.035 A 
BRANCH  30  36
HETATM   36  O   UNL     1       5.789  29.404  49.870  1.00  0.00    -0.360 OA
HETATM   37  H   UNL     1       6.424  28.994  50.492  1.00  0.00     0.217 HD
ENDBRANCH  30  36
ENDBRANCH  28  29
ENDBRANCH   5  28
TORSDOF 7
ENDMDL
MODEL 4
REMARK VINA RESULT:      -9.1      4.521      7.074
REMARK  7 active torsions:
REMARK  status: ('A' for Active; 'I' for Inactive)
REMARK    1  A    between atoms: O_2  and  C_3 
REMARK    2  A    between atoms: N_7  and  C_9 
REMARK    3  A    between atoms: C_9  and  C_10 
REMARK    4  A    between atoms: C_11  and  O_12 
REMARK    5  A    between atoms: C_22  and  N_23 
REMARK       I    between atoms: N_23  and  C_24 
REMARK    6  A    between atoms: C_24  and  C_25 
REMARK    7  A    between atoms: C_25  and  C_26 
ROOT
HETATM    1  C   UNL     1       6.302  26.174  55.456  1.00  0.00     0.161 C 
HETATM    2  C   UNL     1       6.540  25.462  54.065  1.00  0.00     0.019 C 
HETATM    3  C   UNL     1       7.274  26.413  53.089  1.00  0.00     0.045 C 
HETATM    4  C   UNL     1       6.360  27.499  52.524  1.00  0.00     0.236 C 
HETATM    5  N   UNL     1       5.122  26.897  51.918  1.00  0.00    -0.067 N 
HETATM    6  H   UNL     1       4.496  27.684  51.674  1.00  0.00     0.280 HD
HETATM    7  C   UNL     1       4.356  26.060  52.907  1.00  0.00     0.236 C 
HETATM    8  C   UNL     1       5.240  24.933  53.416  1.00  0.00     0.045 C 
HETATM    9  C   UNL     1       7.448  24.312  54.444  1.00  0.00    -0.038 A 
HETATM   10  C   UNL     1       7.904  24.421  55.758  1.00  0.00    -0.026 A 
HETATM   11  C   UNL     1       7.420  25.672  56.430  1.00  0.00     0.148 C 
HETATM   12  C   UNL     1       7.857  23.244  53.649  1.00  0.00     0.009 A 
HETATM   13  C   UNL     1       8.711  22.281  54.192  1.00  0.00     0.001 A 
HETATM   14  C   UNL     1       9.153  22.389  55.516  1.00  0.00     0.001 A 
HETATM   15  C   UNL     1       8.752  23.464  56.306  1.00  0.00     0.010 A 
ENDROOT
BRANCH   1  16
HETATM   16  O   UNL     1       4.982  25.851  55.935  1.00  0.00    -0.387 OA
HETATM   17  C   UNL     1       4.950  25.539  57.328  1.00  0.00     0.202 C 
ENDBRANCH   1  16
BRANCH  11  18
HETATM   18  N   UNL     1       8.530  26.592  56.603  1.00  0.00    -0.350 N 
HETATM   19  C   UNL     1       8.363  27.959  56.525  1.00  0.00     0.223 C 
HETATM   20  O   UNL     1       7.347  28.474  56.063  1.00  0.00    -0.273 OA
HETATM   21  H   UNL     1       9.352  26.242  57.083  1.00  0.00     0.163 HD
BRANCH  19  22
HETATM   22  C   UNL     1       9.538  28.768  57.045  1.00  0.00     0.148 C 
BRANCH  22  23
HETATM   23  C   UNL     1       9.079  29.815  58.010  1.00  0.00    -0.009 A 
HETATM   24  S   UNL     1       9.999  31.243  58.253  1.00  0.00    -0.106 SA
HETATM   25  C   UNL     1       8.927  31.804  59.461  1.00  0.00     0.050 A 
HETATM   26  C   UNL     1       7.886  30.929  59.674  1.00  0.00     0.008 A 
HETATM   27  C   UNL     1       7.971  29.782  58.833  1.00  0.00     0.015 A 
ENDBRANCH  22  23
ENDBRANCH  19  22
ENDBRANCH  11  18
BRANCH   5  28
HETATM   28  C   UNL     1       5.326  26.219  50.578  1.00  0.00     0.276 C 
BRANCH  28  29
HETATM   29  C   UNL     1       4.628  26.916  49.443  1.00  0.00     0.002 A 
HETATM   30  C   UNL     1       3.642  26.257  48.697  1.00  0.00     0.073 A 
HETATM   31  C   UNL     1       3.010  26.878  47.622  1.00  0.00     0.039 A 
HETATM   32  C   UNL     1       3.355  28.189  47.288  1.00  0.00     0.026 A 
HETATM   33  C   UNL     1       4.326  28.861  48.026  1.00  0.00     0.034 A 
HETATM   34 CL   UNL     1       4.741  30.480  47.624  1.00  0.00    -0.084 Cl
HETATM   35  C   UNL     1       4.967  28.233  49.095  1.00  0.00     0.035 A 
BRANCH  30  36
HETATM   36  O   UNL     1       3.295  24.988  49.071  1.00  0.00    -0.360 OA
HETATM   37  H   UNL     1       3.972  24.663  49.700  1.00  0.00     0.217 HD
ENDBRANCH  30  36
ENDBRANCH  28  29
ENDBRANCH   5  28
TORSDOF 7
ENDMDL
MODEL 5
REMARK VINA RESULT:      -8.5      7.656     11.347
REMARK  7 active torsions:
REMARK  status: ('A' for Active; 'I' for Inactive)
REMARK    1  A    between atoms: O_2  and  C_3 
REMARK    2  A    between atoms: N_7  and  C_9 
REMARK    3  A    between atoms: C_9  and  C_10 
REMARK    4  A    between atoms: C_11  and  O_12 
REMARK    5  A    between atoms: C_22  and  N_23 
REMARK       I    between atoms: N_23  and  C_24 
REMARK    6  A    between atoms: C_24  and  C_25 
REMARK    7  A    between atoms: C_25  and  C_26 
ROOT
HETATM    1  C   UNL     1       4.510  28.417  50.954  1.00  0.00     0.161 C 
HETATM    2  C   UNL     1       4.341  28.924  49.467  1.00  0.00     0.019 C 
HETATM    3  C   UNL     1       5.696  29.423  48.909  1.00  0.00     0.045 C 
HETATM    4  C   UNL     1       6.096  30.788  49.466  1.00  0.00     0.236 C 
HETATM    5  N   UNL     1       4.992  31.791  49.276  1.00  0.00    -0.067 N 
HETATM    6  H   UNL     1       5.275  32.647  49.784  1.00  0.00     0.280 HD
HETATM    7  C   UNL     1       3.705  31.345  49.916  1.00  0.00     0.236 C 
HETATM    8  C   UNL     1       3.264  30.022  49.310  1.00  0.00     0.045 C 
HETATM    9  C   UNL     1       3.920  27.663  48.743  1.00  0.00    -0.038 A 
HETATM   10  C   UNL     1       4.046  26.532  49.553  1.00  0.00    -0.026 A 
HETATM   11  C   UNL     1       4.616  26.856  50.903  1.00  0.00     0.148 C 
HETATM   12  C   UNL     1       3.471  27.536  47.431  1.00  0.00     0.009 A 
HETATM   13  C   UNL     1       3.135  26.269  46.948  1.00  0.00     0.001 A 
HETATM   14  C   UNL     1       3.250  25.142  47.770  1.00  0.00     0.001 A 
HETATM   15  C   UNL     1       3.710  25.269  49.079  1.00  0.00     0.010 A 
ENDROOT
BRANCH   1  16
HETATM   16  O   UNL     1       3.382  28.857  51.736  1.00  0.00    -0.387 OA
HETATM   17  C   UNL     1       3.523  28.583  53.130  1.00  0.00     0.202 C 
ENDBRANCH   1  16
BRANCH  11  18
HETATM   18  N   UNL     1       5.968  26.338  50.998  1.00  0.00    -0.350 N 
HETATM   19  C   UNL     1       6.507  25.922  52.197  1.00  0.00     0.223 C 
HETATM   20  O   UNL     1       5.993  26.192  53.280  1.00  0.00    -0.273 OA
HETATM   21  H   UNL     1       6.395  25.997  50.143  1.00  0.00     0.163 HD
BRANCH  19  22
HETATM   22  C   UNL     1       7.789  25.119  52.066  1.00  0.00     0.148 C 
BRANCH  22  23
HETATM   23  C   UNL     1       7.808  23.984  53.042  1.00  0.00    -0.009 A 
HETATM   24  S   UNL     1       8.058  24.274  54.714  1.00  0.00    -0.106 SA
HETATM   25  C   UNL     1       8.030  22.603  55.074  1.00  0.00     0.050 A 
HETATM   26  C   UNL     1       7.829  21.836  53.947  1.00  0.00     0.008 A 
HETATM   27  C   UNL     1       7.697  22.634  52.775  1.00  0.00     0.015 A 
ENDBRANCH  22  23
ENDBRANCH  19  22
ENDBRANCH  11  18
BRANCH   5  28
HETATM   28  C   UNL     1       4.821  32.298  47.858  1.00  0.00     0.276 C 
BRANCH  28  29
HETATM   29  C   UNL     1       5.960  33.162  47.390  1.00  0.00     0.002 A 
HETATM   30  C   UNL     1       6.427  33.078  46.073  1.00  0.00     0.073 A 
HETATM   31  C   UNL     1       7.502  33.848  45.634  1.00  0.00     0.039 A 
HETATM   32  C   UNL     1       8.120  34.731  46.521  1.00  0.00     0.026 A 
HETATM   33  C   UNL     1       7.661  34.834  47.832  1.00  0.00     0.034 A 
HETATM   34 CL   UNL     1       8.411  35.933  48.920  1.00  0.00    -0.084 Cl
HETATM   35  C   UNL     1       6.591  34.053  48.272  1.00  0.00     0.035 A 
BRANCH  30  36
HETATM   36  O   UNL     1       5.778  32.234  45.214  1.00  0.00    -0.360 OA
HETATM   37  H   UNL     1       4.925  31.983  45.624  1.00  0.00     0.217 HD
ENDBRANCH  30  36
ENDBRANCH  28  29
ENDBRANCH   5  28
TORSDOF 7
ENDMDL
MODEL 6
REMARK VINA RESULT:      -8.3      5.598      7.611
REMARK  7 active torsions:
REMARK  status: ('A' for Active; 'I' for Inactive)
REMARK    1  A    between atoms: O_2  and  C_3 
REMARK    2  A    between atoms: N_7  and  C_9 
REMARK    3  A    between atoms: C_9  and  C_10 
REMARK    4  A    between atoms: C_11  and  O_12 
REMARK    5  A    between atoms: C_22  and  N_23 
REMARK       I    between atoms: N_23  and  C_24 
REMARK    6  A    between atoms: C_24  and  C_25 
REMARK    7  A    between atoms: C_25  and  C_26 
ROOT
HETATM    1  C   UNL     1       5.214  27.683  51.677  1.00  0.00     0.161 C 
HETATM    2  C   UNL     1       5.561  27.390  53.192  1.00  0.00     0.019 C 
HETATM    3  C   UNL     1       7.074  27.590  53.449  1.00  0.00     0.045 C 
HETATM    4  C   UNL     1       7.922  26.445  52.898  1.00  0.00     0.236 C 
HETATM    5  N   UNL     1       7.423  25.117  53.401  1.00  0.00    -0.067 N 
HETATM    6  H   UNL     1       7.954  24.388  52.894  1.00  0.00     0.280 HD
HETATM    7  C   UNL     1       5.978  24.886  53.051  1.00  0.00     0.236 C 
HETATM    8  C   UNL     1       5.122  25.984  53.661  1.00  0.00     0.045 C 
HETATM    9  C   UNL     1       4.770  28.460  53.914  1.00  0.00    -0.038 A 
HETATM   10  C   UNL     1       4.238  29.400  53.031  1.00  0.00    -0.026 A 
HETATM   11  C   UNL     1       4.633  29.136  51.607  1.00  0.00     0.148 C 
HETATM   12  C   UNL     1       4.560  28.592  55.285  1.00  0.00     0.009 A 
HETATM   13  C   UNL     1       3.798  29.665  55.754  1.00  0.00     0.001 A 
HETATM   14  C   UNL     1       3.255  30.595  54.861  1.00  0.00     0.001 A 
HETATM   15  C   UNL     1       3.476  30.469  53.491  1.00  0.00     0.010 A 
ENDROOT
BRANCH   1  16
HETATM   16  O   UNL     1       4.271  26.701  51.207  1.00  0.00    -0.387 OA
HETATM   17  C   UNL     1       4.503  26.299  49.857  1.00  0.00     0.202 C 
ENDBRANCH   1  16
BRANCH  11  18
HETATM   18  N   UNL     1       5.580  30.146  51.169  1.00  0.00    -0.350 N 
HETATM   19  C   UNL     1       5.616  30.594  49.866  1.00  0.00     0.223 C 
HETATM   20  O   UNL     1       5.044  30.007  48.950  1.00  0.00    -0.273 OA
HETATM   21  H   UNL     1       5.995  30.733  51.884  1.00  0.00     0.163 HD
BRANCH  19  22
HETATM   22  C   UNL     1       6.427  31.861  49.658  1.00  0.00     0.148 C 
BRANCH  22  23
HETATM   23  C   UNL     1       5.658  33.065  50.102  1.00  0.00    -0.009 A 
HETATM   24  S   UNL     1       4.517  33.807  49.058  1.00  0.00    -0.106 SA
HETATM   25  C   UNL     1       4.189  35.045  50.190  1.00  0.00     0.050 A 
HETATM   26  C   UNL     1       4.926  34.897  51.345  1.00  0.00     0.008 A 
HETATM   27  C   UNL     1       5.771  33.752  51.295  1.00  0.00     0.015 A 
ENDBRANCH  22  23
ENDBRANCH  19  22
ENDBRANCH  11  18
BRANCH   5  28
HETATM   28  C   UNL     1       7.755  24.812  54.847  1.00  0.00     0.276 C 
BRANCH  28  29
HETATM   29  C   UNL     1       8.019  23.354  55.106  1.00  0.00     0.002 A 
HETATM   30  C   UNL     1       8.144  22.871  56.415  1.00  0.00     0.073 A 
HETATM   31  C   UNL     1       8.421  21.530  56.669  1.00  0.00     0.039 A 
HETATM   32  C   UNL     1       8.564  20.645  55.599  1.00  0.00     0.026 A 
HETATM   33  C   UNL     1       8.433  21.108  54.293  1.00  0.00     0.034 A 
HETATM   34 CL   UNL     1       8.593  20.015  52.975  1.00  0.00    -0.084 Cl
HETATM   35  C   UNL     1       8.167  22.455  54.040  1.00  0.00     0.035 A 
BRANCH  30  36
HETATM   36  O   UNL     1       7.960  23.753  57.445  1.00  0.00    -0.360 OA
HETATM   37  H   UNL     1       7.117  23.526  57.889  1.00  0.00     0.217 HD
ENDBRANCH  30  36
ENDBRANCH  28  29
ENDBRANCH   5  28
TORSDOF 7
ENDMDL
MODEL 7
REMARK VINA RESULT:      -7.6      6.292      8.493
REMARK  7 active torsions:
REMARK  status: ('A' for Active; 'I' for Inactive)
REMARK    1  A    between atoms: O_2  and  C_3 
REMARK    2  A    between atoms: N_7  and  C_9 
REMARK    3  A    between atoms: C_9  and  C_10 
REMARK    4  A    between atoms: C_11  and  O_12 
REMARK    5  A    between atoms: C_22  and  N_23 
REMARK       I    between atoms: N_23  and  C_24 
REMARK    6  A    between atoms: C_24  and  C_25 
REMARK    7  A    between atoms: C_25  and  C_26 
ROOT
HETATM    1  C   UNL     1       4.485  30.322  50.786  1.00  0.00     0.161 C 
HETATM    2  C   UNL     1       4.068  28.799  50.737  1.00  0.00     0.019 C 
HETATM    3  C   UNL     1       3.158  28.448  51.939  1.00  0.00     0.045 C 
HETATM    4  C   UNL     1       3.934  28.328  53.249  1.00  0.00     0.236 C 
HETATM    5  N   UNL     1       5.089  27.375  53.105  1.00  0.00    -0.067 N 
HETATM    6  H   UNL     1       5.639  27.438  53.978  1.00  0.00     0.280 HD
HETATM    7  C   UNL     1       6.027  27.785  52.002  1.00  0.00     0.236 C 
HETATM    8  C   UNL     1       5.274  27.833  50.682  1.00  0.00     0.045 C 
HETATM    9  C   UNL     1       3.272  28.725  49.451  1.00  0.00    -0.038 A 
HETATM   10  C   UNL     1       3.016  29.992  48.924  1.00  0.00    -0.026 A 
HETATM   11  C   UNL     1       3.547  31.092  49.796  1.00  0.00     0.148 C 
HETATM   12  C   UNL     1       2.790  27.589  48.805  1.00  0.00     0.009 A 
HETATM   13  C   UNL     1       2.065  27.738  47.620  1.00  0.00     0.001 A 
HETATM   14  C   UNL     1       1.825  29.011  47.090  1.00  0.00     0.001 A 
HETATM   15  C   UNL     1       2.298  30.147  47.743  1.00  0.00     0.010 A 
ENDROOT
BRANCH   1  16
HETATM   16  O   UNL     1       5.873  30.447  50.422  1.00  0.00    -0.387 OA
HETATM   17  C   UNL     1       6.148  31.608  49.639  1.00  0.00     0.202 C 
ENDBRANCH   1  16
BRANCH  11  18
HETATM   18  N   UNL     1       2.441  31.789  50.428  1.00  0.00    -0.350 N 
HETATM   19  C   UNL     1       2.507  33.130  50.739  1.00  0.00     0.223 C 
HETATM   20  O   UNL     1       3.565  33.755  50.742  1.00  0.00    -0.273 OA
HETATM   21  H   UNL     1       1.523  31.364  50.354  1.00  0.00     0.163 HD
BRANCH  19  22
HETATM   22  C   UNL     1       1.171  33.762  51.089  1.00  0.00     0.148 C 
BRANCH  22  23
HETATM   23  C   UNL     1       0.821  33.510  52.522  1.00  0.00    -0.009 A 
HETATM   24  S   UNL     1      -0.799  33.665  53.066  1.00  0.00    -0.106 SA
HETATM   25  C   UNL     1      -0.356  33.330  54.682  1.00  0.00     0.050 A 
HETATM   26  C   UNL     1       0.996  33.098  54.810  1.00  0.00     0.008 A 
HETATM   27  C   UNL     1       1.675  33.198  53.562  1.00  0.00     0.015 A 
ENDBRANCH  22  23
ENDBRANCH  19  22
ENDBRANCH  11  18
BRANCH   5  28
HETATM   28  C   UNL     1       4.711  25.908  53.067  1.00  0.00     0.276 C 
BRANCH  28  29
HETATM   29  C   UNL     1       5.649  25.028  53.847  1.00  0.00     0.002 A 
HETATM   30  C   UNL     1       5.791  25.183  55.232  1.00  0.00     0.073 A 
HETATM   31  C   UNL     1       6.680  24.397  55.963  1.00  0.00     0.039 A 
HETATM   32  C   UNL     1       7.436  23.426  55.305  1.00  0.00     0.026 A 
HETATM   33  C   UNL     1       7.299  23.253  53.930  1.00  0.00     0.034 A 
HETATM   34 CL   UNL     1       8.219  22.046  53.122  1.00  0.00    -0.084 Cl
HETATM   35  C   UNL     1       6.416  24.049  53.198  1.00  0.00     0.035 A 
BRANCH  30  36
HETATM   36  O   UNL     1       5.008  26.115  55.857  1.00  0.00    -0.360 OA
HETATM   37  H   UNL     1       5.502  26.454  56.631  1.00  0.00     0.217 HD
ENDBRANCH  30  36
ENDBRANCH  28  29
ENDBRANCH   5  28
TORSDOF 7
ENDMDL
MODEL 8
REMARK VINA RESULT:      -7.5      4.662     10.037
REMARK  7 active torsions:
REMARK  status: ('A' for Active; 'I' for Inactive)
REMARK    1  A    between atoms: O_2  and  C_3 
REMARK    2  A    between atoms: N_7  and  C_9 
REMARK    3  A    between atoms: C_9  and  C_10 
REMARK    4  A    between atoms: C_11  and  O_12 
REMARK    5  A    between atoms: C_22  and  N_23 
REMARK       I    between atoms: N_23  and  C_24 
REMARK    6  A    between atoms: C_24  and  C_25 
REMARK    7  A    between atoms: C_25  and  C_26 
ROOT
HETATM    1  C   UNL     1       7.225  29.363  55.382  1.00  0.00     0.161 C 
HETATM    2  C   UNL     1       6.370  29.128  56.691  1.00  0.00     0.019 C 
HETATM    3  C   UNL     1       5.097  30.009  56.670  1.00  0.00     0.045 C 
HETATM    4  C   UNL     1       5.392  31.478  56.969  1.00  0.00     0.236 C 
HETATM    5  N   UNL     1       6.168  31.620  58.250  1.00  0.00    -0.067 N 
HETATM    6  H   UNL     1       6.441  32.615  58.324  1.00  0.00     0.280 HD
HETATM    7  C   UNL     1       7.458  30.845  58.218  1.00  0.00     0.236 C 
HETATM    8  C   UNL     1       7.164  29.371  57.995  1.00  0.00     0.045 C 
HETATM    9  C   UNL     1       5.987  27.669  56.567  1.00  0.00    -0.038 A 
HETATM   10  C   UNL     1       6.313  27.150  55.312  1.00  0.00    -0.026 A 
HETATM   11  C   UNL     1       6.904  28.186  54.401  1.00  0.00     0.148 C 
HETATM   12  C   UNL     1       5.366  26.862  57.517  1.00  0.00     0.009 A 
HETATM   13  C   UNL     1       5.092  25.529  57.200  1.00  0.00     0.001 A 
HETATM   14  C   UNL     1       5.434  25.012  55.946  1.00  0.00     0.001 A 
HETATM   15  C   UNL     1       6.046  25.824  54.992  1.00  0.00     0.010 A 
ENDROOT
BRANCH   1  16
HETATM   16  O   UNL     1       8.622  29.410  55.730  1.00  0.00    -0.387 OA
HETATM   17  C   UNL     1       9.482  29.007  54.665  1.00  0.00     0.202 C 
ENDBRANCH   1  16
BRANCH  11  18
HETATM   18  N   UNL     1       5.951  28.513  53.355  1.00  0.00    -0.350 N 
HETATM   19  C   UNL     1       5.797  27.722  52.237  1.00  0.00     0.223 C 
HETATM   20  O   UNL     1       6.608  26.851  51.928  1.00  0.00    -0.273 OA
HETATM   21  H   UNL     1       5.195  29.143  53.597  1.00  0.00     0.163 HD
BRANCH  19  22
HETATM   22  C   UNL     1       4.554  28.023  51.418  1.00  0.00     0.148 C 
BRANCH  22  23
HETATM   23  C   UNL     1       4.773  27.691  49.975  1.00  0.00    -0.009 A 
HETATM   24  S   UNL     1       5.468  28.842  48.910  1.00  0.00    -0.106 SA
HETATM   25  C   UNL     1       5.296  27.799  47.567  1.00  0.00     0.050 A 
HETATM   26  C   UNL     1       4.727  26.595  47.919  1.00  0.00     0.008 A 
HETATM   27  C   UNL     1       4.429  26.531  49.310  1.00  0.00     0.015 A 
ENDBRANCH  22  23
ENDBRANCH  19  22
ENDBRANCH  11  18
BRANCH   5  28
HETATM   28  C   UNL     1       5.364  31.410  59.516  1.00  0.00     0.276 C 
BRANCH  28  29
HETATM   29  C   UNL     1       5.622  32.453  60.569  1.00  0.00     0.002 A 
HETATM   30  C   UNL     1       4.953  33.683  60.538  1.00  0.00     0.073 A 
HETATM   31  C   UNL     1       5.206  34.670  61.488  1.00  0.00     0.039 A 
HETATM   32  C   UNL     1       6.136  34.426  62.500  1.00  0.00     0.026 A 
HETATM   33  C   UNL     1       6.802  33.204  62.551  1.00  0.00     0.034 A 
HETATM   34 CL   UNL     1       7.935  32.896  63.806  1.00  0.00    -0.084 Cl
HETATM   35  C   UNL     1       6.555  32.220  61.591  1.00  0.00     0.035 A 
BRANCH  30  36
HETATM   36  O   UNL     1       4.018  33.880  59.559  1.00  0.00    -0.360 OA
HETATM   37  H   UNL     1       3.456  33.080  59.513  1.00  0.00     0.217 HD
ENDBRANCH  30  36
ENDBRANCH  28  29
ENDBRANCH   5  28
TORSDOF 7
ENDMDL
MODEL 9
REMARK VINA RESULT:      -7.5      7.158      9.765
REMARK  7 active torsions:
REMARK  status: ('A' for Active; 'I' for Inactive)
REMARK    1  A    between atoms: O_2  and  C_3 
REMARK    2  A    between atoms: N_7  and  C_9 
REMARK    3  A    between atoms: C_9  and  C_10 
REMARK    4  A    between atoms: C_11  and  O_12 
REMARK    5  A    between atoms: C_22  and  N_23 
REMARK       I    between atoms: N_23  and  C_24 
REMARK    6  A    between atoms: C_24  and  C_25 
REMARK    7  A    between atoms: C_25  and  C_26 
ROOT
HETATM    1  C   UNL     1       4.482  30.267  50.743  1.00  0.00     0.161 C 
HETATM    2  C   UNL     1       4.074  28.740  50.706  1.00  0.00     0.019 C 
HETATM    3  C   UNL     1       3.125  28.405  51.882  1.00  0.00     0.045 C 
HETATM    4  C   UNL     1       3.855  28.312  53.221  1.00  0.00     0.236 C 
HETATM    5  N   UNL     1       5.018  27.362  53.133  1.00  0.00    -0.067 N 
HETATM    6  H   UNL     1       5.537  27.444  54.024  1.00  0.00     0.280 HD
HETATM    7  C   UNL     1       5.993  27.759  52.057  1.00  0.00     0.236 C 
HETATM    8  C   UNL     1       5.287  27.780  50.711  1.00  0.00     0.045 C 
HETATM    9  C   UNL     1       3.325  28.640  49.395  1.00  0.00    -0.038 A 
HETATM   10  C   UNL     1       3.081  29.897  48.838  1.00  0.00    -0.026 A 
HETATM   11  C   UNL     1       3.576  31.014  49.708  1.00  0.00     0.148 C 
HETATM   12  C   UNL     1       2.870  27.491  48.752  1.00  0.00     0.009 A 
HETATM   13  C   UNL     1       2.188  27.616  47.540  1.00  0.00     0.001 A 
HETATM   14  C   UNL     1       1.960  28.878  46.980  1.00  0.00     0.001 A 
HETATM   15  C   UNL     1       2.404  30.028  47.630  1.00  0.00     0.010 A 
ENDROOT
BRANCH   1  16
HETATM   16  O   UNL     1       5.882  30.392  50.426  1.00  0.00    -0.387 OA
HETATM   17  C   UNL     1       6.181  31.549  49.646  1.00  0.00     0.202 C 
ENDBRANCH   1  16
BRANCH  11  18
HETATM   18  N   UNL     1       2.445  31.716  50.289  1.00  0.00    -0.350 N 
HETATM   19  C   UNL     1       2.250  33.067  50.098  1.00  0.00     0.223 C 
HETATM   20  O   UNL     1       3.127  33.804  49.652  1.00  0.00    -0.273 OA
HETATM   21  H   UNL     1       1.647  31.156  50.570  1.00  0.00     0.163 HD
BRANCH  19  22
HETATM   22  C   UNL     1       0.871  33.566  50.493  1.00  0.00     0.148 C 
BRANCH  22  23
HETATM   23  C   UNL     1      -0.178  33.009  49.582  1.00  0.00    -0.009 A 
HETATM   24  S   UNL     1      -1.683  32.473  50.208  1.00  0.00    -0.106 SA
HETATM   25  C   UNL     1      -2.210  31.952  48.668  1.00  0.00     0.050 A 
HETATM   26  C   UNL     1      -1.266  32.185  47.692  1.00  0.00     0.008 A 
HETATM   27  C   UNL     1      -0.095  32.799  48.220  1.00  0.00     0.015 A 
ENDBRANCH  22  23
ENDBRANCH  19  22
ENDBRANCH  11  18
BRANCH   5  28
HETATM   28  C   UNL     1       4.649  25.893  53.108  1.00  0.00     0.276 C 
BRANCH  28  29
HETATM   29  C   UNL     1       5.614  25.020  53.862  1.00  0.00     0.002 A 
HETATM   30  C   UNL     1       5.781  25.166  55.245  1.00  0.00     0.073 A 
HETATM   31  C   UNL     1       6.694  24.386  55.952  1.00  0.00     0.039 A 
HETATM   32  C   UNL     1       7.451  23.431  55.271  1.00  0.00     0.026 A 
HETATM   33  C   UNL     1       7.290  23.267  53.897  1.00  0.00     0.034 A 
HETATM   34 CL   UNL     1       8.210  22.080  53.061  1.00  0.00    -0.084 Cl
HETATM   35  C   UNL     1       6.382  24.057  53.189  1.00  0.00     0.035 A 
BRANCH  30  36
HETATM   36  O   UNL     1       4.998  26.082  55.893  1.00  0.00    -0.360 OA
HETATM   37  H   UNL     1       5.471  26.367  56.701  1.00  0.00     0.217 HD
ENDBRANCH  30  36
ENDBRANCH  28  29
ENDBRANCH   5  28
TORSDOF 7
ENDMDL
MODEL 10
REMARK VINA RESULT:      -7.4      8.563     11.647
REMARK  7 active torsions:
REMARK  status: ('A' for Active; 'I' for Inactive)
REMARK    1  A    between atoms: O_2  and  C_3 
REMARK    2  A    between atoms: N_7  and  C_9 
REMARK    3  A    between atoms: C_9  and  C_10 
REMARK    4  A    between atoms: C_11  and  O_12 
REMARK    5  A    between atoms: C_22  and  N_23 
REMARK       I    between atoms: N_23  and  C_24 
REMARK    6  A    between atoms: C_24  and  C_25 
REMARK    7  A    between atoms: C_25  and  C_26 
ROOT
HETATM    1  C   UNL     1       4.354  30.565  50.769  1.00  0.00     0.161 C 
HETATM    2  C   UNL     1       4.790  30.506  49.251  1.00  0.00     0.019 C 
HETATM    3  C   UNL     1       6.237  31.029  49.083  1.00  0.00     0.045 C 
HETATM    4  C   UNL     1       6.330  32.550  49.186  1.00  0.00     0.236 C 
HETATM    5  N   UNL     1       5.367  33.212  48.239  1.00  0.00    -0.067 N 
HETATM    6  H   UNL     1       5.390  34.224  48.449  1.00  0.00     0.280 HD
HETATM    7  C   UNL     1       3.946  32.778  48.482  1.00  0.00     0.236 C 
HETATM    8  C   UNL     1       3.835  31.273  48.307  1.00  0.00     0.045 C 
HETATM    9  C   UNL     1       4.742  29.021  48.961  1.00  0.00    -0.038 A 
HETATM   10  C   UNL     1       4.565  28.270  50.124  1.00  0.00    -0.026 A 
HETATM   11  C   UNL     1       4.523  29.124  51.357  1.00  0.00     0.148 C 
HETATM   12  C   UNL     1       4.872  28.383  47.730  1.00  0.00     0.009 A 
HETATM   13  C   UNL     1       4.803  26.989  47.678  1.00  0.00     0.001 A 
HETATM   14  C   UNL     1       4.610  26.242  48.845  1.00  0.00     0.001 A 
HETATM   15  C   UNL     1       4.493  26.881  50.078  1.00  0.00     0.010 A 
ENDROOT
BRANCH   1  16
HETATM   16  O   UNL     1       2.992  31.028  50.854  1.00  0.00    -0.387 OA
HETATM   17  C   UNL     1       2.765  31.912  51.952  1.00  0.00     0.202 C 
ENDBRANCH   1  16
BRANCH  11  18
HETATM   18  N   UNL     1       5.736  28.924  52.129  1.00  0.00    -0.350 N 
HETATM   19  C   UNL     1       5.796  28.024  53.172  1.00  0.00     0.223 C 
HETATM   20  O   UNL     1       4.789  27.529  53.675  1.00  0.00    -0.273 OA
HETATM   21  H   UNL     1       6.609  29.215  51.704  1.00  0.00     0.163 HD
BRANCH  19  22
HETATM   22  C   UNL     1       7.201  27.707  53.650  1.00  0.00     0.148 C 
BRANCH  22  23
HETATM   23  C   UNL     1       7.454  26.232  53.620  1.00  0.00    -0.009 A 
HETATM   24  S   UNL     1       7.500  25.323  55.074  1.00  0.00    -0.106 SA
HETATM   25  C   UNL     1       7.895  23.885  54.239  1.00  0.00     0.050 A 
HETATM   26  C   UNL     1       7.985  24.086  52.879  1.00  0.00     0.008 A 
HETATM   27  C   UNL     1       7.727  25.440  52.522  1.00  0.00     0.015 A 
ENDBRANCH  22  23
ENDBRANCH  19  22
ENDBRANCH  11  18
BRANCH   5  28
HETATM   28  C   UNL     1       5.773  33.176  46.779  1.00  0.00     0.276 C 
BRANCH  28  29
HETATM   29  C   UNL     1       6.358  34.472  46.289  1.00  0.00     0.002 A 
HETATM   30  C   UNL     1       7.294  34.485  45.247  1.00  0.00     0.073 A 
HETATM   31  C   UNL     1       7.869  35.674  44.804  1.00  0.00     0.039 A 
HETATM   32  C   UNL     1       7.497  36.880  45.401  1.00  0.00     0.026 A 
HETATM   33  C   UNL     1       6.560  36.884  46.431  1.00  0.00     0.034 A 
HETATM   34 CL   UNL     1       6.090  38.370  47.156  1.00  0.00    -0.084 Cl
HETATM   35  C   UNL     1       5.994  35.690  46.881  1.00  0.00     0.035 A 
BRANCH  30  36
HETATM   36  O   UNL     1       7.611  33.293  44.654  1.00  0.00    -0.360 OA
HETATM   37  H   UNL     1       8.316  32.870  45.184  1.00  0.00     0.217 HD
ENDBRANCH  30  36
ENDBRANCH  28  29
ENDBRANCH   5  28
TORSDOF 7
ENDMDL
