MODEL 1
REMARK VINA RESULT:      -8.5      0.000      0.000
REMARK  5 active torsions:
REMARK  status: ('A' for Active; 'I' for Inactive)
REMARK    1  A    between atoms: C_6  and  N_7 
REMARK       I    between atoms: N_7  and  C_8 
REMARK    2  A    between atoms: C_8  and  C_9 
REMARK    3  A    between atoms: C_9  and  O_10 
REMARK    4  A    between atoms: O_10  and  C_11 
REMARK    5  A    between atoms: C_18  and  C_19 
ROOT
HETATM    1  C   UNL     1       4.204  27.787  53.793  1.00  0.00     0.073 C 
HETATM    2  C   UNL     1       5.369  28.392  54.486  1.00  0.00     0.065 A 
HETATM    3  N   UNL     1       5.256  29.600  55.052  1.00  0.00    -0.177 NA
HETATM    4  N   UNL     1       6.458  29.810  55.616  1.00  0.00    -0.262 N 
HETATM    5  H   UNL     1       6.614  30.689  56.102  1.00  0.00     0.191 HD
HETATM    6  C   UNL     1       7.347  28.785  55.424  1.00  0.00     0.137 A 
HETATM    7  C   UNL     1       6.664  27.841  54.680  1.00  0.00     0.046 A 
ENDROOT
BRANCH   6   8
HETATM    8  N   UNL     1       8.661  28.776  55.844  1.00  0.00    -0.309 N 
HETATM    9  C   UNL     1       9.171  29.230  57.032  1.00  0.00     0.247 C 
HETATM   10  O   UNL     1      10.393  29.359  57.149  1.00  0.00    -0.271 OA
HETATM   11  H   UNL     1       9.352  28.357  55.233  1.00  0.00     0.170 HD
BRANCH   9  12
HETATM   12  C   UNL     1       8.244  29.382  58.233  1.00  0.00     0.278 C 
BRANCH  12  13
HETATM   13  O   UNL     1       7.790  30.718  58.423  1.00  0.00    -0.342 OA
BRANCH  13  14
HETATM   14  C   UNL     1       8.053  31.129  59.706  1.00  0.00     0.069 A 
HETATM   15  C   UNL     1       7.151  32.011  60.296  1.00  0.00     0.037 A 
HETATM   16  C   UNL     1       7.393  32.488  61.585  1.00  0.00     0.003 A 
HETATM   17  C   UNL     1       8.526  32.070  62.284  1.00  0.00     0.000 A 
HETATM   18  C   UNL     1       9.407  31.157  61.704  1.00  0.00     0.003 A 
HETATM   19  C   UNL     1       9.166  30.675  60.418  1.00  0.00     0.037 A 
ENDBRANCH  13  14
ENDBRANCH  12  13
ENDBRANCH   9  12
ENDBRANCH   6   8
BRANCH   7  20
HETATM   20  C   UNL     1       7.165  26.504  54.434  1.00  0.00    -0.020 A 
HETATM   21  C   UNL     1       7.559  26.159  53.133  1.00  0.00     0.014 A 
HETATM   22  C   UNL     1       7.949  24.852  52.837  1.00  0.00     0.020 A 
HETATM   23  C   UNL     1       7.949  23.891  53.846  1.00  0.00     0.011 A 
HETATM   24 BR   UNL     1       8.439  22.111  53.438  1.00  0.00    -0.051 Br
HETATM   25  C   UNL     1       7.577  24.228  55.148  1.00  0.00     0.020 A 
HETATM   26  C   UNL     1       7.188  25.538  55.444  1.00  0.00     0.014 A 
ENDBRANCH   7  20
TORSDOF 5
ENDMDL
MODEL 2
REMARK VINA RESULT:      -8.3      4.007      7.983
REMARK  5 active torsions:
REMARK  status: ('A' for Active; 'I' for Inactive)
REMARK    1  A    between atoms: C_6  and  N_7 
REMARK       I    between atoms: N_7  and  C_8 
REMARK    2  A    between atoms: C_8  and  C_9 
REMARK    3  A    between atoms: C_9  and  O_10 
REMARK    4  A    between atoms: O_10  and  C_11 
REMARK    5  A    between atoms: C_18  and  C_19 
ROOT
HETATM    1  C   UNL     1       7.847  29.071  58.218  1.00  0.00     0.073 C 
HETATM    2  C   UNL     1       7.327  27.827  57.596  1.00  0.00     0.065 A 
HETATM    3  N   UNL     1       7.828  26.639  57.960  1.00  0.00    -0.177 NA
HETATM    4  N   UNL     1       7.110  25.752  57.251  1.00  0.00    -0.262 N 
HETATM    5  H   UNL     1       7.328  24.764  57.355  1.00  0.00     0.191 HD
HETATM    6  C   UNL     1       6.171  26.325  56.434  1.00  0.00     0.137 A 
HETATM    7  C   UNL     1       6.292  27.687  56.633  1.00  0.00     0.046 A 
ENDROOT
BRANCH   6   8
HETATM    8  N   UNL     1       5.348  25.644  55.560  1.00  0.00    -0.309 N 
HETATM    9  C   UNL     1       5.602  25.291  54.261  1.00  0.00     0.247 C 
HETATM   10  O   UNL     1       4.671  24.893  53.556  1.00  0.00    -0.271 OA
HETATM   11  H   UNL     1       4.451  25.322  55.906  1.00  0.00     0.170 HD
BRANCH   9  12
HETATM   12  C   UNL     1       7.046  25.218  53.777  1.00  0.00     0.278 C 
BRANCH  12  13
HETATM   13  O   UNL     1       7.918  24.593  54.712  1.00  0.00    -0.342 OA
BRANCH  13  14
HETATM   14  C   UNL     1       7.923  23.234  54.520  1.00  0.00     0.069 A 
HETATM   15  C   UNL     1       8.122  22.769  53.222  1.00  0.00     0.037 A 
HETATM   16  C   UNL     1       8.099  21.397  52.969  1.00  0.00     0.003 A 
HETATM   17  C   UNL     1       7.893  20.496  54.014  1.00  0.00     0.000 A 
HETATM   18  C   UNL     1       7.732  20.963  55.318  1.00  0.00     0.003 A 
HETATM   19  C   UNL     1       7.759  22.333  55.575  1.00  0.00     0.037 A 
ENDBRANCH  13  14
ENDBRANCH  12  13
ENDBRANCH   9  12
ENDBRANCH   6   8
BRANCH   7  20
HETATM   20  C   UNL     1       5.344  28.656  56.123  1.00  0.00    -0.020 A 
HETATM   21  C   UNL     1       5.394  28.999  54.763  1.00  0.00     0.014 A 
HETATM   22  C   UNL     1       4.566  30.002  54.258  1.00  0.00     0.020 A 
HETATM   23  C   UNL     1       3.684  30.659  55.113  1.00  0.00     0.011 A 
HETATM   24 BR   UNL     1       2.590  32.046  54.438  1.00  0.00    -0.051 Br
HETATM   25  C   UNL     1       3.612  30.313  56.464  1.00  0.00     0.020 A 
HETATM   26  C   UNL     1       4.441  29.307  56.969  1.00  0.00     0.014 A 
ENDBRANCH   7  20
TORSDOF 5
ENDMDL
MODEL 3
REMARK VINA RESULT:      -8.3      3.491      6.984
REMARK  5 active torsions:
REMARK  status: ('A' for Active; 'I' for Inactive)
REMARK    1  A    between atoms: C_6  and  N_7 
REMARK       I    between atoms: N_7  and  C_8 
REMARK    2  A    between atoms: C_8  and  C_9 
REMARK    3  A    between atoms: C_9  and  O_10 
REMARK    4  A    between atoms: O_10  and  C_11 
REMARK    5  A    between atoms: C_18  and  C_19 
ROOT
HETATM    1  C   UNL     1       7.800  24.832  57.160  1.00  0.00     0.073 C 
HETATM    2  C   UNL     1       6.553  25.613  56.963  1.00  0.00     0.065 A 
HETATM    3  N   UNL     1       5.375  24.980  56.881  1.00  0.00    -0.177 NA
HETATM    4  N   UNL     1       4.479  25.974  56.755  1.00  0.00    -0.262 N 
HETATM    5  H   UNL     1       3.497  25.727  56.660  1.00  0.00     0.191 HD
HETATM    6  C   UNL     1       5.037  27.225  56.742  1.00  0.00     0.137 A 
HETATM    7  C   UNL     1       6.399  27.022  56.871  1.00  0.00     0.046 A 
ENDROOT
BRANCH   6   8
HETATM    8  N   UNL     1       4.348  28.407  56.564  1.00  0.00    -0.309 N 
HETATM    9  C   UNL     1       4.081  29.061  55.390  1.00  0.00     0.247 C 
HETATM   10  O   UNL     1       3.657  30.219  55.433  1.00  0.00    -0.271 OA
HETATM   11  H   UNL     1       3.948  28.851  57.383  1.00  0.00     0.170 HD
BRANCH   9  12
HETATM   12  C   UNL     1       4.133  28.287  54.077  1.00  0.00     0.278 C 
BRANCH  12  13
HETATM   13  O   UNL     1       5.421  28.297  53.472  1.00  0.00    -0.342 OA
BRANCH  13  14
HETATM   14  C   UNL     1       5.903  27.016  53.362  1.00  0.00     0.069 A 
HETATM   15  C   UNL     1       4.971  25.987  53.250  1.00  0.00     0.037 A 
HETATM   16  C   UNL     1       5.408  24.665  53.172  1.00  0.00     0.003 A 
HETATM   17  C   UNL     1       6.773  24.377  53.190  1.00  0.00     0.000 A 
HETATM   18  C   UNL     1       7.704  25.413  53.263  1.00  0.00     0.003 A 
HETATM   19  C   UNL     1       7.271  26.736  53.336  1.00  0.00     0.037 A 
ENDBRANCH  13  14
ENDBRANCH  12  13
ENDBRANCH   9  12
ENDBRANCH   6   8
BRANCH   7  20
HETATM   20  C   UNL     1       7.345  28.090  57.115  1.00  0.00    -0.020 A 
HETATM   21  C   UNL     1       8.426  28.250  56.235  1.00  0.00     0.014 A 
HETATM   22  C   UNL     1       9.414  29.201  56.495  1.00  0.00     0.020 A 
HETATM   23  C   UNL     1       9.316  29.996  57.635  1.00  0.00     0.011 A 
HETATM   24 BR   UNL     1      10.674  31.258  58.010  1.00  0.00    -0.051 Br
HETATM   25  C   UNL     1       8.235  29.860  58.507  1.00  0.00     0.020 A 
HETATM   26  C   UNL     1       7.246  28.908  58.245  1.00  0.00     0.014 A 
ENDBRANCH   7  20
TORSDOF 5
ENDMDL
MODEL 4
REMARK VINA RESULT:      -8.2      2.210      2.952
REMARK  5 active torsions:
REMARK  status: ('A' for Active; 'I' for Inactive)
REMARK    1  A    between atoms: C_6  and  N_7 
REMARK       I    between atoms: N_7  and  C_8 
REMARK    2  A    between atoms: C_8  and  C_9 
REMARK    3  A    between atoms: C_9  and  O_10 
REMARK    4  A    between atoms: O_10  and  C_11 
REMARK    5  A    between atoms: C_18  and  C_19 
ROOT
HETATM    1  C   UNL     1       5.331  25.658  51.951  1.00  0.00     0.073 C 
HETATM    2  C   UNL     1       5.417  26.050  53.379  1.00  0.00     0.065 A 
HETATM    3  N   UNL     1       4.696  27.084  53.832  1.00  0.00    -0.177 NA
HETATM    4  N   UNL     1       4.973  27.125  55.146  1.00  0.00    -0.262 N 
HETATM    5  H   UNL     1       4.540  27.855  55.707  1.00  0.00     0.191 HD
HETATM    6  C   UNL     1       5.857  26.161  55.557  1.00  0.00     0.137 A 
HETATM    7  C   UNL     1       6.171  25.443  54.418  1.00  0.00     0.046 A 
ENDROOT
BRANCH   6   8
HETATM    8  N   UNL     1       6.352  26.023  56.837  1.00  0.00    -0.309 N 
HETATM    9  C   UNL     1       7.552  26.461  57.330  1.00  0.00     0.247 C 
HETATM   10  O   UNL     1       7.934  26.051  58.430  1.00  0.00    -0.271 OA
HETATM   11  H   UNL     1       5.762  25.575  57.528  1.00  0.00     0.170 HD
BRANCH   9  12
HETATM   12  C   UNL     1       8.292  27.581  56.606  1.00  0.00     0.278 C 
BRANCH  12  13
HETATM   13  O   UNL     1       7.643  28.843  56.717  1.00  0.00    -0.342 OA
BRANCH  13  14
HETATM   14  C   UNL     1       8.459  29.740  57.360  1.00  0.00     0.069 A 
HETATM   15  C   UNL     1       7.898  30.500  58.384  1.00  0.00     0.037 A 
HETATM   16  C   UNL     1       8.676  31.452  59.043  1.00  0.00     0.003 A 
HETATM   17  C   UNL     1      10.014  31.630  58.689  1.00  0.00     0.000 A 
HETATM   18  C   UNL     1      10.583  30.840  57.690  1.00  0.00     0.003 A 
HETATM   19  C   UNL     1       9.809  29.885  57.032  1.00  0.00     0.037 A 
ENDBRANCH  13  14
ENDBRANCH  12  13
ENDBRANCH   9  12
ENDBRANCH   6   8
BRANCH   7  20
HETATM   20  C   UNL     1       6.911  24.198  54.440  1.00  0.00    -0.020 A 
HETATM   21  C   UNL     1       7.587  23.793  53.279  1.00  0.00     0.014 A 
HETATM   22  C   UNL     1       8.223  22.552  53.229  1.00  0.00     0.020 A 
HETATM   23  C   UNL     1       8.187  21.718  54.344  1.00  0.00     0.011 A 
HETATM   24 BR   UNL     1       9.016  20.020  54.265  1.00  0.00    -0.051 Br
HETATM   25  C   UNL     1       7.535  22.118  55.511  1.00  0.00     0.020 A 
HETATM   26  C   UNL     1       6.899  23.362  55.561  1.00  0.00     0.014 A 
ENDBRANCH   7  20
TORSDOF 5
ENDMDL
MODEL 5
REMARK VINA RESULT:      -8.1      3.903      6.866
REMARK  5 active torsions:
REMARK  status: ('A' for Active; 'I' for Inactive)
REMARK    1  A    between atoms: C_6  and  N_7 
REMARK       I    between atoms: N_7  and  C_8 
REMARK    2  A    between atoms: C_8  and  C_9 
REMARK    3  A    between atoms: C_9  and  O_10 
REMARK    4  A    between atoms: O_10  and  C_11 
REMARK    5  A    between atoms: C_18  and  C_19 
ROOT
HETATM    1  C   UNL     1       9.785  29.446  55.188  1.00  0.00     0.073 C 
HETATM    2  C   UNL     1       8.782  28.817  56.083  1.00  0.00     0.065 A 
HETATM    3  N   UNL     1       8.829  29.042  57.402  1.00  0.00    -0.177 NA
HETATM    4  N   UNL     1       7.769  28.372  57.885  1.00  0.00    -0.262 N 
HETATM    5  H   UNL     1       7.607  28.387  58.889  1.00  0.00     0.191 HD
HETATM    6  C   UNL     1       7.045  27.714  56.926  1.00  0.00     0.137 A 
HETATM    7  C   UNL     1       7.688  27.981  55.732  1.00  0.00     0.046 A 
ENDROOT
BRANCH   6   8
HETATM    8  N   UNL     1       5.951  26.907  57.163  1.00  0.00    -0.309 N 
HETATM    9  C   UNL     1       5.868  25.544  57.058  1.00  0.00     0.247 C 
HETATM   10  O   UNL     1       4.756  25.008  57.080  1.00  0.00    -0.271 OA
HETATM   11  H   UNL     1       5.098  27.347  57.490  1.00  0.00     0.170 HD
BRANCH   9  12
HETATM   12  C   UNL     1       7.145  24.713  57.107  1.00  0.00     0.278 C 
BRANCH  12  13
HETATM   13  O   UNL     1       7.663  24.406  55.817  1.00  0.00    -0.342 OA
BRANCH  13  14
HETATM   14  C   UNL     1       7.890  23.056  55.706  1.00  0.00     0.069 A 
HETATM   15  C   UNL     1       7.717  22.475  54.453  1.00  0.00     0.037 A 
HETATM   16  C   UNL     1       7.900  21.101  54.296  1.00  0.00     0.003 A 
HETATM   17  C   UNL     1       8.270  20.316  55.389  1.00  0.00     0.000 A 
HETATM   18  C   UNL     1       8.481  20.907  56.634  1.00  0.00     0.003 A 
HETATM   19  C   UNL     1       8.303  22.281  56.793  1.00  0.00     0.037 A 
ENDBRANCH  13  14
ENDBRANCH  12  13
ENDBRANCH   9  12
ENDBRANCH   6   8
BRANCH   7  20
HETATM   20  C   UNL     1       7.132  27.652  54.436  1.00  0.00    -0.020 A 
HETATM   21  C   UNL     1       6.044  28.398  53.958  1.00  0.00     0.014 A 
HETATM   22  C   UNL     1       5.417  28.045  52.762  1.00  0.00     0.020 A 
HETATM   23  C   UNL     1       5.883  26.948  52.041  1.00  0.00     0.011 A 
HETATM   24 BR   UNL     1       5.011  26.444  50.442  1.00  0.00    -0.051 Br
HETATM   25  C   UNL     1       6.978  26.210  52.497  1.00  0.00     0.020 A 
HETATM   26  C   UNL     1       7.606  26.566  53.695  1.00  0.00     0.014 A 
ENDBRANCH   7  20
TORSDOF 5
ENDMDL
MODEL 6
REMARK VINA RESULT:      -7.9      3.529      7.585
REMARK  5 active torsions:
REMARK  status: ('A' for Active; 'I' for Inactive)
REMARK    1  A    between atoms: C_6  and  N_7 
REMARK       I    between atoms: N_7  and  C_8 
REMARK    2  A    between atoms: C_8  and  C_9 
REMARK    3  A    between atoms: C_9  and  O_10 
REMARK    4  A    between atoms: O_10  and  C_11 
REMARK    5  A    between atoms: C_18  and  C_19 
ROOT
HETATM    1  C   UNL     1       4.600  31.744  54.742  1.00  0.00     0.073 C 
HETATM    2  C   UNL     1       4.400  30.313  55.080  1.00  0.00     0.065 A 
HETATM    3  N   UNL     1       3.715  29.520  54.247  1.00  0.00    -0.177 NA
HETATM    4  N   UNL     1       3.770  28.310  54.829  1.00  0.00    -0.262 N 
HETATM    5  H   UNL     1       3.295  27.535  54.373  1.00  0.00     0.191 HD
HETATM    6  C   UNL     1       4.456  28.296  56.015  1.00  0.00     0.137 A 
HETATM    7  C   UNL     1       4.877  29.598  56.211  1.00  0.00     0.046 A 
ENDROOT
BRANCH   6   8
HETATM    8  N   UNL     1       4.606  27.201  56.840  1.00  0.00    -0.309 N 
HETATM    9  C   UNL     1       5.247  26.021  56.570  1.00  0.00     0.247 C 
HETATM   10  O   UNL     1       5.086  25.063  57.332  1.00  0.00    -0.271 OA
HETATM   11  H   UNL     1       4.235  27.261  57.782  1.00  0.00     0.170 HD
BRANCH   9  12
HETATM   12  C   UNL     1       6.284  25.974  55.453  1.00  0.00     0.278 C 
BRANCH  12  13
HETATM   13  O   UNL     1       7.474  25.287  55.823  1.00  0.00    -0.342 OA
BRANCH  13  14
HETATM   14  C   UNL     1       7.641  24.172  55.039  1.00  0.00     0.069 A 
HETATM   15  C   UNL     1       7.830  24.370  53.673  1.00  0.00     0.037 A 
HETATM   16  C   UNL     1       7.967  23.268  52.828  1.00  0.00     0.003 A 
HETATM   17  C   UNL     1       7.931  21.976  53.352  1.00  0.00     0.000 A 
HETATM   18  C   UNL     1       7.780  21.783  54.725  1.00  0.00     0.003 A 
HETATM   19  C   UNL     1       7.647  22.882  55.573  1.00  0.00     0.037 A 
ENDBRANCH  13  14
ENDBRANCH  12  13
ENDBRANCH   9  12
ENDBRANCH   6   8
BRANCH   7  20
HETATM   20  C   UNL     1       5.820  29.985  57.240  1.00  0.00    -0.020 A 
HETATM   21  C   UNL     1       5.512  31.081  58.061  1.00  0.00     0.014 A 
HETATM   22  C   UNL     1       6.440  31.547  58.993  1.00  0.00     0.020 A 
HETATM   23  C   UNL     1       7.675  30.913  59.108  1.00  0.00     0.011 A 
HETATM   24 BR   UNL     1       8.948  31.567  60.343  1.00  0.00    -0.051 Br
HETATM   25  C   UNL     1       7.984  29.810  58.311  1.00  0.00     0.020 A 
HETATM   26  C   UNL     1       7.054  29.343  57.377  1.00  0.00     0.014 A 
ENDBRANCH   7  20
TORSDOF 5
ENDMDL
MODEL 7
REMARK VINA RESULT:      -7.9      3.669      7.618
REMARK  5 active torsions:
REMARK  status: ('A' for Active; 'I' for Inactive)
REMARK    1  A    between atoms: C_6  and  N_7 
REMARK       I    between atoms: N_7  and  C_8 
REMARK    2  A    between atoms: C_8  and  C_9 
REMARK    3  A    between atoms: C_9  and  O_10 
REMARK    4  A    between atoms: O_10  and  C_11 
REMARK    5  A    between atoms: C_18  and  C_19 
ROOT
HETATM    1  C   UNL     1       8.695  27.908  56.990  1.00  0.00     0.073 C 
HETATM    2  C   UNL     1       7.385  28.227  56.370  1.00  0.00     0.065 A 
HETATM    3  N   UNL     1       6.845  29.441  56.538  1.00  0.00    -0.177 NA
HETATM    4  N   UNL     1       5.711  29.397  55.817  1.00  0.00    -0.262 N 
HETATM    5  H   UNL     1       5.115  30.220  55.807  1.00  0.00     0.191 HD
HETATM    6  C   UNL     1       5.494  28.193  55.199  1.00  0.00     0.137 A 
HETATM    7  C   UNL     1       6.572  27.401  55.548  1.00  0.00     0.046 A 
ENDROOT
BRANCH   6   8
HETATM    8  N   UNL     1       4.381  27.866  54.454  1.00  0.00    -0.309 N 
HETATM    9  C   UNL     1       4.067  28.267  53.182  1.00  0.00     0.247 C 
HETATM   10  O   UNL     1       2.926  28.070  52.756  1.00  0.00    -0.271 OA
HETATM   11  H   UNL     1       3.709  27.223  54.859  1.00  0.00     0.170 HD
BRANCH   9  12
HETATM   12  C   UNL     1       5.177  28.768  52.264  1.00  0.00     0.278 C 
BRANCH  12  13
HETATM   13  O   UNL     1       5.823  27.723  51.545  1.00  0.00    -0.342 OA
BRANCH  13  14
HETATM   14  C   UNL     1       5.362  27.680  50.253  1.00  0.00     0.069 A 
HETATM   15  C   UNL     1       4.725  26.514  49.836  1.00  0.00     0.037 A 
HETATM   16  C   UNL     1       4.271  26.407  48.521  1.00  0.00     0.003 A 
HETATM   17  C   UNL     1       4.440  27.470  47.634  1.00  0.00     0.000 A 
HETATM   18  C   UNL     1       5.043  28.651  48.066  1.00  0.00     0.003 A 
HETATM   19  C   UNL     1       5.494  28.763  49.380  1.00  0.00     0.037 A 
ENDBRANCH  13  14
ENDBRANCH  12  13
ENDBRANCH   9  12
ENDBRANCH   6   8
BRANCH   7  20
HETATM   20  C   UNL     1       6.850  26.117  54.938  1.00  0.00    -0.020 A 
HETATM   21  C   UNL     1       6.542  24.949  55.652  1.00  0.00     0.014 A 
HETATM   22  C   UNL     1       6.889  23.698  55.141  1.00  0.00     0.020 A 
HETATM   23  C   UNL     1       7.540  23.615  53.912  1.00  0.00     0.011 A 
HETATM   24 BR   UNL     1       8.045  21.923  53.237  1.00  0.00    -0.051 Br
HETATM   25  C   UNL     1       7.833  24.769  53.184  1.00  0.00     0.020 A 
HETATM   26  C   UNL     1       7.484  26.022  53.696  1.00  0.00     0.014 A 
ENDBRANCH   7  20
TORSDOF 5
ENDMDL
MODEL 8
REMARK VINA RESULT:      -7.9      3.677      8.315
REMARK  5 active torsions:
REMARK  status: ('A' for Active; 'I' for Inactive)
REMARK    1  A    between atoms: C_6  and  N_7 
REMARK       I    between atoms: N_7  and  C_8 
REMARK    2  A    between atoms: C_8  and  C_9 
REMARK    3  A    between atoms: C_9  and  O_10 
REMARK    4  A    between atoms: O_10  and  C_11 
REMARK    5  A    between atoms: C_18  and  C_19 
ROOT
HETATM    1  C   UNL     1      10.662  31.226  57.871  1.00  0.00     0.073 C 
HETATM    2  C   UNL     1       9.725  30.098  57.640  1.00  0.00     0.065 A 
HETATM    3  N   UNL     1      10.153  28.989  57.023  1.00  0.00    -0.177 NA
HETATM    4  N   UNL     1       9.081  28.179  57.027  1.00  0.00    -0.262 N 
HETATM    5  H   UNL     1       9.167  27.265  56.590  1.00  0.00     0.191 HD
HETATM    6  C   UNL     1       7.972  28.729  57.615  1.00  0.00     0.137 A 
HETATM    7  C   UNL     1       8.361  29.992  58.022  1.00  0.00     0.046 A 
ENDROOT
BRANCH   6   8
HETATM    8  N   UNL     1       6.730  28.134  57.694  1.00  0.00    -0.309 N 
HETATM    9  C   UNL     1       6.069  27.424  56.727  1.00  0.00     0.247 C 
HETATM   10  O   UNL     1       4.874  27.163  56.887  1.00  0.00    -0.271 OA
HETATM   11  H   UNL     1       6.236  28.183  58.578  1.00  0.00     0.170 HD
BRANCH   9  12
HETATM   12  C   UNL     1       6.863  26.816  55.575  1.00  0.00     0.278 C 
BRANCH  12  13
HETATM   13  O   UNL     1       7.552  25.625  55.939  1.00  0.00    -0.342 OA
BRANCH  13  14
HETATM   14  C   UNL     1       7.626  24.774  54.865  1.00  0.00     0.069 A 
HETATM   15  C   UNL     1       7.663  23.407  55.129  1.00  0.00     0.037 A 
HETATM   16  C   UNL     1       7.776  22.502  54.073  1.00  0.00     0.003 A 
HETATM   17  C   UNL     1       7.835  22.964  52.758  1.00  0.00     0.000 A 
HETATM   18  C   UNL     1       7.759  24.332  52.495  1.00  0.00     0.003 A 
HETATM   19  C   UNL     1       7.642  25.239  53.547  1.00  0.00     0.037 A 
ENDBRANCH  13  14
ENDBRANCH  12  13
ENDBRANCH   9  12
ENDBRANCH   6   8
BRANCH   7  20
HETATM   20  C   UNL     1       7.554  30.837  58.878  1.00  0.00    -0.020 A 
HETATM   21  C   UNL     1       6.492  31.557  58.310  1.00  0.00     0.014 A 
HETATM   22  C   UNL     1       5.759  32.460  59.082  1.00  0.00     0.020 A 
HETATM   23  C   UNL     1       6.086  32.638  60.424  1.00  0.00     0.011 A 
HETATM   24 BR   UNL     1       5.119  33.889  61.461  1.00  0.00    -0.051 Br
HETATM   25  C   UNL     1       7.128  31.913  61.005  1.00  0.00     0.020 A 
HETATM   26  C   UNL     1       7.861  31.008  60.231  1.00  0.00     0.014 A 
ENDBRANCH   7  20
TORSDOF 5
ENDMDL
MODEL 9
REMARK VINA RESULT:      -7.8      4.223      8.195
REMARK  5 active torsions:
REMARK  status: ('A' for Active; 'I' for Inactive)
REMARK    1  A    between atoms: C_6  and  N_7 
REMARK       I    between atoms: N_7  and  C_8 
REMARK    2  A    between atoms: C_8  and  C_9 
REMARK    3  A    between atoms: C_9  and  O_10 
REMARK    4  A    between atoms: O_10  and  C_11 
REMARK    5  A    between atoms: C_18  and  C_19 
ROOT
HETATM    1  C   UNL     1       7.555  24.169  53.254  1.00  0.00     0.073 C 
HETATM    2  C   UNL     1       6.334  25.002  53.384  1.00  0.00     0.065 A 
HETATM    3  N   UNL     1       5.160  24.542  52.932  1.00  0.00    -0.177 NA
HETATM    4  N   UNL     1       4.285  25.511  53.250  1.00  0.00    -0.262 N 
HETATM    5  H   UNL     1       3.311  25.386  52.985  1.00  0.00     0.191 HD
HETATM    6  C   UNL     1       4.854  26.586  53.881  1.00  0.00     0.137 A 
HETATM    7  C   UNL     1       6.200  26.285  53.978  1.00  0.00     0.046 A 
ENDROOT
BRANCH   6   8
HETATM    8  N   UNL     1       4.191  27.736  54.256  1.00  0.00    -0.309 N 
HETATM    9  C   UNL     1       3.872  28.820  53.481  1.00  0.00     0.247 C 
HETATM   10  O   UNL     1       3.487  29.856  54.029  1.00  0.00    -0.271 OA
HETATM   11  H   UNL     1       3.857  27.801  55.211  1.00  0.00     0.170 HD
BRANCH   9  12
HETATM   12  C   UNL     1       3.817  28.661  51.966  1.00  0.00     0.278 C 
BRANCH  12  13
HETATM   13  O   UNL     1       5.103  28.682  51.355  1.00  0.00    -0.342 OA
BRANCH  13  14
HETATM   14  C   UNL     1       5.047  28.096  50.114  1.00  0.00     0.069 A 
HETATM   15  C   UNL     1       5.499  28.843  49.030  1.00  0.00     0.037 A 
HETATM   16  C   UNL     1       5.430  28.306  47.744  1.00  0.00     0.003 A 
HETATM   17  C   UNL     1       4.924  27.020  47.549  1.00  0.00     0.000 A 
HETATM   18  C   UNL     1       4.508  26.261  48.642  1.00  0.00     0.003 A 
HETATM   19  C   UNL     1       4.581  26.792  49.929  1.00  0.00     0.037 A 
ENDBRANCH  13  14
ENDBRANCH  12  13
ENDBRANCH   9  12
ENDBRANCH   6   8
BRANCH   7  20
HETATM   20  C   UNL     1       7.135  27.058  54.770  1.00  0.00    -0.020 A 
HETATM   21  C   UNL     1       7.261  26.772  56.137  1.00  0.00     0.014 A 
HETATM   22  C   UNL     1       8.074  27.561  56.952  1.00  0.00     0.020 A 
HETATM   23  C   UNL     1       8.764  28.636  56.396  1.00  0.00     0.011 A 
HETATM   24 BR   UNL     1       9.835  29.731  57.505  1.00  0.00    -0.051 Br
HETATM   25  C   UNL     1       8.662  28.918  55.033  1.00  0.00     0.020 A 
HETATM   26  C   UNL     1       7.848  28.126  54.218  1.00  0.00     0.014 A 
ENDBRANCH   7  20
TORSDOF 5
ENDMDL
MODEL 10
REMARK VINA RESULT:      -7.8      3.770      8.091
REMARK  5 active torsions:
REMARK  status: ('A' for Active; 'I' for Inactive)
REMARK    1  A    between atoms: C_6  and  N_7 
REMARK       I    between atoms: N_7  and  C_8 
REMARK    2  A    between atoms: C_8  and  C_9 
REMARK    3  A    between atoms: C_9  and  O_10 
REMARK    4  A    between atoms: O_10  and  C_11 
REMARK    5  A    between atoms: C_18  and  C_19 
ROOT
HETATM    1  C   UNL     1       5.396  28.737  54.583  1.00  0.00     0.073 C 
HETATM    2  C   UNL     1       6.105  27.623  55.262  1.00  0.00     0.065 A 
HETATM    3  N   UNL     1       6.019  26.380  54.772  1.00  0.00    -0.177 NA
HETATM    4  N   UNL     1       6.803  25.654  55.587  1.00  0.00    -0.262 N 
HETATM    5  H   UNL     1       6.882  24.655  55.414  1.00  0.00     0.191 HD
HETATM    6  C   UNL     1       7.384  26.382  56.592  1.00  0.00     0.137 A 
HETATM    7  C   UNL     1       6.940  27.678  56.410  1.00  0.00     0.046 A 
ENDROOT
BRANCH   6   8
HETATM    8  N   UNL     1       8.180  25.868  57.595  1.00  0.00    -0.309 N 
HETATM    9  C   UNL     1       8.705  24.607  57.695  1.00  0.00     0.247 C 
HETATM   10  O   UNL     1       9.199  24.247  58.767  1.00  0.00    -0.271 OA
HETATM   11  H   UNL     1       8.456  26.490  58.347  1.00  0.00     0.170 HD
BRANCH   9  12
HETATM   12  C   UNL     1       8.837  23.753  56.439  1.00  0.00     0.278 C 
BRANCH  12  13
HETATM   13  O   UNL     1       7.897  22.685  56.388  1.00  0.00    -0.342 OA
BRANCH  13  14
HETATM   14  C   UNL     1       8.041  21.983  55.216  1.00  0.00     0.069 A 
HETATM   15  C   UNL     1       8.501  20.672  55.305  1.00  0.00     0.037 A 
HETATM   16  C   UNL     1       8.699  19.929  54.141  1.00  0.00     0.003 A 
HETATM   17  C   UNL     1       8.422  20.493  52.895  1.00  0.00     0.000 A 
HETATM   18  C   UNL     1       7.925  21.794  52.812  1.00  0.00     0.003 A 
HETATM   19  C   UNL     1       7.721  22.537  53.974  1.00  0.00     0.037 A 
ENDBRANCH  13  14
ENDBRANCH  12  13
ENDBRANCH   9  12
ENDBRANCH   6   8
BRANCH   7  20
HETATM   20  C   UNL     1       7.481  28.815  57.127  1.00  0.00    -0.020 A 
HETATM   21  C   UNL     1       8.868  29.023  57.115  1.00  0.00     0.014 A 
HETATM   22  C   UNL     1       9.435  30.045  57.878  1.00  0.00     0.020 A 
HETATM   23  C   UNL     1       8.611  30.863  58.649  1.00  0.00     0.011 A 
HETATM   24 BR   UNL     1       9.381  32.223  59.713  1.00  0.00    -0.051 Br
HETATM   25  C   UNL     1       7.228  30.677  58.653  1.00  0.00     0.020 A 
HETATM   26  C   UNL     1       6.661  29.653  57.887  1.00  0.00     0.014 A 
ENDBRANCH   7  20
TORSDOF 5
ENDMDL
