MODEL 1
REMARK VINA RESULT:      -8.6      0.000      0.000
REMARK  4 active torsions:
REMARK  status: ('A' for Active; 'I' for Inactive)
REMARK    1  A    between atoms: C_4  and  N_5 
REMARK       I    between atoms: N_5  and  C_6 
REMARK    2  A    between atoms: C_6  and  C_7 
REMARK    3  A    between atoms: C_7  and  O_8 
REMARK    4  A    between atoms: O_8  and  C_9 
ROOT
HETATM    1  N   UNL     1       7.158  27.306  57.265  1.00  0.00    -0.309 N 
HETATM    2  C   UNL     1       6.477  27.059  56.084  1.00  0.00     0.252 C 
HETATM    3  O   UNL     1       6.321  27.829  55.143  1.00  0.00    -0.270 OA
HETATM    4  H   UNL     1       7.133  26.579  57.963  1.00  0.00     0.170 HD
ENDROOT
BRANCH   2   5
HETATM    5  C   UNL     1       6.014  25.586  56.013  1.00  0.00     0.217 C 
HETATM    6  C   UNL     1       4.997  25.263  57.098  1.00  0.00     0.050 C 
BRANCH   5   7
HETATM    7  O   UNL     1       7.149  24.733  56.195  1.00  0.00    -0.335 OA
BRANCH   7   8
HETATM    8  C   UNL     1       7.411  23.752  55.279  1.00  0.00     0.091 A 
HETATM    9  C   UNL     1       7.951  22.551  55.777  1.00  0.00     0.069 A 
HETATM   10 CL   UNL     1       8.296  22.358  57.460  1.00  0.00    -0.081 Cl
HETATM   11  C   UNL     1       8.257  21.492  54.921  1.00  0.00     0.050 A 
HETATM   12  C   UNL     1       8.018  21.627  53.559  1.00  0.00     0.035 A 
HETATM   13 CL   UNL     1       8.410  20.337  52.492  1.00  0.00    -0.084 Cl
HETATM   14  C   UNL     1       7.462  22.801  53.052  1.00  0.00     0.026 A 
HETATM   15  C   UNL     1       7.146  23.858  53.912  1.00  0.00     0.040 A 
ENDBRANCH   7   8
ENDBRANCH   5   7
ENDBRANCH   2   5
BRANCH   1  16
HETATM   16  C   UNL     1       7.823  28.487  57.610  1.00  0.00     0.130 A 
HETATM   17  C   UNL     1       9.170  28.574  57.268  1.00  0.00     0.057 A 
HETATM   18  C   UNL     1       9.878  29.741  57.557  1.00  0.00    -0.057 A 
HETATM   19  C   UNL     1      11.316  29.897  57.164  1.00  0.00     0.048 C 
HETATM   20  C   UNL     1       9.205  30.781  58.197  1.00  0.00     0.033 A 
HETATM   21  C   UNL     1       7.863  30.615  58.519  1.00  0.00     0.033 A 
HETATM   22  N   UNL     1       7.174  29.491  58.220  1.00  0.00    -0.236 NA
HETATM   23  C   UNL     1       7.114  31.708  59.220  1.00  0.00     0.070 C 
ENDBRANCH   1  16
TORSDOF 4
ENDMDL
MODEL 2
REMARK VINA RESULT:      -8.5      1.235      2.124
REMARK  4 active torsions:
REMARK  status: ('A' for Active; 'I' for Inactive)
REMARK    1  A    between atoms: C_4  and  N_5 
REMARK       I    between atoms: N_5  and  C_6 
REMARK    2  A    between atoms: C_6  and  C_7 
REMARK    3  A    between atoms: C_7  and  O_8 
REMARK    4  A    between atoms: O_8  and  C_9 
ROOT
HETATM    1  N   UNL     1       7.359  27.453  56.780  1.00  0.00    -0.309 N 
HETATM    2  C   UNL     1       7.618  26.139  57.137  1.00  0.00     0.252 C 
HETATM    3  O   UNL     1       8.459  25.740  57.935  1.00  0.00    -0.270 OA
HETATM    4  H   UNL     1       6.671  27.597  56.056  1.00  0.00     0.170 HD
ENDROOT
BRANCH   2   5
HETATM    5  C   UNL     1       6.595  25.179  56.490  1.00  0.00     0.217 C 
HETATM    6  C   UNL     1       5.207  25.347  57.091  1.00  0.00     0.050 C 
BRANCH   5   7
HETATM    7  O   UNL     1       7.019  23.830  56.711  1.00  0.00    -0.335 OA
BRANCH   7   8
HETATM    8  C   UNL     1       7.351  23.042  55.644  1.00  0.00     0.091 A 
HETATM    9  C   UNL     1       7.905  21.782  55.937  1.00  0.00     0.069 A 
HETATM   10 CL   UNL     1       8.182  21.288  57.571  1.00  0.00    -0.081 Cl
HETATM   11  C   UNL     1       8.281  20.908  54.916  1.00  0.00     0.050 A 
HETATM   12  C   UNL     1       8.099  21.288  53.593  1.00  0.00     0.035 A 
HETATM   13 CL   UNL     1       8.577  20.227  52.326  1.00  0.00    -0.084 Cl
HETATM   14  C   UNL     1       7.530  22.523  53.284  1.00  0.00     0.026 A 
HETATM   15  C   UNL     1       7.143  23.394  54.308  1.00  0.00     0.040 A 
ENDBRANCH   7   8
ENDBRANCH   5   7
ENDBRANCH   2   5
BRANCH   1  16
HETATM   16  C   UNL     1       8.000  28.591  57.276  1.00  0.00     0.130 A 
HETATM   17  C   UNL     1       7.211  29.505  57.972  1.00  0.00     0.057 A 
HETATM   18  C   UNL     1       7.801  30.645  58.519  1.00  0.00    -0.057 A 
HETATM   19  C   UNL     1       7.000  31.629  59.316  1.00  0.00     0.048 C 
HETATM   20  C   UNL     1       9.169  30.835  58.333  1.00  0.00     0.033 A 
HETATM   21  C   UNL     1       9.889  29.885  57.615  1.00  0.00     0.033 A 
HETATM   22  N   UNL     1       9.318  28.772  57.104  1.00  0.00    -0.236 NA
HETATM   23  C   UNL     1      11.358  30.067  57.386  1.00  0.00     0.070 C 
ENDBRANCH   1  16
TORSDOF 4
ENDMDL
MODEL 3
REMARK VINA RESULT:      -8.1      1.997      3.150
REMARK  4 active torsions:
REMARK  status: ('A' for Active; 'I' for Inactive)
REMARK    1  A    between atoms: C_4  and  N_5 
REMARK       I    between atoms: N_5  and  C_6 
REMARK    2  A    between atoms: C_6  and  C_7 
REMARK    3  A    between atoms: C_7  and  O_8 
REMARK    4  A    between atoms: O_8  and  C_9 
ROOT
HETATM    1  N   UNL     1       7.994  29.096  57.172  1.00  0.00    -0.309 N 
HETATM    2  C   UNL     1       7.837  27.719  57.195  1.00  0.00     0.252 C 
HETATM    3  O   UNL     1       7.567  27.020  58.166  1.00  0.00    -0.270 OA
HETATM    4  H   UNL     1       8.280  29.504  56.295  1.00  0.00     0.170 HD
ENDROOT
BRANCH   2   5
HETATM    5  C   UNL     1       7.912  27.132  55.768  1.00  0.00     0.217 C 
HETATM    6  C   UNL     1       7.580  28.176  54.712  1.00  0.00     0.050 C 
BRANCH   5   7
HETATM    7  O   UNL     1       6.965  26.064  55.654  1.00  0.00    -0.335 OA
BRANCH   7   8
HETATM    8  C   UNL     1       7.352  24.874  55.104  1.00  0.00     0.091 A 
HETATM    9  C   UNL     1       6.748  24.515  53.885  1.00  0.00     0.069 A 
HETATM   10 CL   UNL     1       5.549  25.523  53.153  1.00  0.00    -0.081 Cl
HETATM   11  C   UNL     1       7.073  23.317  53.247  1.00  0.00     0.050 A 
HETATM   12  C   UNL     1       8.011  22.471  53.825  1.00  0.00     0.035 A 
HETATM   13 CL   UNL     1       8.405  20.983  53.059  1.00  0.00    -0.084 Cl
HETATM   14  C   UNL     1       8.637  22.822  55.021  1.00  0.00     0.026 A 
HETATM   15  C   UNL     1       8.318  24.028  55.654  1.00  0.00     0.040 A 
ENDBRANCH   7   8
ENDBRANCH   5   7
ENDBRANCH   2   5
BRANCH   1  16
HETATM   16  C   UNL     1       7.858  29.967  58.257  1.00  0.00     0.130 A 
HETATM   17  C   UNL     1       6.853  30.927  58.172  1.00  0.00     0.057 A 
HETATM   18  C   UNL     1       6.648  31.803  59.239  1.00  0.00    -0.057 A 
HETATM   19  C   UNL     1       5.547  32.820  59.210  1.00  0.00     0.048 C 
HETATM   20  C   UNL     1       7.476  31.691  60.354  1.00  0.00     0.033 A 
HETATM   21  C   UNL     1       8.467  30.716  60.361  1.00  0.00     0.033 A 
HETATM   22  N   UNL     1       8.650  29.855  59.334  1.00  0.00    -0.236 NA
HETATM   23  C   UNL     1       9.384  30.579  61.539  1.00  0.00     0.070 C 
ENDBRANCH   1  16
TORSDOF 4
ENDMDL
MODEL 4
REMARK VINA RESULT:      -8.0      1.342      1.572
REMARK  4 active torsions:
REMARK  status: ('A' for Active; 'I' for Inactive)
REMARK    1  A    between atoms: C_4  and  N_5 
REMARK       I    between atoms: N_5  and  C_6 
REMARK    2  A    between atoms: C_6  and  C_7 
REMARK    3  A    between atoms: C_7  and  O_8 
REMARK    4  A    between atoms: O_8  and  C_9 
ROOT
HETATM    1  N   UNL     1       6.445  28.103  57.043  1.00  0.00    -0.309 N 
HETATM    2  C   UNL     1       6.938  27.729  55.803  1.00  0.00     0.252 C 
HETATM    3  O   UNL     1       7.645  28.395  55.055  1.00  0.00    -0.270 OA
HETATM    4  H   UNL     1       5.822  27.453  57.497  1.00  0.00     0.170 HD
ENDROOT
BRANCH   2   5
HETATM    5  C   UNL     1       6.593  26.255  55.494  1.00  0.00     0.217 C 
HETATM    6  C   UNL     1       5.583  25.694  56.485  1.00  0.00     0.050 C 
BRANCH   5   7
HETATM    7  O   UNL     1       7.787  25.471  55.580  1.00  0.00    -0.335 OA
BRANCH   7   8
HETATM    8  C   UNL     1       7.897  24.324  54.844  1.00  0.00     0.091 A 
HETATM    9  C   UNL     1       8.170  23.140  55.555  1.00  0.00     0.069 A 
HETATM   10 CL   UNL     1       8.392  23.161  57.270  1.00  0.00    -0.081 Cl
HETATM   11  C   UNL     1       8.305  21.919  54.893  1.00  0.00     0.050 A 
HETATM   12  C   UNL     1       8.161  21.874  53.512  1.00  0.00     0.035 A 
HETATM   13 CL   UNL     1       8.345  20.379  52.683  1.00  0.00    -0.084 Cl
HETATM   14  C   UNL     1       7.867  23.033  52.794  1.00  0.00     0.026 A 
HETATM   15  C   UNL     1       7.722  24.255  53.460  1.00  0.00     0.040 A 
ENDBRANCH   7   8
ENDBRANCH   5   7
ENDBRANCH   2   5
BRANCH   1  16
HETATM   16  C   UNL     1       6.675  29.317  57.697  1.00  0.00     0.130 A 
HETATM   17  C   UNL     1       7.797  29.386  58.519  1.00  0.00     0.057 A 
HETATM   18  C   UNL     1       8.097  30.582  59.173  1.00  0.00    -0.057 A 
HETATM   19  C   UNL     1       9.320  30.716  60.029  1.00  0.00     0.048 C 
HETATM   20  C   UNL     1       7.243  31.668  58.988  1.00  0.00     0.033 A 
HETATM   21  C   UNL     1       6.134  31.519  58.162  1.00  0.00     0.033 A 
HETATM   22  N   UNL     1       5.858  30.365  57.514  1.00  0.00    -0.236 NA
HETATM   23  C   UNL     1       5.189  32.663  57.954  1.00  0.00     0.070 C 
ENDBRANCH   1  16
TORSDOF 4
ENDMDL
MODEL 5
REMARK VINA RESULT:      -8.0      3.218      7.879
REMARK  4 active torsions:
REMARK  status: ('A' for Active; 'I' for Inactive)
REMARK    1  A    between atoms: C_4  and  N_5 
REMARK       I    between atoms: N_5  and  C_6 
REMARK    2  A    between atoms: C_6  and  C_7 
REMARK    3  A    between atoms: C_7  and  O_8 
REMARK    4  A    between atoms: O_8  and  C_9 
ROOT
HETATM    1  N   UNL     1       7.911  25.391  55.127  1.00  0.00    -0.309 N 
HETATM    2  C   UNL     1       7.023  26.225  55.788  1.00  0.00     0.252 C 
HETATM    3  O   UNL     1       6.117  25.892  56.544  1.00  0.00    -0.270 OA
HETATM    4  H   UNL     1       8.557  25.832  54.490  1.00  0.00     0.170 HD
ENDROOT
BRANCH   2   5
HETATM    5  C   UNL     1       7.392  27.709  55.567  1.00  0.00     0.217 C 
HETATM    6  C   UNL     1       7.759  27.987  54.117  1.00  0.00     0.050 C 
BRANCH   5   7
HETATM    7  O   UNL     1       8.521  28.035  56.385  1.00  0.00    -0.335 OA
BRANCH   7   8
HETATM    8  C   UNL     1       8.438  29.075  57.268  1.00  0.00     0.091 A 
HETATM    9  C   UNL     1       9.622  29.799  57.504  1.00  0.00     0.069 A 
HETATM   10 CL   UNL     1      11.107  29.354  56.739  1.00  0.00    -0.081 Cl
HETATM   11  C   UNL     1       9.641  30.875  58.393  1.00  0.00     0.050 A 
HETATM   12  C   UNL     1       8.470  31.239  59.046  1.00  0.00     0.035 A 
HETATM   13 CL   UNL     1       8.485  32.550  60.158  1.00  0.00    -0.084 Cl
HETATM   14  C   UNL     1       7.283  30.548  58.806  1.00  0.00     0.026 A 
HETATM   15  C   UNL     1       7.263  29.476  57.907  1.00  0.00     0.040 A 
ENDBRANCH   7   8
ENDBRANCH   5   7
ENDBRANCH   2   5
BRANCH   1  16
HETATM   16  C   UNL     1       7.958  23.996  55.206  1.00  0.00     0.130 A 
HETATM   17  C   UNL     1       7.839  23.293  54.010  1.00  0.00     0.057 A 
HETATM   18  C   UNL     1       7.912  21.900  54.022  1.00  0.00    -0.057 A 
HETATM   19  C   UNL     1       7.838  21.106  52.753  1.00  0.00     0.048 C 
HETATM   20  C   UNL     1       8.088  21.258  55.246  1.00  0.00     0.033 A 
HETATM   21  C   UNL     1       8.186  22.026  56.401  1.00  0.00     0.033 A 
HETATM   22  N   UNL     1       8.135  23.377  56.383  1.00  0.00    -0.236 NA
HETATM   23  C   UNL     1       8.362  21.366  57.734  1.00  0.00     0.070 C 
ENDBRANCH   1  16
TORSDOF 4
ENDMDL
MODEL 6
REMARK VINA RESULT:      -7.9      3.666      6.133
REMARK  4 active torsions:
REMARK  status: ('A' for Active; 'I' for Inactive)
REMARK    1  A    between atoms: C_4  and  N_5 
REMARK       I    between atoms: N_5  and  C_6 
REMARK    2  A    between atoms: C_6  and  C_7 
REMARK    3  A    between atoms: C_7  and  O_8 
REMARK    4  A    between atoms: O_8  and  C_9 
ROOT
HETATM    1  N   UNL     1       7.880  31.066  59.606  1.00  0.00    -0.309 N 
HETATM    2  C   UNL     1       9.018  31.348  58.866  1.00  0.00     0.252 C 
HETATM    3  O   UNL     1       9.662  32.392  58.866  1.00  0.00    -0.270 OA
HETATM    4  H   UNL     1       7.439  30.175  59.435  1.00  0.00     0.170 HD
ENDROOT
BRANCH   2   5
HETATM    5  C   UNL     1       9.496  30.100  58.093  1.00  0.00     0.217 C 
HETATM    6  C   UNL     1      10.885  30.301  57.504  1.00  0.00     0.050 C 
BRANCH   5   7
HETATM    7  O   UNL     1       8.587  29.842  57.017  1.00  0.00    -0.335 OA
BRANCH   7   8
HETATM    8  C   UNL     1       7.802  28.723  57.049  1.00  0.00     0.091 A 
HETATM    9  C   UNL     1       6.412  28.924  56.953  1.00  0.00     0.069 A 
HETATM   10 CL   UNL     1       5.746  30.516  56.841  1.00  0.00    -0.081 Cl
HETATM   11  C   UNL     1       5.527  27.845  56.981  1.00  0.00     0.050 A 
HETATM   12  C   UNL     1       6.030  26.555  57.099  1.00  0.00     0.035 A 
HETATM   13 CL   UNL     1       4.949  25.219  57.155  1.00  0.00    -0.084 Cl
HETATM   14  C   UNL     1       7.405  26.337  57.172  1.00  0.00     0.026 A 
HETATM   15  C   UNL     1       8.292  27.418  57.133  1.00  0.00     0.040 A 
ENDBRANCH   7   8
ENDBRANCH   5   7
ENDBRANCH   2   5
BRANCH   1  16
HETATM   16  C   UNL     1       7.249  31.917  60.518  1.00  0.00     0.130 A 
HETATM   17  C   UNL     1       7.810  32.004  61.790  1.00  0.00     0.057 A 
HETATM   18  C   UNL     1       7.243  32.863  62.733  1.00  0.00    -0.057 A 
HETATM   19  C   UNL     1       7.843  33.025  64.097  1.00  0.00     0.048 C 
HETATM   20  C   UNL     1       6.116  33.595  62.366  1.00  0.00     0.033 A 
HETATM   21  C   UNL     1       5.604  33.445  61.082  1.00  0.00     0.033 A 
HETATM   22  N   UNL     1       6.168  32.628  60.164  1.00  0.00    -0.236 NA
HETATM   23  C   UNL     1       4.385  34.207  60.661  1.00  0.00     0.070 C 
ENDBRANCH   1  16
TORSDOF 4
ENDMDL
MODEL 7
REMARK VINA RESULT:      -7.9      4.418      6.447
REMARK  4 active torsions:
REMARK  status: ('A' for Active; 'I' for Inactive)
REMARK    1  A    between atoms: C_4  and  N_5 
REMARK       I    between atoms: N_5  and  C_6 
REMARK    2  A    between atoms: C_6  and  C_7 
REMARK    3  A    between atoms: C_7  and  O_8 
REMARK    4  A    between atoms: O_8  and  C_9 
ROOT
HETATM    1  N   UNL     1       5.541  26.536  52.238  1.00  0.00    -0.309 N 
HETATM    2  C   UNL     1       5.033  26.945  53.460  1.00  0.00     0.252 C 
HETATM    3  O   UNL     1       4.224  27.844  53.663  1.00  0.00    -0.270 OA
HETATM    4  H   UNL     1       6.250  25.819  52.260  1.00  0.00     0.170 HD
ENDROOT
BRANCH   2   5
HETATM    5  C   UNL     1       5.515  26.017  54.597  1.00  0.00     0.217 C 
HETATM    6  C   UNL     1       5.430  26.699  55.955  1.00  0.00     0.050 C 
BRANCH   5   7
HETATM    7  O   UNL     1       6.881  25.661  54.359  1.00  0.00    -0.335 OA
BRANCH   7   8
HETATM    8  C   UNL     1       7.267  24.353  54.460  1.00  0.00     0.091 A 
HETATM    9  C   UNL     1       7.844  23.775  53.314  1.00  0.00     0.069 A 
HETATM   10 CL   UNL     1       8.013  24.676  51.848  1.00  0.00    -0.081 Cl
HETATM   11  C   UNL     1       8.266  22.444  53.316  1.00  0.00     0.050 A 
HETATM   12  C   UNL     1       8.117  21.685  54.470  1.00  0.00     0.035 A 
HETATM   13 CL   UNL     1       8.614  20.039  54.478  1.00  0.00    -0.084 Cl
HETATM   14  C   UNL     1       7.569  22.249  55.621  1.00  0.00     0.026 A 
HETATM   15  C   UNL     1       7.156  23.586  55.621  1.00  0.00     0.040 A 
ENDBRANCH   7   8
ENDBRANCH   5   7
ENDBRANCH   2   5
BRANCH   1  16
HETATM   16  C   UNL     1       5.217  27.062  50.984  1.00  0.00     0.130 A 
HETATM   17  C   UNL     1       4.620  26.194  50.073  1.00  0.00     0.057 A 
HETATM   18  C   UNL     1       4.244  26.670  48.816  1.00  0.00    -0.057 A 
HETATM   19  C   UNL     1       3.555  25.784  47.823  1.00  0.00     0.048 C 
HETATM   20  C   UNL     1       4.496  28.007  48.513  1.00  0.00     0.033 A 
HETATM   21  C   UNL     1       5.108  28.810  49.470  1.00  0.00     0.033 A 
HETATM   22  N   UNL     1       5.453  28.350  50.694  1.00  0.00    -0.236 NA
HETATM   23  C   UNL     1       5.406  30.247  49.171  1.00  0.00     0.070 C 
ENDBRANCH   1  16
TORSDOF 4
ENDMDL
MODEL 8
REMARK VINA RESULT:      -7.9      4.283      8.909
REMARK  4 active torsions:
REMARK  status: ('A' for Active; 'I' for Inactive)
REMARK    1  A    between atoms: C_4  and  N_5 
REMARK       I    between atoms: N_5  and  C_6 
REMARK    2  A    between atoms: C_6  and  C_7 
REMARK    3  A    between atoms: C_7  and  O_8 
REMARK    4  A    between atoms: O_8  and  C_9 
ROOT
HETATM    1  N   UNL     1       7.796  28.609  57.991  1.00  0.00    -0.309 N 
HETATM    2  C   UNL     1       8.679  29.615  57.634  1.00  0.00     0.252 C 
HETATM    3  O   UNL     1       9.426  29.635  56.662  1.00  0.00    -0.270 OA
HETATM    4  H   UNL     1       7.302  28.729  58.863  1.00  0.00     0.170 HD
ENDROOT
BRANCH   2   5
HETATM    5  C   UNL     1       8.528  30.838  58.566  1.00  0.00     0.217 C 
HETATM    6  C   UNL     1       9.833  31.610  58.697  1.00  0.00     0.050 C 
BRANCH   5   7
HETATM    7  O   UNL     1       8.143  30.386  59.868  1.00  0.00    -0.335 OA
BRANCH   7   8
HETATM    8  C   UNL     1       7.782  31.297  60.821  1.00  0.00     0.091 A 
HETATM    9  C   UNL     1       8.475  31.241  62.045  1.00  0.00     0.069 A 
HETATM   10 CL   UNL     1       9.693  30.045  62.326  1.00  0.00    -0.081 Cl
HETATM   11  C   UNL     1       8.175  32.125  63.082  1.00  0.00     0.050 A 
HETATM   12  C   UNL     1       7.182  33.079  62.897  1.00  0.00     0.035 A 
HETATM   13 CL   UNL     1       6.790  34.161  64.174  1.00  0.00    -0.084 Cl
HETATM   14  C   UNL     1       6.501  33.164  61.683  1.00  0.00     0.026 A 
HETATM   15  C   UNL     1       6.810  32.283  60.641  1.00  0.00     0.040 A 
ENDBRANCH   7   8
ENDBRANCH   5   7
ENDBRANCH   2   5
BRANCH   1  16
HETATM   16  C   UNL     1       7.568  27.417  57.298  1.00  0.00     0.130 A 
HETATM   17  C   UNL     1       6.643  27.460  56.258  1.00  0.00     0.057 A 
HETATM   18  C   UNL     1       6.398  26.309  55.508  1.00  0.00    -0.057 A 
HETATM   19  C   UNL     1       5.446  26.322  54.350  1.00  0.00     0.048 C 
HETATM   20  C   UNL     1       7.086  25.144  55.842  1.00  0.00     0.033 A 
HETATM   21  C   UNL     1       7.986  25.175  56.902  1.00  0.00     0.033 A 
HETATM   22  N   UNL     1       8.235  26.297  57.614  1.00  0.00    -0.236 NA
HETATM   23  C   UNL     1       8.731  23.936  57.295  1.00  0.00     0.070 C 
ENDBRANCH   1  16
TORSDOF 4
ENDMDL
MODEL 9
REMARK VINA RESULT:      -7.8      4.066      7.192
REMARK  4 active torsions:
REMARK  status: ('A' for Active; 'I' for Inactive)
REMARK    1  A    between atoms: C_4  and  N_5 
REMARK       I    between atoms: N_5  and  C_6 
REMARK    2  A    between atoms: C_6  and  C_7 
REMARK    3  A    between atoms: C_7  and  O_8 
REMARK    4  A    between atoms: O_8  and  C_9 
ROOT
HETATM    1  N   UNL     1       7.339  24.871  54.084  1.00  0.00    -0.309 N 
HETATM    2  C   UNL     1       6.388  25.686  54.677  1.00  0.00     0.252 C 
HETATM    3  O   UNL     1       5.650  25.403  55.614  1.00  0.00    -0.270 OA
HETATM    4  H   UNL     1       7.816  25.244  53.278  1.00  0.00     0.170 HD
ENDROOT
BRANCH   2   5
HETATM    5  C   UNL     1       6.442  27.113  54.089  1.00  0.00     0.217 C 
HETATM    6  C   UNL     1       6.615  28.164  55.176  1.00  0.00     0.050 C 
BRANCH   5   7
HETATM    7  O   UNL     1       5.215  27.380  53.401  1.00  0.00    -0.335 OA
BRANCH   7   8
HETATM    8  C   UNL     1       5.233  27.621  52.055  1.00  0.00     0.091 A 
HETATM    9  C   UNL     1       4.987  26.522  51.212  1.00  0.00     0.069 A 
HETATM   10 CL   UNL     1       4.716  24.942  51.862  1.00  0.00    -0.081 Cl
HETATM   11  C   UNL     1       4.989  26.666  49.824  1.00  0.00     0.050 A 
HETATM   12  C   UNL     1       5.232  27.916  49.270  1.00  0.00     0.035 A 
HETATM   13 CL   UNL     1       5.257  28.103  47.561  1.00  0.00    -0.084 Cl
HETATM   14  C   UNL     1       5.455  29.021  50.090  1.00  0.00     0.026 A 
HETATM   15  C   UNL     1       5.443  28.878  51.482  1.00  0.00     0.040 A 
ENDBRANCH   7   8
ENDBRANCH   5   7
ENDBRANCH   2   5
BRANCH   1  16
HETATM   16  C   UNL     1       7.659  23.561  54.453  1.00  0.00     0.130 A 
HETATM   17  C   UNL     1       7.794  22.632  53.424  1.00  0.00     0.057 A 
HETATM   18  C   UNL     1       8.144  21.316  53.729  1.00  0.00    -0.057 A 
HETATM   19  C   UNL     1       8.347  20.295  52.650  1.00  0.00     0.048 C 
HETATM   20  C   UNL     1       8.332  20.975  55.067  1.00  0.00     0.033 A 
HETATM   21  C   UNL     1       8.167  21.954  56.040  1.00  0.00     0.033 A 
HETATM   22  N   UNL     1       7.847  23.233  55.740  1.00  0.00    -0.236 NA
HETATM   23  C   UNL     1       8.349  21.617  57.489  1.00  0.00     0.070 C 
ENDBRANCH   1  16
TORSDOF 4
ENDMDL
MODEL 10
REMARK VINA RESULT:      -7.6      3.203      7.578
REMARK  4 active torsions:
REMARK  status: ('A' for Active; 'I' for Inactive)
REMARK    1  A    between atoms: C_4  and  N_5 
REMARK       I    between atoms: N_5  and  C_6 
REMARK    2  A    between atoms: C_6  and  C_7 
REMARK    3  A    between atoms: C_7  and  O_8 
REMARK    4  A    between atoms: O_8  and  C_9 
ROOT
HETATM    1  N   UNL     1       6.697  27.546  55.793  1.00  0.00    -0.309 N 
HETATM    2  C   UNL     1       5.545  27.697  56.549  1.00  0.00     0.252 C 
HETATM    3  O   UNL     1       4.738  26.825  56.853  1.00  0.00    -0.270 OA
HETATM    4  H   UNL     1       7.214  28.386  55.584  1.00  0.00     0.170 HD
ENDROOT
BRANCH   2   5
HETATM    5  C   UNL     1       5.439  29.132  57.111  1.00  0.00     0.217 C 
HETATM    6  C   UNL     1       4.330  29.923  56.431  1.00  0.00     0.050 C 
BRANCH   5   7
HETATM    7  O   UNL     1       6.677  29.813  56.885  1.00  0.00    -0.335 OA
BRANCH   7   8
HETATM    8  C   UNL     1       7.342  30.376  57.939  1.00  0.00     0.091 A 
HETATM    9  C   UNL     1       8.686  29.997  58.114  1.00  0.00     0.069 A 
HETATM   10 CL   UNL     1       9.432  28.846  57.061  1.00  0.00    -0.081 Cl
HETATM   11  C   UNL     1       9.447  30.513  59.164  1.00  0.00     0.050 A 
HETATM   12  C   UNL     1       8.868  31.418  60.044  1.00  0.00     0.035 A 
HETATM   13 CL   UNL     1       9.789  32.046  61.353  1.00  0.00    -0.084 Cl
HETATM   14  C   UNL     1       7.544  31.822  59.872  1.00  0.00     0.026 A 
HETATM   15  C   UNL     1       6.785  31.312  58.813  1.00  0.00     0.040 A 
ENDBRANCH   7   8
ENDBRANCH   5   7
ENDBRANCH   2   5
BRANCH   1  16
HETATM   16  C   UNL     1       7.178  26.356  55.239  1.00  0.00     0.130 A 
HETATM   17  C   UNL     1       7.593  25.370  56.131  1.00  0.00     0.057 A 
HETATM   18  C   UNL     1       8.051  24.147  55.637  1.00  0.00    -0.057 A 
HETATM   19  C   UNL     1       8.462  23.040  56.560  1.00  0.00     0.048 C 
HETATM   20  C   UNL     1       8.092  23.965  54.256  1.00  0.00     0.033 A 
HETATM   21  C   UNL     1       7.673  25.002  53.429  1.00  0.00     0.033 A 
HETATM   22  N   UNL     1       7.210  26.177  53.910  1.00  0.00    -0.236 NA
HETATM   23  C   UNL     1       7.717  24.843  51.939  1.00  0.00     0.070 C 
ENDBRANCH   1  16
TORSDOF 4
ENDMDL
