MODEL 1
REMARK VINA RESULT:      -9.3      0.000      0.000
REMARK  8 active torsions:
REMARK  status: ('A' for Active; 'I' for Inactive)
REMARK    1  A    between atoms: C_2  and  N_3 
REMARK       I    between atoms: N_3  and  C_4 
REMARK       I    between atoms: C_4  and  N_5 
REMARK       I    between atoms: N_5  and  C_6 
REMARK    2  A    between atoms: C_6  and  C_7 
REMARK    3  A    between atoms: C_7  and  S_8 
REMARK    4  A    between atoms: C_7  and  C_29 
REMARK    5  A    between atoms: S_8  and  C_9 
REMARK    6  A    between atoms: N_10  and  C_11 
REMARK    7  A    between atoms: C_18  and  C_19 
REMARK    8  A    between atoms: C_19  and  N_20 
ROOT
HETATM    1  C   UNL     1       6.155  26.084  56.737  1.00  0.00     0.197 A 
HETATM    2  N   UNL     1       6.721  25.467  55.635  1.00  0.00    -0.274 N 
HETATM    3  C   UNL     1       7.800  24.771  56.167  1.00  0.00     0.161 A 
HETATM    4  N   UNL     1       7.840  24.939  57.475  1.00  0.00    -0.132 NA
HETATM    5  N   UNL     1       6.804  25.744  57.828  1.00  0.00    -0.122 NA
ENDROOT
BRANCH   1   6
HETATM    6  S   UNL     1       4.655  26.945  56.763  1.00  0.00    -0.070 SA
BRANCH   6   7
HETATM    7  C   UNL     1       5.156  28.666  56.373  1.00  0.00     0.180 C 
BRANCH   7   8
HETATM    8  C   UNL     1       6.659  28.946  56.543  1.00  0.00     0.244 C 
HETATM    9  N   UNL     1       7.161  28.944  57.830  1.00  0.00    -0.278 N 
HETATM   10  C   UNL     1       8.291  29.568  58.286  1.00  0.00     0.322 C 
HETATM   11  H   UNL     1       6.521  28.761  58.591  1.00  0.00     0.173 HD
HETATM   12  N   UNL     1       9.215  29.902  57.348  1.00  0.00    -0.343 N 
HETATM   13  O   UNL     1       8.396  29.824  59.483  1.00  0.00    -0.247 OA
HETATM   14  H   UNL     1       9.032  29.618  56.387  1.00  0.00     0.164 HD
HETATM   15  O   UNL     1       7.392  29.055  55.556  1.00  0.00    -0.271 OA
BRANCH  12  16
HETATM   16  C   UNL     1      10.438  30.611  57.654  1.00  0.00     0.120 C 
HETATM   17  C   UNL     1      11.675  29.823  57.262  1.00  0.00     0.026 C 
ENDBRANCH  12  16
ENDBRANCH   7   8
BRANCH   7  18
HETATM   18  C   UNL     1       4.531  29.187  55.087  1.00  0.00    -0.035 A 
HETATM   19  C   UNL     1       4.079  28.266  54.122  1.00  0.00     0.009 A 
HETATM   20  C   UNL     1       3.532  28.702  52.915  1.00  0.00     0.001 A 
HETATM   21  C   UNL     1       3.423  30.064  52.653  1.00  0.00     0.000 A 
HETATM   22  C   UNL     1       3.862  30.990  53.596  1.00  0.00     0.001 A 
HETATM   23  C   UNL     1       4.412  30.556  54.805  1.00  0.00     0.009 A 
ENDBRANCH   7  18
ENDBRANCH   6   7
ENDBRANCH   1   6
BRANCH   2  24
HETATM   24  C   UNL     1       6.328  25.530  54.276  1.00  0.00     0.043 A 
HETATM   25  C   UNL     1       5.247  24.763  53.821  1.00  0.00     0.033 A 
HETATM   26  C   UNL     1       4.860  24.835  52.481  1.00  0.00     0.044 A 
HETATM   27  C   UNL     1       5.556  25.660  51.605  1.00  0.00     0.116 A 
HETATM   28  F   UNL     1       5.184  25.726  50.322  1.00  0.00    -0.206 F 
HETATM   29  C   UNL     1       6.637  26.416  52.043  1.00  0.00     0.044 A 
HETATM   30  C   UNL     1       7.030  26.354  53.382  1.00  0.00     0.033 A 
ENDBRANCH   2  24
BRANCH   3  31
HETATM   31  C   UNL     1       8.881  24.082  55.413  1.00  0.00     0.315 C 
BRANCH  31  32
HETATM   32  N   UNL     1       8.391  22.746  54.859  1.00  0.00    -0.064 N 
HETATM   33  H   UNL     1       7.393  22.708  55.133  1.00  0.00     0.280 HD
HETATM   34  C   UNL     1       8.416  22.711  53.348  1.00  0.00     0.235 C 
HETATM   35  C   UNL     1       7.776  21.423  52.855  1.00  0.00     0.028 C 
HETATM   36  C   UNL     1       8.445  20.196  53.463  1.00  0.00     0.003 C 
HETATM   37  C   UNL     1       8.455  20.276  54.986  1.00  0.00     0.028 C 
HETATM   38  C   UNL     1       9.088  21.567  55.481  1.00  0.00     0.235 C 
ENDBRANCH  31  32
ENDBRANCH   3  31
TORSDOF 8
ENDMDL
MODEL 2
REMARK VINA RESULT:      -9.2      2.548      3.406
REMARK  8 active torsions:
REMARK  status: ('A' for Active; 'I' for Inactive)
REMARK    1  A    between atoms: C_2  and  N_3 
REMARK       I    between atoms: N_3  and  C_4 
REMARK       I    between atoms: C_4  and  N_5 
REMARK       I    between atoms: N_5  and  C_6 
REMARK    2  A    between atoms: C_6  and  C_7 
REMARK    3  A    between atoms: C_7  and  S_8 
REMARK    4  A    between atoms: C_7  and  C_29 
REMARK    5  A    between atoms: S_8  and  C_9 
REMARK    6  A    between atoms: N_10  and  C_11 
REMARK    7  A    between atoms: C_18  and  C_19 
REMARK    8  A    between atoms: C_19  and  N_20 
ROOT
HETATM    1  C   UNL     1       7.859  27.668  56.829  1.00  0.00     0.197 A 
HETATM    2  N   UNL     1       6.937  27.014  56.031  1.00  0.00    -0.274 N 
HETATM    3  C   UNL     1       6.940  25.714  56.525  1.00  0.00     0.161 A 
HETATM    4  N   UNL     1       7.769  25.627  57.548  1.00  0.00    -0.132 NA
HETATM    5  N   UNL     1       8.328  26.850  57.744  1.00  0.00    -0.122 NA
ENDROOT
BRANCH   1   6
HETATM    6  S   UNL     1       8.168  29.370  56.842  1.00  0.00    -0.070 SA
BRANCH   6   7
HETATM    7  C   UNL     1       6.886  30.017  57.984  1.00  0.00     0.180 C 
BRANCH   7   8
HETATM    8  C   UNL     1       7.428  30.916  59.106  1.00  0.00     0.244 C 
HETATM    9  N   UNL     1       8.365  30.367  59.961  1.00  0.00    -0.278 N 
HETATM   10  C   UNL     1       8.664  30.761  61.237  1.00  0.00     0.322 C 
HETATM   11  H   UNL     1       8.645  29.407  59.808  1.00  0.00     0.173 HD
HETATM   12  N   UNL     1       8.300  32.025  61.578  1.00  0.00    -0.343 N 
HETATM   13  O   UNL     1       9.197  29.963  62.005  1.00  0.00    -0.247 OA
HETATM   14  H   UNL     1       7.885  32.606  60.852  1.00  0.00     0.164 HD
HETATM   15  O   UNL     1       7.114  32.109  59.162  1.00  0.00    -0.271 OA
BRANCH  12  16
HETATM   16  C   UNL     1       8.494  32.578  62.900  1.00  0.00     0.120 C 
HETATM   17  C   UNL     1       7.186  32.758  63.648  1.00  0.00     0.026 C 
ENDBRANCH  12  16
ENDBRANCH   7   8
BRANCH   7  18
HETATM   18  C   UNL     1       5.656  30.540  57.257  1.00  0.00    -0.035 A 
HETATM   19  C   UNL     1       4.382  30.312  57.812  1.00  0.00     0.009 A 
HETATM   20  C   UNL     1       3.227  30.744  57.160  1.00  0.00     0.001 A 
HETATM   21  C   UNL     1       3.325  31.414  55.944  1.00  0.00     0.000 A 
HETATM   22  C   UNL     1       4.576  31.651  55.381  1.00  0.00     0.001 A 
HETATM   23  C   UNL     1       5.734  31.217  56.030  1.00  0.00     0.009 A 
ENDBRANCH   7  18
ENDBRANCH   6   7
ENDBRANCH   1   6
BRANCH   2  24
HETATM   24  C   UNL     1       6.173  27.518  54.950  1.00  0.00     0.043 A 
HETATM   25  C   UNL     1       4.799  27.743  55.106  1.00  0.00     0.033 A 
HETATM   26  C   UNL     1       4.052  28.247  54.038  1.00  0.00     0.044 A 
HETATM   27  C   UNL     1       4.677  28.512  52.825  1.00  0.00     0.116 A 
HETATM   28  F   UNL     1       3.960  28.993  51.804  1.00  0.00    -0.206 F 
HETATM   29  C   UNL     1       6.037  28.281  52.656  1.00  0.00     0.044 A 
HETATM   30  C   UNL     1       6.793  27.780  53.719  1.00  0.00     0.033 A 
ENDBRANCH   2  24
BRANCH   3  31
HETATM   31  C   UNL     1       6.279  24.526  55.924  1.00  0.00     0.315 C 
BRANCH  31  32
HETATM   32  N   UNL     1       7.229  23.793  54.980  1.00  0.00    -0.064 N 
HETATM   33  H   UNL     1       8.127  24.298  55.081  1.00  0.00     0.280 HD
HETATM   34  C   UNL     1       7.493  22.372  55.425  1.00  0.00     0.235 C 
HETATM   35  C   UNL     1       8.559  21.747  54.539  1.00  0.00     0.028 C 
HETATM   36  C   UNL     1       8.177  21.821  53.066  1.00  0.00     0.003 C 
HETATM   37  C   UNL     1       7.866  23.255  52.651  1.00  0.00     0.028 C 
HETATM   38  C   UNL     1       6.804  23.884  53.541  1.00  0.00     0.235 C 
ENDBRANCH  31  32
ENDBRANCH   3  31
TORSDOF 8
ENDMDL
MODEL 3
REMARK VINA RESULT:      -9.1      2.898      7.442
REMARK  8 active torsions:
REMARK  status: ('A' for Active; 'I' for Inactive)
REMARK    1  A    between atoms: C_2  and  N_3 
REMARK       I    between atoms: N_3  and  C_4 
REMARK       I    between atoms: C_4  and  N_5 
REMARK       I    between atoms: N_5  and  C_6 
REMARK    2  A    between atoms: C_6  and  C_7 
REMARK    3  A    between atoms: C_7  and  S_8 
REMARK    4  A    between atoms: C_7  and  C_29 
REMARK    5  A    between atoms: S_8  and  C_9 
REMARK    6  A    between atoms: N_10  and  C_11 
REMARK    7  A    between atoms: C_18  and  C_19 
REMARK    8  A    between atoms: C_19  and  N_20 
ROOT
HETATM    1  C   UNL     1       6.637  27.733  57.350  1.00  0.00     0.197 A 
HETATM    2  N   UNL     1       6.405  29.097  57.370  1.00  0.00    -0.274 N 
HETATM    3  C   UNL     1       7.484  29.602  58.086  1.00  0.00     0.161 A 
HETATM    4  N   UNL     1       8.297  28.618  58.423  1.00  0.00    -0.132 NA
HETATM    5  N   UNL     1       7.773  27.458  57.949  1.00  0.00    -0.122 NA
ENDROOT
BRANCH   1   6
HETATM    6  S   UNL     1       5.746  26.563  56.439  1.00  0.00    -0.070 SA
BRANCH   6   7
HETATM    7  C   UNL     1       6.495  26.677  54.768  1.00  0.00     0.180 C 
BRANCH   7   8
HETATM    8  C   UNL     1       6.988  25.336  54.198  1.00  0.00     0.244 C 
HETATM    9  N   UNL     1       6.738  24.201  54.945  1.00  0.00    -0.278 N 
HETATM   10  C   UNL     1       7.414  23.011  54.908  1.00  0.00     0.322 C 
HETATM   11  H   UNL     1       6.249  24.306  55.824  1.00  0.00     0.173 HD
HETATM   12  N   UNL     1       8.145  22.769  53.788  1.00  0.00    -0.343 N 
HETATM   13  O   UNL     1       7.361  22.257  55.876  1.00  0.00    -0.247 OA
HETATM   14  H   UNL     1       8.096  23.456  53.038  1.00  0.00     0.164 HD
HETATM   15  O   UNL     1       7.485  25.279  53.070  1.00  0.00    -0.271 OA
BRANCH  12  16
HETATM   16  C   UNL     1       8.958  21.586  53.611  1.00  0.00     0.120 C 
HETATM   17  C   UNL     1       8.234  20.501  52.835  1.00  0.00     0.026 C 
ENDBRANCH  12  16
ENDBRANCH   7   8
BRANCH   7  18
HETATM   18  C   UNL     1       5.683  27.540  53.814  1.00  0.00    -0.035 A 
HETATM   19  C   UNL     1       4.283  27.580  53.949  1.00  0.00     0.009 A 
HETATM   20  C   UNL     1       3.499  28.331  53.073  1.00  0.00     0.001 A 
HETATM   21  C   UNL     1       4.101  29.056  52.048  1.00  0.00     0.000 A 
HETATM   22  C   UNL     1       5.485  29.031  51.901  1.00  0.00     0.001 A 
HETATM   23  C   UNL     1       6.272  28.278  52.775  1.00  0.00     0.009 A 
ENDBRANCH   7  18
ENDBRANCH   6   7
ENDBRANCH   1   6
BRANCH   2  24
HETATM   24  C   UNL     1       5.324  29.828  56.821  1.00  0.00     0.043 A 
HETATM   25  C   UNL     1       5.516  30.616  55.678  1.00  0.00     0.033 A 
HETATM   26  C   UNL     1       4.444  31.329  55.137  1.00  0.00     0.044 A 
HETATM   27  C   UNL     1       3.195  31.259  55.743  1.00  0.00     0.116 A 
HETATM   28  F   UNL     1       2.170  31.945  55.224  1.00  0.00    -0.206 F 
HETATM   29  C   UNL     1       2.995  30.491  56.884  1.00  0.00     0.044 A 
HETATM   30  C   UNL     1       4.060  29.772  57.431  1.00  0.00     0.033 A 
ENDBRANCH   2  24
BRANCH   3  31
HETATM   31  C   UNL     1       7.658  30.993  58.584  1.00  0.00     0.315 C 
BRANCH  31  32
HETATM   32  N   UNL     1       7.556  31.043  60.106  1.00  0.00    -0.064 N 
HETATM   33  H   UNL     1       7.027  30.188  60.353  1.00  0.00     0.280 HD
HETATM   34  C   UNL     1       8.906  30.911  60.774  1.00  0.00     0.235 C 
HETATM   35  C   UNL     1       8.725  30.812  62.281  1.00  0.00     0.028 C 
HETATM   36  C   UNL     1       7.933  31.993  62.828  1.00  0.00     0.003 C 
HETATM   37  C   UNL     1       6.597  32.139  62.106  1.00  0.00     0.028 C 
HETATM   38  C   UNL     1       6.776  32.231  60.598  1.00  0.00     0.235 C 
ENDBRANCH  31  32
ENDBRANCH   3  31
TORSDOF 8
ENDMDL
MODEL 4
REMARK VINA RESULT:      -9.0      2.146      4.006
REMARK  8 active torsions:
REMARK  status: ('A' for Active; 'I' for Inactive)
REMARK    1  A    between atoms: C_2  and  N_3 
REMARK       I    between atoms: N_3  and  C_4 
REMARK       I    between atoms: C_4  and  N_5 
REMARK       I    between atoms: N_5  and  C_6 
REMARK    2  A    between atoms: C_6  and  C_7 
REMARK    3  A    between atoms: C_7  and  S_8 
REMARK    4  A    between atoms: C_7  and  C_29 
REMARK    5  A    between atoms: S_8  and  C_9 
REMARK    6  A    between atoms: N_10  and  C_11 
REMARK    7  A    between atoms: C_18  and  C_19 
REMARK    8  A    between atoms: C_19  and  N_20 
ROOT
HETATM    1  C   UNL     1       6.893  26.623  57.100  1.00  0.00     0.197 A 
HETATM    2  N   UNL     1       7.278  25.774  56.077  1.00  0.00    -0.274 N 
HETATM    3  C   UNL     1       8.290  25.012  56.648  1.00  0.00     0.161 A 
HETATM    4  N   UNL     1       8.457  25.361  57.909  1.00  0.00    -0.132 NA
HETATM    5  N   UNL     1       7.574  26.355  58.191  1.00  0.00    -0.122 NA
ENDROOT
BRANCH   1   6
HETATM    6  S   UNL     1       5.533  27.692  57.079  1.00  0.00    -0.070 SA
BRANCH   6   7
HETATM    7  C   UNL     1       6.214  29.217  56.321  1.00  0.00     0.180 C 
BRANCH   7   8
HETATM    8  C   UNL     1       5.307  30.452  56.449  1.00  0.00     0.244 C 
HETATM    9  N   UNL     1       5.156  31.246  55.329  1.00  0.00    -0.278 N 
HETATM   10  C   UNL     1       4.799  32.567  55.283  1.00  0.00     0.322 C 
HETATM   11  H   UNL     1       5.647  30.980  54.486  1.00  0.00     0.173 HD
HETATM   12  N   UNL     1       4.163  33.056  56.379  1.00  0.00    -0.343 N 
HETATM   13  O   UNL     1       5.094  33.237  54.297  1.00  0.00    -0.247 OA
HETATM   14  H   UNL     1       3.948  32.401  57.129  1.00  0.00     0.164 HD
HETATM   15  O   UNL     1       4.660  30.651  57.482  1.00  0.00    -0.271 OA
BRANCH  12  16
HETATM   16  C   UNL     1       3.764  34.440  56.515  1.00  0.00     0.120 C 
HETATM   17  C   UNL     1       3.601  34.854  57.966  1.00  0.00     0.026 C 
ENDBRANCH  12  16
ENDBRANCH   7   8
BRANCH   7  18
HETATM   18  C   UNL     1       7.681  29.440  56.657  1.00  0.00    -0.035 A 
HETATM   19  C   UNL     1       8.029  29.895  57.943  1.00  0.00     0.009 A 
HETATM   20  C   UNL     1       9.359  30.146  58.281  1.00  0.00     0.001 A 
HETATM   21  C   UNL     1      10.365  29.943  57.340  1.00  0.00     0.000 A 
HETATM   22  C   UNL     1      10.041  29.490  56.064  1.00  0.00     0.001 A 
HETATM   23  C   UNL     1       8.709  29.241  55.722  1.00  0.00     0.009 A 
ENDBRANCH   7  18
ENDBRANCH   6   7
ENDBRANCH   1   6
BRANCH   2  24
HETATM   24  C   UNL     1       6.789  25.694  54.750  1.00  0.00     0.043 A 
HETATM   25  C   UNL     1       5.633  24.954  54.470  1.00  0.00     0.033 A 
HETATM   26  C   UNL     1       5.153  24.886  53.161  1.00  0.00     0.044 A 
HETATM   27  C   UNL     1       5.831  25.545  52.142  1.00  0.00     0.116 A 
HETATM   28  F   UNL     1       5.369  25.476  50.888  1.00  0.00    -0.206 F 
HETATM   29  C   UNL     1       6.985  26.273  52.406  1.00  0.00     0.044 A 
HETATM   30  C   UNL     1       7.472  26.350  53.713  1.00  0.00     0.033 A 
ENDBRANCH   2  24
BRANCH   3  31
HETATM   31  C   UNL     1       9.202  24.066  55.950  1.00  0.00     0.315 C 
BRANCH  31  32
HETATM   32  N   UNL     1       8.418  22.913  55.328  1.00  0.00    -0.064 N 
HETATM   33  H   UNL     1       7.426  23.189  55.443  1.00  0.00     0.280 HD
HETATM   34  C   UNL     1       8.654  22.799  53.839  1.00  0.00     0.235 C 
HETATM   35  C   UNL     1       7.734  21.739  53.254  1.00  0.00     0.028 C 
HETATM   36  C   UNL     1       7.902  20.400  53.961  1.00  0.00     0.003 C 
HETATM   37  C   UNL     1       7.709  20.546  55.466  1.00  0.00     0.028 C 
HETATM   38  C   UNL     1       8.624  21.611  56.053  1.00  0.00     0.235 C 
ENDBRANCH  31  32
ENDBRANCH   3  31
TORSDOF 8
ENDMDL
MODEL 5
REMARK VINA RESULT:      -9.0      2.773      5.696
REMARK  8 active torsions:
REMARK  status: ('A' for Active; 'I' for Inactive)
REMARK    1  A    between atoms: C_2  and  N_3 
REMARK       I    between atoms: N_3  and  C_4 
REMARK       I    between atoms: C_4  and  N_5 
REMARK       I    between atoms: N_5  and  C_6 
REMARK    2  A    between atoms: C_6  and  C_7 
REMARK    3  A    between atoms: C_7  and  S_8 
REMARK    4  A    between atoms: C_7  and  C_29 
REMARK    5  A    between atoms: S_8  and  C_9 
REMARK    6  A    between atoms: N_10  and  C_11 
REMARK    7  A    between atoms: C_18  and  C_19 
REMARK    8  A    between atoms: C_19  and  N_20 
ROOT
HETATM    1  C   UNL     1       4.776  28.389  54.652  1.00  0.00     0.197 A 
HETATM    2  N   UNL     1       5.340  27.909  53.483  1.00  0.00    -0.274 N 
HETATM    3  C   UNL     1       5.151  28.948  52.578  1.00  0.00     0.161 A 
HETATM    4  N   UNL     1       4.559  29.963  53.179  1.00  0.00    -0.132 NA
HETATM    5  N   UNL     1       4.342  29.616  54.475  1.00  0.00    -0.122 NA
ENDROOT
BRANCH   1   6
HETATM    6  S   UNL     1       4.864  27.638  56.208  1.00  0.00    -0.070 SA
BRANCH   6   7
HETATM    7  C   UNL     1       6.663  27.636  56.568  1.00  0.00     0.180 C 
BRANCH   7   8
HETATM    8  C   UNL     1       7.092  28.615  57.673  1.00  0.00     0.244 C 
HETATM    9  N   UNL     1       6.388  29.799  57.778  1.00  0.00    -0.278 N 
HETATM   10  C   UNL     1       6.812  30.976  58.336  1.00  0.00     0.322 C 
HETATM   11  H   UNL     1       5.633  29.964  57.126  1.00  0.00     0.173 HD
HETATM   12  N   UNL     1       7.853  30.890  59.204  1.00  0.00    -0.343 N 
HETATM   13  O   UNL     1       6.270  32.028  58.006  1.00  0.00    -0.247 OA
HETATM   14  H   UNL     1       8.208  29.960  59.421  1.00  0.00     0.164 HD
HETATM   15  O   UNL     1       7.956  28.294  58.495  1.00  0.00    -0.271 OA
BRANCH  12  16
HETATM   16  C   UNL     1       8.455  32.041  59.839  1.00  0.00     0.120 C 
HETATM   17  C   UNL     1       9.197  31.676  61.112  1.00  0.00     0.026 C 
ENDBRANCH  12  16
ENDBRANCH   7   8
BRANCH   7  18
HETATM   18  C   UNL     1       7.245  26.234  56.667  1.00  0.00    -0.035 A 
HETATM   19  C   UNL     1       6.401  25.125  56.468  1.00  0.00     0.009 A 
HETATM   20  C   UNL     1       6.887  23.823  56.585  1.00  0.00     0.001 A 
HETATM   21  C   UNL     1       8.225  23.606  56.899  1.00  0.00     0.000 A 
HETATM   22  C   UNL     1       9.077  24.690  57.096  1.00  0.00     0.001 A 
HETATM   23  C   UNL     1       8.592  25.995  56.982  1.00  0.00     0.009 A 
ENDBRANCH   7  18
ENDBRANCH   6   7
ENDBRANCH   1   6
BRANCH   2  24
HETATM   24  C   UNL     1       5.950  26.656  53.233  1.00  0.00     0.043 A 
HETATM   25  C   UNL     1       7.345  26.561  53.134  1.00  0.00     0.033 A 
HETATM   26  C   UNL     1       7.941  25.321  52.895  1.00  0.00     0.044 A 
HETATM   27  C   UNL     1       7.145  24.190  52.748  1.00  0.00     0.116 A 
HETATM   28  F   UNL     1       7.719  23.004  52.518  1.00  0.00    -0.206 F 
HETATM   29  C   UNL     1       5.761  24.275  52.833  1.00  0.00     0.044 A 
HETATM   30  C   UNL     1       5.155  25.510  53.075  1.00  0.00     0.033 A 
ENDBRANCH   2  24
BRANCH   3  31
HETATM   31  C   UNL     1       5.389  28.912  51.110  1.00  0.00     0.315 C 
BRANCH  31  32
HETATM   32  N   UNL     1       4.315  28.087  50.405  1.00  0.00    -0.064 N 
HETATM   33  H   UNL     1       3.766  27.671  51.178  1.00  0.00     0.280 HD
HETATM   34  C   UNL     1       3.353  28.953  49.623  1.00  0.00     0.235 C 
HETATM   35  C   UNL     1       2.223  28.095  49.073  1.00  0.00     0.028 C 
HETATM   36  C   UNL     1       2.755  26.937  48.238  1.00  0.00     0.003 C 
HETATM   37  C   UNL     1       3.762  26.108  49.028  1.00  0.00     0.028 C 
HETATM   38  C   UNL     1       4.889  26.965  49.585  1.00  0.00     0.235 C 
ENDBRANCH  31  32
ENDBRANCH   3  31
TORSDOF 8
ENDMDL
MODEL 6
REMARK VINA RESULT:      -8.8      3.386      8.271
REMARK  8 active torsions:
REMARK  status: ('A' for Active; 'I' for Inactive)
REMARK    1  A    between atoms: C_2  and  N_3 
REMARK       I    between atoms: N_3  and  C_4 
REMARK       I    between atoms: C_4  and  N_5 
REMARK       I    between atoms: N_5  and  C_6 
REMARK    2  A    between atoms: C_6  and  C_7 
REMARK    3  A    between atoms: C_7  and  S_8 
REMARK    4  A    between atoms: C_7  and  C_29 
REMARK    5  A    between atoms: S_8  and  C_9 
REMARK    6  A    between atoms: N_10  and  C_11 
REMARK    7  A    between atoms: C_18  and  C_19 
REMARK    8  A    between atoms: C_19  and  N_20 
ROOT
HETATM    1  C   UNL     1       6.179  27.654  56.874  1.00  0.00     0.197 A 
HETATM    2  N   UNL     1       6.701  28.899  57.181  1.00  0.00    -0.274 N 
HETATM    3  C   UNL     1       5.573  29.685  57.387  1.00  0.00     0.161 A 
HETATM    4  N   UNL     1       4.485  28.951  57.248  1.00  0.00    -0.132 NA
HETATM    5  N   UNL     1       4.867  27.683  56.944  1.00  0.00    -0.122 NA
ENDROOT
BRANCH   1   6
HETATM    6  S   UNL     1       7.079  26.187  56.702  1.00  0.00    -0.070 SA
BRANCH   6   7
HETATM    7  C   UNL     1       6.634  25.621  55.015  1.00  0.00     0.180 C 
BRANCH   7   8
HETATM    8  C   UNL     1       6.530  26.746  53.972  1.00  0.00     0.244 C 
HETATM    9  N   UNL     1       5.295  27.345  53.808  1.00  0.00    -0.278 N 
HETATM   10  C   UNL     1       4.832  28.015  52.708  1.00  0.00     0.322 C 
HETATM   11  H   UNL     1       4.526  27.014  54.375  1.00  0.00     0.173 HD
HETATM   12  N   UNL     1       5.773  28.476  51.843  1.00  0.00    -0.343 N 
HETATM   13  O   UNL     1       3.620  28.131  52.539  1.00  0.00    -0.247 OA
HETATM   14  H   UNL     1       6.750  28.342  52.098  1.00  0.00     0.164 HD
HETATM   15  O   UNL     1       7.539  27.162  53.395  1.00  0.00    -0.271 OA
BRANCH  12  16
HETATM   16  C   UNL     1       5.452  29.158  50.609  1.00  0.00     0.120 C 
HETATM   17  C   UNL     1       5.298  28.198  49.443  1.00  0.00     0.026 C 
ENDBRANCH  12  16
ENDBRANCH   7   8
BRANCH   7  18
HETATM   18  C   UNL     1       7.414  24.389  54.579  1.00  0.00    -0.035 A 
HETATM   19  C   UNL     1       7.123  23.799  53.335  1.00  0.00     0.009 A 
HETATM   20  C   UNL     1       7.790  22.649  52.913  1.00  0.00     0.001 A 
HETATM   21  C   UNL     1       8.761  22.070  53.726  1.00  0.00     0.000 A 
HETATM   22  C   UNL     1       9.064  22.642  54.959  1.00  0.00     0.001 A 
HETATM   23  C   UNL     1       8.396  23.792  55.385  1.00  0.00     0.009 A 
ENDBRANCH   7  18
ENDBRANCH   6   7
ENDBRANCH   1   6
BRANCH   2  24
HETATM   24  C   UNL     1       8.055  29.307  57.253  1.00  0.00     0.043 A 
HETATM   25  C   UNL     1       8.580  29.791  58.459  1.00  0.00     0.033 A 
HETATM   26  C   UNL     1       9.917  30.185  58.525  1.00  0.00     0.044 A 
HETATM   27  C   UNL     1      10.717  30.104  57.391  1.00  0.00     0.116 A 
HETATM   28  F   UNL     1      11.998  30.484  57.457  1.00  0.00    -0.206 F 
HETATM   29  C   UNL     1      10.204  29.637  56.187  1.00  0.00     0.044 A 
HETATM   30  C   UNL     1       8.868  29.237  56.111  1.00  0.00     0.033 A 
ENDBRANCH   2  24
BRANCH   3  31
HETATM   31  C   UNL     1       5.529  31.161  57.557  1.00  0.00     0.315 C 
BRANCH  31  32
HETATM   32  N   UNL     1       5.259  31.533  59.013  1.00  0.00    -0.064 N 
HETATM   33  H   UNL     1       5.313  30.632  59.520  1.00  0.00     0.280 HD
HETATM   34  C   UNL     1       6.350  32.407  59.591  1.00  0.00     0.235 C 
HETATM   35  C   UNL     1       6.106  32.615  61.078  1.00  0.00     0.028 C 
HETATM   36  C   UNL     1       4.719  33.187  61.343  1.00  0.00     0.003 C 
HETATM   37  C   UNL     1       3.637  32.318  60.709  1.00  0.00     0.028 C 
HETATM   38  C   UNL     1       3.883  32.103  59.223  1.00  0.00     0.235 C 
ENDBRANCH  31  32
ENDBRANCH   3  31
TORSDOF 8
ENDMDL
MODEL 7
REMARK VINA RESULT:      -8.7      3.012      5.686
REMARK  8 active torsions:
REMARK  status: ('A' for Active; 'I' for Inactive)
REMARK    1  A    between atoms: C_2  and  N_3 
REMARK       I    between atoms: N_3  and  C_4 
REMARK       I    between atoms: C_4  and  N_5 
REMARK       I    between atoms: N_5  and  C_6 
REMARK    2  A    between atoms: C_6  and  C_7 
REMARK    3  A    between atoms: C_7  and  S_8 
REMARK    4  A    between atoms: C_7  and  C_29 
REMARK    5  A    between atoms: S_8  and  C_9 
REMARK    6  A    between atoms: N_10  and  C_11 
REMARK    7  A    between atoms: C_18  and  C_19 
REMARK    8  A    between atoms: C_19  and  N_20 
ROOT
HETATM    1  C   UNL     1       4.284  29.072  54.083  1.00  0.00     0.197 A 
HETATM    2  N   UNL     1       4.951  28.393  53.079  1.00  0.00    -0.274 N 
HETATM    3  C   UNL     1       4.936  29.286  52.014  1.00  0.00     0.161 A 
HETATM    4  N   UNL     1       4.342  30.407  52.378  1.00  0.00    -0.132 NA
HETATM    5  N   UNL     1       3.952  30.275  53.673  1.00  0.00    -0.122 NA
ENDROOT
BRANCH   1   6
HETATM    6  S   UNL     1       4.140  28.567  55.732  1.00  0.00    -0.070 SA
BRANCH   6   7
HETATM    7  C   UNL     1       5.879  28.558  56.317  1.00  0.00     0.180 C 
BRANCH   7   8
HETATM    8  C   UNL     1       6.188  29.594  57.411  1.00  0.00     0.244 C 
HETATM    9  N   UNL     1       7.510  29.744  57.785  1.00  0.00    -0.278 N 
HETATM   10  C   UNL     1       7.992  30.231  58.971  1.00  0.00     0.322 C 
HETATM   11  H   UNL     1       8.204  29.168  57.327  1.00  0.00     0.173 HD
HETATM   12  N   UNL     1       7.135  30.992  59.701  1.00  0.00    -0.343 N 
HETATM   13  O   UNL     1       9.130  29.935  59.325  1.00  0.00    -0.247 OA
HETATM   14  H   UNL     1       6.223  31.192  59.297  1.00  0.00     0.164 HD
HETATM   15  O   UNL     1       5.299  30.331  57.846  1.00  0.00    -0.271 OA
BRANCH  12  16
HETATM   16  C   UNL     1       7.468  31.539  60.998  1.00  0.00     0.120 C 
HETATM   17  C   UNL     1       8.450  32.692  60.903  1.00  0.00     0.026 C 
ENDBRANCH  12  16
ENDBRANCH   7   8
BRANCH   7  18
HETATM   18  C   UNL     1       6.410  27.155  56.571  1.00  0.00    -0.035 A 
HETATM   19  C   UNL     1       7.798  26.961  56.702  1.00  0.00     0.009 A 
HETATM   20  C   UNL     1       8.329  25.686  56.900  1.00  0.00     0.001 A 
HETATM   21  C   UNL     1       7.482  24.584  56.973  1.00  0.00     0.000 A 
HETATM   22  C   UNL     1       6.106  24.757  56.848  1.00  0.00     0.001 A 
HETATM   23  C   UNL     1       5.572  26.032  56.647  1.00  0.00     0.009 A 
ENDBRANCH   7  18
ENDBRANCH   6   7
ENDBRANCH   1   6
BRANCH   2  24
HETATM   24  C   UNL     1       5.506  27.090  53.097  1.00  0.00     0.043 A 
HETATM   25  C   UNL     1       4.667  25.968  53.079  1.00  0.00     0.033 A 
HETATM   26  C   UNL     1       5.221  24.686  53.089  1.00  0.00     0.044 A 
HETATM   27  C   UNL     1       6.601  24.532  53.128  1.00  0.00     0.116 A 
HETATM   28  F   UNL     1       7.129  23.303  53.140  1.00  0.00    -0.206 F 
HETATM   29  C   UNL     1       7.443  25.638  53.158  1.00  0.00     0.044 A 
HETATM   30  C   UNL     1       6.899  26.924  53.145  1.00  0.00     0.033 A 
ENDBRANCH   2  24
BRANCH   3  31
HETATM   31  C   UNL     1       5.343  29.013  50.610  1.00  0.00     0.315 C 
BRANCH  31  32
HETATM   32  N   UNL     1       4.295  28.163  49.895  1.00  0.00    -0.064 N 
HETATM   33  H   UNL     1       3.622  27.909  50.640  1.00  0.00     0.280 HD
HETATM   34  C   UNL     1       3.514  28.959  48.875  1.00  0.00     0.235 C 
HETATM   35  C   UNL     1       2.389  28.105  48.310  1.00  0.00     0.028 C 
HETATM   36  C   UNL     1       2.916  26.798  47.730  1.00  0.00     0.003 C 
HETATM   37  C   UNL     1       3.743  26.035  48.759  1.00  0.00     0.028 C 
HETATM   38  C   UNL     1       4.865  26.891  49.331  1.00  0.00     0.235 C 
ENDBRANCH  31  32
ENDBRANCH   3  31
TORSDOF 8
ENDMDL
MODEL 8
REMARK VINA RESULT:      -8.3      3.604      6.035
REMARK  8 active torsions:
REMARK  status: ('A' for Active; 'I' for Inactive)
REMARK    1  A    between atoms: C_2  and  N_3 
REMARK       I    between atoms: N_3  and  C_4 
REMARK       I    between atoms: C_4  and  N_5 
REMARK       I    between atoms: N_5  and  C_6 
REMARK    2  A    between atoms: C_6  and  C_7 
REMARK    3  A    between atoms: C_7  and  S_8 
REMARK    4  A    between atoms: C_7  and  C_29 
REMARK    5  A    between atoms: S_8  and  C_9 
REMARK    6  A    between atoms: N_10  and  C_11 
REMARK    7  A    between atoms: C_18  and  C_19 
REMARK    8  A    between atoms: C_19  and  N_20 
ROOT
HETATM    1  C   UNL     1       5.137  26.622  53.947  1.00  0.00     0.197 A 
HETATM    2  N   UNL     1       6.461  26.424  54.297  1.00  0.00    -0.274 N 
HETATM    3  C   UNL     1       6.812  25.269  53.608  1.00  0.00     0.161 A 
HETATM    4  N   UNL     1       5.789  24.849  52.887  1.00  0.00    -0.132 NA
HETATM    5  N   UNL     1       4.752  25.704  53.090  1.00  0.00    -0.122 NA
ENDROOT
BRANCH   1   6
HETATM    6  S   UNL     1       4.181  28.013  54.329  1.00  0.00    -0.070 SA
BRANCH   6   7
HETATM    7  C   UNL     1       4.358  29.062  52.834  1.00  0.00     0.180 C 
BRANCH   7   8
HETATM    8  C   UNL     1       3.562  28.571  51.614  1.00  0.00     0.244 C 
HETATM    9  N   UNL     1       4.180  27.658  50.780  1.00  0.00    -0.278 N 
HETATM   10  C   UNL     1       3.905  27.411  49.462  1.00  0.00     0.322 C 
HETATM   11  H   UNL     1       5.119  27.361  51.011  1.00  0.00     0.173 HD
HETATM   12  N   UNL     1       2.681  27.802  49.019  1.00  0.00    -0.343 N 
HETATM   13  O   UNL     1       4.766  26.896  48.753  1.00  0.00    -0.247 OA
HETATM   14  H   UNL     1       2.039  28.198  49.703  1.00  0.00     0.164 HD
HETATM   15  O   UNL     1       2.382  28.902  51.459  1.00  0.00    -0.271 OA
BRANCH  12  16
HETATM   16  C   UNL     1       2.252  27.662  47.645  1.00  0.00     0.120 C 
HETATM   17  C   UNL     1       0.807  27.208  47.536  1.00  0.00     0.026 C 
ENDBRANCH  12  16
ENDBRANCH   7   8
BRANCH   7  18
HETATM   18  C   UNL     1       4.246  30.549  53.139  1.00  0.00    -0.035 A 
HETATM   19  C   UNL     1       4.080  30.965  54.473  1.00  0.00     0.009 A 
HETATM   20  C   UNL     1       3.939  32.315  54.792  1.00  0.00     0.001 A 
HETATM   21  C   UNL     1       3.964  33.274  53.783  1.00  0.00     0.000 A 
HETATM   22  C   UNL     1       4.130  32.882  52.457  1.00  0.00     0.001 A 
HETATM   23  C   UNL     1       4.269  31.529  52.135  1.00  0.00     0.009 A 
ENDBRANCH   7  18
ENDBRANCH   6   7
ENDBRANCH   1   6
BRANCH   2  24
HETATM   24  C   UNL     1       7.281  27.186  55.164  1.00  0.00     0.043 A 
HETATM   25  C   UNL     1       7.437  26.801  56.502  1.00  0.00     0.033 A 
HETATM   26  C   UNL     1       8.253  27.553  57.351  1.00  0.00     0.044 A 
HETATM   27  C   UNL     1       8.896  28.684  56.864  1.00  0.00     0.116 A 
HETATM   28  F   UNL     1       9.675  29.404  57.679  1.00  0.00    -0.206 F 
HETATM   29  C   UNL     1       8.739  29.082  55.541  1.00  0.00     0.044 A 
HETATM   30  C   UNL     1       7.928  28.335  54.684  1.00  0.00     0.033 A 
ENDBRANCH   2  24
BRANCH   3  31
HETATM   31  C   UNL     1       8.064  24.480  53.759  1.00  0.00     0.315 C 
BRANCH  31  32
HETATM   32  N   UNL     1       7.752  23.022  54.089  1.00  0.00    -0.064 N 
HETATM   33  H   UNL     1       6.719  22.965  54.036  1.00  0.00     0.280 HD
HETATM   34  C   UNL     1       8.281  22.073  53.037  1.00  0.00     0.235 C 
HETATM   35  C   UNL     1       7.808  20.659  53.339  1.00  0.00     0.028 C 
HETATM   36  C   UNL     1       8.202  20.226  54.746  1.00  0.00     0.003 C 
HETATM   37  C   UNL     1       7.703  21.223  55.786  1.00  0.00     0.028 C 
HETATM   38  C   UNL     1       8.168  22.639  55.482  1.00  0.00     0.235 C 
ENDBRANCH  31  32
ENDBRANCH   3  31
TORSDOF 8
ENDMDL
MODEL 9
REMARK VINA RESULT:      -8.1      4.029      7.303
REMARK  8 active torsions:
REMARK  status: ('A' for Active; 'I' for Inactive)
REMARK    1  A    between atoms: C_2  and  N_3 
REMARK       I    between atoms: N_3  and  C_4 
REMARK       I    between atoms: C_4  and  N_5 
REMARK       I    between atoms: N_5  and  C_6 
REMARK    2  A    between atoms: C_6  and  C_7 
REMARK    3  A    between atoms: C_7  and  S_8 
REMARK    4  A    between atoms: C_7  and  C_29 
REMARK    5  A    between atoms: S_8  and  C_9 
REMARK    6  A    between atoms: N_10  and  C_11 
REMARK    7  A    between atoms: C_18  and  C_19 
REMARK    8  A    between atoms: C_19  and  N_20 
ROOT
HETATM    1  C   UNL     1       4.772  27.035  51.598  1.00  0.00     0.197 A 
HETATM    2  N   UNL     1       4.412  27.978  50.651  1.00  0.00    -0.274 N 
HETATM    3  C   UNL     1       4.406  27.260  49.461  1.00  0.00     0.161 A 
HETATM    4  N   UNL     1       4.702  25.996  49.699  1.00  0.00    -0.132 NA
HETATM    5  N   UNL     1       4.913  25.858  51.034  1.00  0.00    -0.122 NA
ENDROOT
BRANCH   1   6
HETATM    6  S   UNL     1       4.766  27.263  53.313  1.00  0.00    -0.070 SA
BRANCH   6   7
HETATM    7  C   UNL     1       6.541  27.125  53.757  1.00  0.00     0.180 C 
BRANCH   7   8
HETATM    8  C   UNL     1       6.985  28.052  54.900  1.00  0.00     0.244 C 
HETATM    9  N   UNL     1       8.118  28.815  54.693  1.00  0.00    -0.278 N 
HETATM   10  C   UNL     1       8.949  29.352  55.640  1.00  0.00     0.322 C 
HETATM   11  H   UNL     1       8.598  28.726  53.807  1.00  0.00     0.173 HD
HETATM   12  N   UNL     1       8.430  29.487  56.888  1.00  0.00    -0.343 N 
HETATM   13  O   UNL     1      10.103  29.643  55.334  1.00  0.00    -0.247 OA
HETATM   14  H   UNL     1       7.452  29.234  57.020  1.00  0.00     0.164 HD
HETATM   15  O   UNL     1       6.287  28.181  55.911  1.00  0.00    -0.271 OA
BRANCH  12  16
HETATM   16  C   UNL     1       9.188  29.987  58.014  1.00  0.00     0.120 C 
HETATM   17  C   UNL     1       8.358  30.057  59.283  1.00  0.00     0.026 C 
ENDBRANCH  12  16
ENDBRANCH   7   8
BRANCH   7  18
HETATM   18  C   UNL     1       7.016  25.683  53.856  1.00  0.00    -0.035 A 
HETATM   19  C   UNL     1       7.735  25.122  52.784  1.00  0.00     0.009 A 
HETATM   20  C   UNL     1       8.158  23.793  52.820  1.00  0.00     0.001 A 
HETATM   21  C   UNL     1       7.871  23.003  53.929  1.00  0.00     0.000 A 
HETATM   22  C   UNL     1       7.163  23.540  55.001  1.00  0.00     0.001 A 
HETATM   23  C   UNL     1       6.737  24.870  54.966  1.00  0.00     0.009 A 
ENDBRANCH   7  18
ENDBRANCH   6   7
ENDBRANCH   1   6
BRANCH   2  24
HETATM   24  C   UNL     1       4.133  29.356  50.821  1.00  0.00     0.043 A 
HETATM   25  C   UNL     1       2.818  29.783  51.047  1.00  0.00     0.033 A 
HETATM   26  C   UNL     1       2.550  31.143  51.221  1.00  0.00     0.044 A 
HETATM   27  C   UNL     1       3.589  32.063  51.161  1.00  0.00     0.116 A 
HETATM   28  F   UNL     1       3.330  33.365  51.327  1.00  0.00    -0.206 F 
HETATM   29  C   UNL     1       4.896  31.652  50.926  1.00  0.00     0.044 A 
HETATM   30  C   UNL     1       5.175  30.294  50.753  1.00  0.00     0.033 A 
ENDBRANCH   2  24
BRANCH   3  31
HETATM   31  C   UNL     1       4.276  27.807  48.084  1.00  0.00     0.315 C 
BRANCH  31  32
HETATM   32  N   UNL     1       2.820  28.136  47.764  1.00  0.00    -0.064 N 
HETATM   33  H   UNL     1       2.379  28.266  48.692  1.00  0.00     0.280 HD
HETATM   34  C   UNL     1       2.679  29.457  47.042  1.00  0.00     0.235 C 
HETATM   35  C   UNL     1       1.205  29.802  46.890  1.00  0.00     0.028 C 
HETATM   36  C   UNL     1       0.438  28.687  46.190  1.00  0.00     0.003 C 
HETATM   37  C   UNL     1       0.636  27.354  46.905  1.00  0.00     0.028 C 
HETATM   38  C   UNL     1       2.109  27.010  47.065  1.00  0.00     0.235 C 
ENDBRANCH  31  32
ENDBRANCH   3  31
TORSDOF 8
ENDMDL
MODEL 10
REMARK VINA RESULT:      -8.0      3.197      5.973
REMARK  8 active torsions:
REMARK  status: ('A' for Active; 'I' for Inactive)
REMARK    1  A    between atoms: C_2  and  N_3 
REMARK       I    between atoms: N_3  and  C_4 
REMARK       I    between atoms: C_4  and  N_5 
REMARK       I    between atoms: N_5  and  C_6 
REMARK    2  A    between atoms: C_6  and  C_7 
REMARK    3  A    between atoms: C_7  and  S_8 
REMARK    4  A    between atoms: C_7  and  C_29 
REMARK    5  A    between atoms: S_8  and  C_9 
REMARK    6  A    between atoms: N_10  and  C_11 
REMARK    7  A    between atoms: C_18  and  C_19 
REMARK    8  A    between atoms: C_19  and  N_20 
ROOT
HETATM    1  C   UNL     1       5.554  27.169  54.783  1.00  0.00     0.197 A 
HETATM    2  N   UNL     1       5.781  26.215  53.806  1.00  0.00    -0.274 N 
HETATM    3  C   UNL     1       4.942  26.604  52.768  1.00  0.00     0.161 A 
HETATM    4  N   UNL     1       4.307  27.713  53.097  1.00  0.00    -0.132 NA
HETATM    5  N   UNL     1       4.703  28.070  54.347  1.00  0.00    -0.122 NA
ENDROOT
BRANCH   1   6
HETATM    6  S   UNL     1       6.445  27.351  56.254  1.00  0.00    -0.070 SA
BRANCH   6   7
HETATM    7  C   UNL     1       6.764  29.156  56.328  1.00  0.00     0.180 C 
BRANCH   7   8
HETATM    8  C   UNL     1       5.661  29.969  57.026  1.00  0.00     0.244 C 
HETATM    9  N   UNL     1       5.624  31.328  56.780  1.00  0.00    -0.278 N 
HETATM   10  C   UNL     1       5.074  32.304  57.566  1.00  0.00     0.322 C 
HETATM   11  H   UNL     1       6.319  31.719  56.158  1.00  0.00     0.173 HD
HETATM   12  N   UNL     1       4.149  31.897  58.474  1.00  0.00    -0.343 N 
HETATM   13  O   UNL     1       5.459  33.465  57.443  1.00  0.00    -0.247 OA
HETATM   14  H   UNL     1       3.890  30.912  58.470  1.00  0.00     0.164 HD
HETATM   15  O   UNL     1       4.786  29.401  57.688  1.00  0.00    -0.271 OA
BRANCH  12  16
HETATM   16  C   UNL     1       3.511  32.791  59.414  1.00  0.00     0.120 C 
HETATM   17  C   UNL     1       3.810  32.421  60.856  1.00  0.00     0.026 C 
ENDBRANCH  12  16
ENDBRANCH   7   8
BRANCH   7  18
HETATM   18  C   UNL     1       8.190  29.489  56.742  1.00  0.00    -0.035 A 
HETATM   19  C   UNL     1       8.428  29.997  58.032  1.00  0.00     0.009 A 
HETATM   20  C   UNL     1       9.715  30.348  58.439  1.00  0.00     0.001 A 
HETATM   21  C   UNL     1      10.787  30.193  57.564  1.00  0.00     0.000 A 
HETATM   22  C   UNL     1      10.571  29.689  56.285  1.00  0.00     0.001 A 
HETATM   23  C   UNL     1       9.282  29.340  55.874  1.00  0.00     0.009 A 
ENDBRANCH   7  18
ENDBRANCH   6   7
ENDBRANCH   1   6
BRANCH   2  24
HETATM   24  C   UNL     1       6.639  25.090  53.838  1.00  0.00     0.043 A 
HETATM   25  C   UNL     1       7.558  24.877  52.801  1.00  0.00     0.033 A 
HETATM   26  C   UNL     1       8.407  23.769  52.842  1.00  0.00     0.044 A 
HETATM   27  C   UNL     1       8.328  22.879  53.907  1.00  0.00     0.116 A 
HETATM   28  F   UNL     1       9.141  21.817  53.943  1.00  0.00    -0.206 F 
HETATM   29  C   UNL     1       7.412  23.073  54.934  1.00  0.00     0.044 A 
HETATM   30  C   UNL     1       6.561  24.180  54.904  1.00  0.00     0.033 A 
ENDBRANCH   2  24
BRANCH   3  31
HETATM   31  C   UNL     1       4.629  25.837  51.533  1.00  0.00     0.315 C 
BRANCH  31  32
HETATM   32  N   UNL     1       4.428  26.775  50.345  1.00  0.00    -0.064 N 
HETATM   33  H   UNL     1       3.591  27.331  50.599  1.00  0.00     0.280 HD
HETATM   34  C   UNL     1       5.562  27.764  50.201  1.00  0.00     0.235 C 
HETATM   35  C   UNL     1       5.233  28.765  49.104  1.00  0.00     0.028 C 
HETATM   36  C   UNL     1       4.915  28.067  47.787  1.00  0.00     0.003 C 
HETATM   37  C   UNL     1       3.804  27.039  47.966  1.00  0.00     0.028 C 
HETATM   38  C   UNL     1       4.128  26.041  49.068  1.00  0.00     0.235 C 
ENDBRANCH  31  32
ENDBRANCH   3  31
TORSDOF 8
ENDMDL
