MODEL 1
REMARK VINA RESULT:      -9.9      0.000      0.000
REMARK  7 active torsions:
REMARK  status: ('A' for Active; 'I' for Inactive)
REMARK    1  A    between atoms: O_2  and  C_3 
REMARK    2  A    between atoms: C_6  and  C_7 
REMARK    3  A    between atoms: C_7  and  C_8 
REMARK    4  A    between atoms: C_7  and  C_14 
REMARK    5  A    between atoms: C_14  and  C_15 
REMARK       I    between atoms: C_15  and  N_16 
REMARK    6  A    between atoms: N_16  and  C_17 
REMARK    7  A    between atoms: C_17  and  C_18 
ROOT
HETATM    1  C   UNL     1       7.006  23.628  55.145  1.00  0.00     0.060 C 
ENDROOT
BRANCH   1   2
HETATM    2  C   UNL     1       6.685  24.549  53.964  1.00  0.00    -0.049 A 
HETATM    3  C   UNL     1       5.339  24.705  53.574  1.00  0.00     0.010 A 
HETATM    4  C   UNL     1       4.981  25.531  52.505  1.00  0.00     0.037 A 
HETATM    5  C   UNL     1       5.951  26.238  51.800  1.00  0.00     0.068 A 
HETATM    6  C   UNL     1       7.283  26.122  52.190  1.00  0.00     0.037 A 
HETATM    7  C   UNL     1       7.643  25.293  53.264  1.00  0.00     0.010 A 
BRANCH   5   8
HETATM    8  O   UNL     1       5.475  27.003  50.773  1.00  0.00    -0.356 OA
HETATM    9  C   UNL     1       4.721  26.332  49.772  1.00  0.00     0.210 C 
ENDBRANCH   5   8
ENDBRANCH   1   2
BRANCH   1  10
HETATM   10  C   UNL     1       7.644  22.284  54.775  1.00  0.00    -0.049 A 
HETATM   11  C   UNL     1       7.885  21.898  53.448  1.00  0.00     0.008 A 
HETATM   12  C   UNL     1       8.473  20.664  53.157  1.00  0.00     0.001 A 
HETATM   13  C   UNL     1       8.827  19.796  54.186  1.00  0.00     0.000 A 
HETATM   14  C   UNL     1       8.596  20.159  55.508  1.00  0.00     0.001 A 
HETATM   15  C   UNL     1       8.010  21.393  55.800  1.00  0.00     0.008 A 
ENDBRANCH   1  10
BRANCH   1  16
HETATM   16  C   UNL     1       7.649  24.234  56.412  1.00  0.00     0.116 C 
BRANCH  16  17
HETATM   17  C   UNL     1       7.084  25.507  57.015  1.00  0.00     0.218 C 
HETATM   18  N   UNL     1       7.936  26.546  57.236  1.00  0.00    -0.355 N 
HETATM   19  H   UNL     1       8.886  26.553  56.884  1.00  0.00     0.162 HD
HETATM   20  O   UNL     1       5.898  25.562  57.348  1.00  0.00    -0.274 OA
BRANCH  18  21
HETATM   21  C   UNL     1       7.438  27.811  57.730  1.00  0.00     0.184 C 
BRANCH  21  22
HETATM   22  C   UNL     1       8.524  28.837  57.739  1.00  0.00     0.080 A 
HETATM   23  N   UNL     1       9.572  28.776  56.883  1.00  0.00    -0.177 NA
HETATM   24  N   UNL     1      10.308  29.883  57.154  1.00  0.00    -0.281 N 
HETATM   25  H   UNL     1      11.149  30.054  56.613  1.00  0.00     0.189 HD
HETATM   26  C   UNL     1       9.757  30.610  58.145  1.00  0.00     0.036 A 
HETATM   27  C   UNL     1       8.624  29.975  58.548  1.00  0.00    -0.006 A 
HETATM   28  C   UNL     1      10.062  31.863  58.842  1.00  0.00     0.059 C 
HETATM   29  C   UNL     1       7.942  30.710  59.624  1.00  0.00     0.043 C 
HETATM   30  C   UNL     1       9.031  31.774  60.023  1.00  0.00     0.011 C 
ENDBRANCH  21  22
ENDBRANCH  18  21
ENDBRANCH  16  17
ENDBRANCH   1  16
TORSDOF 7
ENDMDL
MODEL 2
REMARK VINA RESULT:      -9.7      1.999      3.180
REMARK  7 active torsions:
REMARK  status: ('A' for Active; 'I' for Inactive)
REMARK    1  A    between atoms: O_2  and  C_3 
REMARK    2  A    between atoms: C_6  and  C_7 
REMARK    3  A    between atoms: C_7  and  C_8 
REMARK    4  A    between atoms: C_7  and  C_14 
REMARK    5  A    between atoms: C_14  and  C_15 
REMARK       I    between atoms: C_15  and  N_16 
REMARK    6  A    between atoms: N_16  and  C_17 
REMARK    7  A    between atoms: C_17  and  C_18 
ROOT
HETATM    1  C   UNL     1       7.086  23.761  54.892  1.00  0.00     0.060 C 
ENDROOT
BRANCH   1   2
HETATM    2  C   UNL     1       6.587  24.577  53.695  1.00  0.00    -0.049 A 
HETATM    3  C   UNL     1       7.430  25.569  53.154  1.00  0.00     0.010 A 
HETATM    4  C   UNL     1       7.033  26.347  52.063  1.00  0.00     0.037 A 
HETATM    5  C   UNL     1       5.790  26.149  51.468  1.00  0.00     0.068 A 
HETATM    6  C   UNL     1       4.956  25.153  51.967  1.00  0.00     0.037 A 
HETATM    7  C   UNL     1       5.355  24.371  53.063  1.00  0.00     0.010 A 
BRANCH   5   8
HETATM    8  O   UNL     1       5.517  26.977  50.415  1.00  0.00    -0.356 OA
HETATM    9  C   UNL     1       4.525  26.538  49.496  1.00  0.00     0.210 C 
ENDBRANCH   5   8
ENDBRANCH   1   2
BRANCH   1  10
HETATM   10  C   UNL     1       7.690  22.394  54.549  1.00  0.00    -0.049 A 
HETATM   11  C   UNL     1       7.881  21.959  53.230  1.00  0.00     0.008 A 
HETATM   12  C   UNL     1       8.439  20.705  52.964  1.00  0.00     0.001 A 
HETATM   13  C   UNL     1       8.813  19.867  54.011  1.00  0.00     0.000 A 
HETATM   14  C   UNL     1       8.631  20.281  55.327  1.00  0.00     0.001 A 
HETATM   15  C   UNL     1       8.074  21.533  55.594  1.00  0.00     0.008 A 
ENDBRANCH   1  10
BRANCH   1  16
HETATM   16  C   UNL     1       7.888  24.477  56.002  1.00  0.00     0.116 C 
BRANCH  16  17
HETATM   17  C   UNL     1       7.216  25.524  56.869  1.00  0.00     0.218 C 
HETATM   18  N   UNL     1       7.784  26.760  56.941  1.00  0.00    -0.355 N 
HETATM   19  H   UNL     1       8.542  27.045  56.333  1.00  0.00     0.162 HD
HETATM   20  O   UNL     1       6.219  25.232  57.534  1.00  0.00    -0.274 OA
BRANCH  18  21
HETATM   21  C   UNL     1       7.141  27.821  57.685  1.00  0.00     0.184 C 
BRANCH  21  22
HETATM   22  C   UNL     1       6.499  28.802  56.758  1.00  0.00     0.080 A 
HETATM   23  N   UNL     1       6.749  30.131  56.840  1.00  0.00    -0.177 NA
HETATM   24  N   UNL     1       6.039  30.681  55.824  1.00  0.00    -0.281 N 
HETATM   25  H   UNL     1       6.088  31.685  55.683  1.00  0.00     0.189 HD
HETATM   26  C   UNL     1       5.360  29.745  55.134  1.00  0.00     0.036 A 
HETATM   27  C   UNL     1       5.622  28.537  55.701  1.00  0.00    -0.006 A 
HETATM   28  C   UNL     1       4.469  29.718  53.970  1.00  0.00     0.059 C 
HETATM   29  C   UNL     1       4.931  27.445  54.997  1.00  0.00     0.043 C 
HETATM   30  C   UNL     1       3.945  28.241  54.065  1.00  0.00     0.011 C 
ENDBRANCH  21  22
ENDBRANCH  18  21
ENDBRANCH  16  17
ENDBRANCH   1  16
TORSDOF 7
ENDMDL
MODEL 3
REMARK VINA RESULT:      -9.5      3.368      5.839
REMARK  7 active torsions:
REMARK  status: ('A' for Active; 'I' for Inactive)
REMARK    1  A    between atoms: O_2  and  C_3 
REMARK    2  A    between atoms: C_6  and  C_7 
REMARK    3  A    between atoms: C_7  and  C_8 
REMARK    4  A    between atoms: C_7  and  C_14 
REMARK    5  A    between atoms: C_14  and  C_15 
REMARK       I    between atoms: C_15  and  N_16 
REMARK    6  A    between atoms: N_16  and  C_17 
REMARK    7  A    between atoms: C_17  and  C_18 
ROOT
HETATM    1  C   UNL     1       7.913  24.601  53.602  1.00  0.00     0.060 C 
ENDROOT
BRANCH   1   2
HETATM    2  C   UNL     1       7.181  25.449  54.647  1.00  0.00    -0.049 A 
HETATM    3  C   UNL     1       7.555  26.799  54.805  1.00  0.00     0.010 A 
HETATM    4  C   UNL     1       6.926  27.625  55.741  1.00  0.00     0.037 A 
HETATM    5  C   UNL     1       5.895  27.135  56.538  1.00  0.00     0.068 A 
HETATM    6  C   UNL     1       5.490  25.813  56.375  1.00  0.00     0.037 A 
HETATM    7  C   UNL     1       6.121  24.983  55.435  1.00  0.00     0.010 A 
BRANCH   5   8
HETATM    8  O   UNL     1       5.368  28.038  57.418  1.00  0.00    -0.356 OA
HETATM    9  C   UNL     1       5.958  29.332  57.437  1.00  0.00     0.210 C 
ENDBRANCH   5   8
ENDBRANCH   1   2
BRANCH   1  10
HETATM   10  C   UNL     1       8.050  23.112  53.944  1.00  0.00    -0.049 A 
HETATM   11  C   UNL     1       7.703  22.093  53.045  1.00  0.00     0.008 A 
HETATM   12  C   UNL     1       7.848  20.748  53.399  1.00  0.00     0.001 A 
HETATM   13  C   UNL     1       8.338  20.402  54.655  1.00  0.00     0.000 A 
HETATM   14  C   UNL     1       8.687  21.399  55.561  1.00  0.00     0.001 A 
HETATM   15  C   UNL     1       8.544  22.742  55.208  1.00  0.00     0.008 A 
ENDBRANCH   1  10
BRANCH   1  16
HETATM   16  C   UNL     1       7.591  24.816  52.107  1.00  0.00     0.116 C 
BRANCH  16  17
HETATM   17  C   UNL     1       6.200  25.248  51.685  1.00  0.00     0.218 C 
HETATM   18  N   UNL     1       6.088  26.284  50.807  1.00  0.00    -0.355 N 
HETATM   19  H   UNL     1       6.887  26.674  50.322  1.00  0.00     0.162 HD
HETATM   20  O   UNL     1       5.206  24.710  52.178  1.00  0.00    -0.274 OA
BRANCH  18  21
HETATM   21  C   UNL     1       4.791  26.684  50.307  1.00  0.00     0.184 C 
BRANCH  21  22
HETATM   22  C   UNL     1       4.441  28.055  50.787  1.00  0.00     0.080 A 
HETATM   23  N   UNL     1       4.331  29.104  49.935  1.00  0.00    -0.177 NA
HETATM   24  N   UNL     1       3.960  30.149  50.716  1.00  0.00    -0.281 N 
HETATM   25  H   UNL     1       3.803  31.051  50.281  1.00  0.00     0.189 HD
HETATM   26  C   UNL     1       3.851  29.783  52.008  1.00  0.00     0.036 A 
HETATM   27  C   UNL     1       4.155  28.460  52.094  1.00  0.00    -0.006 A 
HETATM   28  C   UNL     1       3.485  30.432  53.271  1.00  0.00     0.059 C 
HETATM   29  C   UNL     1       4.045  27.967  53.476  1.00  0.00     0.043 C 
HETATM   30  C   UNL     1       3.907  29.310  54.285  1.00  0.00     0.011 C 
ENDBRANCH  21  22
ENDBRANCH  18  21
ENDBRANCH  16  17
ENDBRANCH   1  16
TORSDOF 7
ENDMDL
MODEL 4
REMARK VINA RESULT:      -9.5      2.245      3.217
REMARK  7 active torsions:
REMARK  status: ('A' for Active; 'I' for Inactive)
REMARK    1  A    between atoms: O_2  and  C_3 
REMARK    2  A    between atoms: C_6  and  C_7 
REMARK    3  A    between atoms: C_7  and  C_8 
REMARK    4  A    between atoms: C_7  and  C_14 
REMARK    5  A    between atoms: C_14  and  C_15 
REMARK       I    between atoms: C_15  and  N_16 
REMARK    6  A    between atoms: N_16  and  C_17 
REMARK    7  A    between atoms: C_17  and  C_18 
ROOT
HETATM    1  C   UNL     1       7.465  23.951  55.454  1.00  0.00     0.060 C 
ENDROOT
BRANCH   1   2
HETATM    2  C   UNL     1       6.849  24.554  54.187  1.00  0.00    -0.049 A 
HETATM    3  C   UNL     1       7.696  24.856  53.102  1.00  0.00     0.010 A 
HETATM    4  C   UNL     1       7.196  25.407  51.918  1.00  0.00     0.037 A 
HETATM    5  C   UNL     1       5.835  25.661  51.776  1.00  0.00     0.068 A 
HETATM    6  C   UNL     1       4.977  25.340  52.825  1.00  0.00     0.037 A 
HETATM    7  C   UNL     1       5.479  24.785  54.013  1.00  0.00     0.010 A 
BRANCH   5   8
HETATM    8  O   UNL     1       5.473  26.207  50.576  1.00  0.00    -0.356 OA
HETATM    9  C   UNL     1       4.962  27.534  50.605  1.00  0.00     0.210 C 
ENDBRANCH   5   8
ENDBRANCH   1   2
BRANCH   1  10
HETATM   10  C   UNL     1       7.895  22.483  55.340  1.00  0.00    -0.049 A 
HETATM   11  C   UNL     1       8.387  21.750  56.430  1.00  0.00     0.008 A 
HETATM   12  C   UNL     1       8.764  20.413  56.281  1.00  0.00     0.001 A 
HETATM   13  C   UNL     1       8.658  19.788  55.041  1.00  0.00     0.000 A 
HETATM   14  C   UNL     1       8.174  20.498  53.948  1.00  0.00     0.001 A 
HETATM   15  C   UNL     1       7.795  21.834  54.096  1.00  0.00     0.008 A 
ENDBRANCH   1  10
BRANCH   1  16
HETATM   16  C   UNL     1       8.488  24.784  56.257  1.00  0.00     0.116 C 
BRANCH  16  17
HETATM   17  C   UNL     1       8.010  25.896  57.172  1.00  0.00     0.218 C 
HETATM   18  N   UNL     1       7.758  27.116  56.623  1.00  0.00    -0.355 N 
HETATM   19  H   UNL     1       7.738  27.268  55.622  1.00  0.00     0.162 HD
HETATM   20  O   UNL     1       7.917  25.702  58.386  1.00  0.00    -0.274 OA
BRANCH  18  21
HETATM   21  C   UNL     1       7.222  28.188  57.433  1.00  0.00     0.184 C 
BRANCH  21  22
HETATM   22  C   UNL     1       5.829  28.525  57.006  1.00  0.00     0.080 A 
HETATM   23  N   UNL     1       4.985  27.584  56.518  1.00  0.00    -0.177 NA
HETATM   24  N   UNL     1       3.822  28.245  56.291  1.00  0.00    -0.281 N 
HETATM   25  H   UNL     1       3.028  27.726  55.930  1.00  0.00     0.189 HD
HETATM   26  C   UNL     1       3.927  29.549  56.610  1.00  0.00     0.036 A 
HETATM   27  C   UNL     1       5.190  29.768  57.064  1.00  0.00    -0.006 A 
HETATM   28  C   UNL     1       3.046  30.721  56.603  1.00  0.00     0.059 C 
HETATM   29  C   UNL     1       5.392  31.172  57.455  1.00  0.00     0.043 C 
HETATM   30  C   UNL     1       4.099  31.854  56.873  1.00  0.00     0.011 C 
ENDBRANCH  21  22
ENDBRANCH  18  21
ENDBRANCH  16  17
ENDBRANCH   1  16
TORSDOF 7
ENDMDL
MODEL 5
REMARK VINA RESULT:      -9.4      3.039      5.074
REMARK  7 active torsions:
REMARK  status: ('A' for Active; 'I' for Inactive)
REMARK    1  A    between atoms: O_2  and  C_3 
REMARK    2  A    between atoms: C_6  and  C_7 
REMARK    3  A    between atoms: C_7  and  C_8 
REMARK    4  A    between atoms: C_7  and  C_14 
REMARK    5  A    between atoms: C_14  and  C_15 
REMARK       I    between atoms: C_15  and  N_16 
REMARK    6  A    between atoms: N_16  and  C_17 
REMARK    7  A    between atoms: C_17  and  C_18 
ROOT
HETATM    1  C   UNL     1       6.746  24.778  54.024  1.00  0.00     0.060 C 
ENDROOT
BRANCH   1   2
HETATM    2  C   UNL     1       7.084  25.656  55.234  1.00  0.00    -0.049 A 
HETATM    3  C   UNL     1       7.582  26.955  55.008  1.00  0.00     0.010 A 
HETATM    4  C   UNL     1       7.909  27.805  56.069  1.00  0.00     0.037 A 
HETATM    5  C   UNL     1       7.736  27.391  57.387  1.00  0.00     0.068 A 
HETATM    6  C   UNL     1       7.215  26.123  57.630  1.00  0.00     0.037 A 
HETATM    7  C   UNL     1       6.886  25.269  56.565  1.00  0.00     0.010 A 
BRANCH   5   8
HETATM    8  O   UNL     1       8.099  28.310  58.332  1.00  0.00    -0.356 OA
HETATM    9  C   UNL     1       8.609  29.549  57.856  1.00  0.00     0.210 C 
ENDBRANCH   5   8
ENDBRANCH   1   2
BRANCH   1  10
HETATM   10  C   UNL     1       7.275  23.340  54.090  1.00  0.00    -0.049 A 
HETATM   11  C   UNL     1       7.679  22.628  52.951  1.00  0.00     0.008 A 
HETATM   12  C   UNL     1       8.159  21.319  53.058  1.00  0.00     0.001 A 
HETATM   13  C   UNL     1       8.239  20.702  54.303  1.00  0.00     0.000 A 
HETATM   14  C   UNL     1       7.842  21.391  55.445  1.00  0.00     0.001 A 
HETATM   15  C   UNL     1       7.364  22.698  55.339  1.00  0.00     0.008 A 
ENDBRANCH   1  10
BRANCH   1  16
HETATM   16  C   UNL     1       5.320  24.835  53.435  1.00  0.00     0.116 C 
BRANCH  16  17
HETATM   17  C   UNL     1       4.842  26.086  52.722  1.00  0.00     0.218 C 
HETATM   18  N   UNL     1       3.939  26.883  53.358  1.00  0.00    -0.355 N 
HETATM   19  H   UNL     1       3.689  26.751  54.331  1.00  0.00     0.162 HD
HETATM   20  O   UNL     1       5.222  26.329  51.574  1.00  0.00    -0.274 OA
BRANCH  18  21
HETATM   21  C   UNL     1       3.513  28.129  52.761  1.00  0.00     0.184 C 
BRANCH  21  22
HETATM   22  C   UNL     1       3.994  29.292  53.569  1.00  0.00     0.080 A 
HETATM   23  N   UNL     1       4.240  30.499  53.006  1.00  0.00    -0.177 NA
HETATM   24  N   UNL     1       4.605  31.297  54.040  1.00  0.00    -0.281 N 
HETATM   25  H   UNL     1       4.827  32.269  53.852  1.00  0.00     0.189 HD
HETATM   26  C   UNL     1       4.602  30.624  55.206  1.00  0.00     0.036 A 
HETATM   27  C   UNL     1       4.224  29.343  54.948  1.00  0.00    -0.006 A 
HETATM   28  C   UNL     1       4.876  30.930  56.614  1.00  0.00     0.059 C 
HETATM   29  C   UNL     1       4.175  28.532  56.174  1.00  0.00     0.043 C 
HETATM   30  C   UNL     1       4.889  29.478  57.210  1.00  0.00     0.011 C 
ENDBRANCH  21  22
ENDBRANCH  18  21
ENDBRANCH  16  17
ENDBRANCH   1  16
TORSDOF 7
ENDMDL
MODEL 6
REMARK VINA RESULT:      -9.2      3.796      8.178
REMARK  7 active torsions:
REMARK  status: ('A' for Active; 'I' for Inactive)
REMARK    1  A    between atoms: O_2  and  C_3 
REMARK    2  A    between atoms: C_6  and  C_7 
REMARK    3  A    between atoms: C_7  and  C_8 
REMARK    4  A    between atoms: C_7  and  C_14 
REMARK    5  A    between atoms: C_14  and  C_15 
REMARK       I    between atoms: C_15  and  N_16 
REMARK    6  A    between atoms: N_16  and  C_17 
REMARK    7  A    between atoms: C_17  and  C_18 
ROOT
HETATM    1  C   UNL     1       7.000  25.115  53.467  1.00  0.00     0.060 C 
ENDROOT
BRANCH   1   2
HETATM    2  C   UNL     1       6.822  26.062  54.659  1.00  0.00    -0.049 A 
HETATM    3  C   UNL     1       7.611  27.228  54.719  1.00  0.00     0.010 A 
HETATM    4  C   UNL     1       7.496  28.131  55.779  1.00  0.00     0.037 A 
HETATM    5  C   UNL     1       6.582  27.907  56.804  1.00  0.00     0.068 A 
HETATM    6  C   UNL     1       5.770  26.777  56.747  1.00  0.00     0.037 A 
HETATM    7  C   UNL     1       5.885  25.870  55.681  1.00  0.00     0.010 A 
BRANCH   5   8
HETATM    8  O   UNL     1       6.571  28.859  57.786  1.00  0.00    -0.356 OA
HETATM    9  C   UNL     1       7.835  29.340  58.225  1.00  0.00     0.210 C 
ENDBRANCH   5   8
ENDBRANCH   1   2
BRANCH   1  10
HETATM   10  C   UNL     1       7.693  23.784  53.784  1.00  0.00    -0.049 A 
HETATM   11  C   UNL     1       8.429  23.573  54.959  1.00  0.00     0.008 A 
HETATM   12  C   UNL     1       9.041  22.341  55.209  1.00  0.00     0.001 A 
HETATM   13  C   UNL     1       8.928  21.303  54.288  1.00  0.00     0.000 A 
HETATM   14  C   UNL     1       8.203  21.493  53.116  1.00  0.00     0.001 A 
HETATM   15  C   UNL     1       7.590  22.722  52.866  1.00  0.00     0.008 A 
ENDBRANCH   1  10
BRANCH   1  16
HETATM   16  C   UNL     1       5.826  24.926  52.481  1.00  0.00     0.116 C 
BRANCH  16  17
HETATM   17  C   UNL     1       5.236  26.125  51.765  1.00  0.00     0.218 C 
HETATM   18  N   UNL     1       5.495  26.272  50.436  1.00  0.00    -0.355 N 
HETATM   19  H   UNL     1       5.938  25.546  49.886  1.00  0.00     0.162 HD
HETATM   20  O   UNL     1       4.593  26.969  52.394  1.00  0.00    -0.274 OA
BRANCH  18  21
HETATM   21  C   UNL     1       4.890  27.350  49.685  1.00  0.00     0.184 C 
BRANCH  21  22
HETATM   22  C   UNL     1       3.755  26.843  48.856  1.00  0.00     0.080 A 
HETATM   23  N   UNL     1       3.557  25.518  48.649  1.00  0.00    -0.177 NA
HETATM   24  N   UNL     1       2.425  25.448  47.906  1.00  0.00    -0.281 N 
HETATM   25  H   UNL     1       2.073  24.534  47.639  1.00  0.00     0.189 HD
HETATM   26  C   UNL     1       1.932  26.673  47.643  1.00  0.00     0.036 A 
HETATM   27  C   UNL     1       2.752  27.587  48.225  1.00  0.00    -0.006 A 
HETATM   28  C   UNL     1       0.774  27.224  46.932  1.00  0.00     0.059 C 
HETATM   29  C   UNL     1       2.279  28.963  48.003  1.00  0.00     0.043 C 
HETATM   30  C   UNL     1       1.167  28.744  46.911  1.00  0.00     0.011 C 
ENDBRANCH  21  22
ENDBRANCH  18  21
ENDBRANCH  16  17
ENDBRANCH   1  16
TORSDOF 7
ENDMDL
MODEL 7
REMARK VINA RESULT:      -9.1      3.317      7.158
REMARK  7 active torsions:
REMARK  status: ('A' for Active; 'I' for Inactive)
REMARK    1  A    between atoms: O_2  and  C_3 
REMARK    2  A    between atoms: C_6  and  C_7 
REMARK    3  A    between atoms: C_7  and  C_8 
REMARK    4  A    between atoms: C_7  and  C_14 
REMARK    5  A    between atoms: C_14  and  C_15 
REMARK       I    between atoms: C_15  and  N_16 
REMARK    6  A    between atoms: N_16  and  C_17 
REMARK    7  A    between atoms: C_17  and  C_18 
ROOT
HETATM    1  C   UNL     1       7.925  24.632  53.598  1.00  0.00     0.060 C 
ENDROOT
BRANCH   1   2
HETATM    2  C   UNL     1       7.179  25.472  54.640  1.00  0.00    -0.049 A 
HETATM    3  C   UNL     1       7.480  26.845  54.742  1.00  0.00     0.010 A 
HETATM    4  C   UNL     1       6.834  27.665  55.672  1.00  0.00     0.037 A 
HETATM    5  C   UNL     1       5.859  27.145  56.518  1.00  0.00     0.068 A 
HETATM    6  C   UNL     1       5.525  25.798  56.411  1.00  0.00     0.037 A 
HETATM    7  C   UNL     1       6.172  24.974  55.476  1.00  0.00     0.010 A 
BRANCH   5   8
HETATM    8  O   UNL     1       5.309  28.046  57.386  1.00  0.00    -0.356 OA
HETATM    9  C   UNL     1       5.832  29.368  57.354  1.00  0.00     0.210 C 
ENDBRANCH   5   8
ENDBRANCH   1   2
BRANCH   1  10
HETATM   10  C   UNL     1       8.095  23.149  53.950  1.00  0.00    -0.049 A 
HETATM   11  C   UNL     1       8.604  22.716  55.184  1.00  0.00     0.008 A 
HETATM   12  C   UNL     1       8.738  21.353  55.463  1.00  0.00     0.001 A 
HETATM   13  C   UNL     1       8.369  20.403  54.515  1.00  0.00     0.000 A 
HETATM   14  C   UNL     1       7.863  20.813  53.285  1.00  0.00     0.001 A 
HETATM   15  C   UNL     1       7.727  22.174  53.005  1.00  0.00     0.008 A 
ENDBRANCH   1  10
BRANCH   1  16
HETATM   16  C   UNL     1       7.592  24.828  52.102  1.00  0.00     0.116 C 
BRANCH  16  17
HETATM   17  C   UNL     1       6.203  25.275  51.686  1.00  0.00     0.218 C 
HETATM   18  N   UNL     1       6.095  26.356  50.865  1.00  0.00    -0.355 N 
HETATM   19  H   UNL     1       6.898  26.777  50.413  1.00  0.00     0.162 HD
HETATM   20  O   UNL     1       5.207  24.703  52.136  1.00  0.00    -0.274 OA
BRANCH  18  21
HETATM   21  C   UNL     1       4.802  26.774  50.370  1.00  0.00     0.184 C 
BRANCH  21  22
HETATM   22  C   UNL     1       4.897  28.116  49.718  1.00  0.00     0.080 A 
HETATM   23  N   UNL     1       5.741  29.073  50.172  1.00  0.00    -0.177 NA
HETATM   24  N   UNL     1       5.584  30.111  49.314  1.00  0.00    -0.281 N 
HETATM   25  H   UNL     1       6.139  30.949  49.455  1.00  0.00     0.189 HD
HETATM   26  C   UNL     1       4.672  29.830  48.363  1.00  0.00     0.036 A 
HETATM   27  C   UNL     1       4.208  28.572  48.589  1.00  0.00    -0.006 A 
HETATM   28  C   UNL     1       4.106  30.514  47.196  1.00  0.00     0.059 C 
HETATM   29  C   UNL     1       3.212  28.172  47.583  1.00  0.00     0.043 C 
HETATM   30  C   UNL     1       2.922  29.538  46.859  1.00  0.00     0.011 C 
ENDBRANCH  21  22
ENDBRANCH  18  21
ENDBRANCH  16  17
ENDBRANCH   1  16
TORSDOF 7
ENDMDL
MODEL 8
REMARK VINA RESULT:      -8.9      2.879      6.089
REMARK  7 active torsions:
REMARK  status: ('A' for Active; 'I' for Inactive)
REMARK    1  A    between atoms: O_2  and  C_3 
REMARK    2  A    between atoms: C_6  and  C_7 
REMARK    3  A    between atoms: C_7  and  C_8 
REMARK    4  A    between atoms: C_7  and  C_14 
REMARK    5  A    between atoms: C_14  and  C_15 
REMARK       I    between atoms: C_15  and  N_16 
REMARK    6  A    between atoms: N_16  and  C_17 
REMARK    7  A    between atoms: C_17  and  C_18 
ROOT
HETATM    1  C   UNL     1       5.374  27.225  51.779  1.00  0.00     0.060 C 
ENDROOT
BRANCH   1   2
HETATM    2  C   UNL     1       6.091  25.952  52.241  1.00  0.00    -0.049 A 
HETATM    3  C   UNL     1       7.497  25.902  52.162  1.00  0.00     0.010 A 
HETATM    4  C   UNL     1       8.210  24.770  52.567  1.00  0.00     0.037 A 
HETATM    5  C   UNL     1       7.544  23.659  53.076  1.00  0.00     0.068 A 
HETATM    6  C   UNL     1       6.157  23.700  53.191  1.00  0.00     0.037 A 
HETATM    7  C   UNL     1       5.441  24.837  52.785  1.00  0.00     0.010 A 
BRANCH   5   8
HETATM    8  O   UNL     1       8.353  22.614  53.429  1.00  0.00    -0.356 OA
HETATM    9  C   UNL     1       7.873  21.307  53.138  1.00  0.00     0.210 C 
ENDBRANCH   5   8
ENDBRANCH   1   2
BRANCH   1  10
HETATM   10  C   UNL     1       5.123  27.326  50.270  1.00  0.00    -0.049 A 
HETATM   11  C   UNL     1       4.573  26.277  49.520  1.00  0.00     0.008 A 
HETATM   12  C   UNL     1       4.359  26.415  48.146  1.00  0.00     0.001 A 
HETATM   13  C   UNL     1       4.692  27.603  47.500  1.00  0.00     0.000 A 
HETATM   14  C   UNL     1       5.240  28.655  48.226  1.00  0.00     0.001 A 
HETATM   15  C   UNL     1       5.453  28.519  49.599  1.00  0.00     0.008 A 
ENDBRANCH   1  10
BRANCH   1  16
HETATM   16  C   UNL     1       4.166  27.739  52.594  1.00  0.00     0.116 C 
BRANCH  16  17
HETATM   17  C   UNL     1       4.386  28.415  53.934  1.00  0.00     0.218 C 
HETATM   18  N   UNL     1       4.191  27.680  55.064  1.00  0.00    -0.355 N 
HETATM   19  H   UNL     1       4.049  26.678  55.042  1.00  0.00     0.162 HD
HETATM   20  O   UNL     1       4.673  29.613  53.984  1.00  0.00    -0.274 OA
BRANCH  18  21
HETATM   21  C   UNL     1       4.467  28.249  56.365  1.00  0.00     0.184 C 
BRANCH  21  22
HETATM   22  C   UNL     1       5.805  27.806  56.861  1.00  0.00     0.080 A 
HETATM   23  N   UNL     1       6.685  28.674  57.417  1.00  0.00    -0.177 NA
HETATM   24  N   UNL     1       7.744  27.910  57.782  1.00  0.00    -0.281 N 
HETATM   25  H   UNL     1       8.532  28.355  58.240  1.00  0.00     0.189 HD
HETATM   26  C   UNL     1       7.551  26.616  57.462  1.00  0.00     0.036 A 
HETATM   27  C   UNL     1       6.332  26.510  56.870  1.00  0.00    -0.006 A 
HETATM   28  C   UNL     1       8.294  25.360  57.610  1.00  0.00     0.059 C 
HETATM   29  C   UNL     1       6.027  25.119  56.498  1.00  0.00     0.043 C 
HETATM   30  C   UNL     1       7.423  24.421  56.702  1.00  0.00     0.011 C 
ENDBRANCH  21  22
ENDBRANCH  18  21
ENDBRANCH  16  17
ENDBRANCH   1  16
TORSDOF 7
ENDMDL
MODEL 9
REMARK VINA RESULT:      -8.9      3.788      8.571
REMARK  7 active torsions:
REMARK  status: ('A' for Active; 'I' for Inactive)
REMARK    1  A    between atoms: O_2  and  C_3 
REMARK    2  A    between atoms: C_6  and  C_7 
REMARK    3  A    between atoms: C_7  and  C_8 
REMARK    4  A    between atoms: C_7  and  C_14 
REMARK    5  A    between atoms: C_14  and  C_15 
REMARK       I    between atoms: C_15  and  N_16 
REMARK    6  A    between atoms: N_16  and  C_17 
REMARK    7  A    between atoms: C_17  and  C_18 
ROOT
HETATM    1  C   UNL     1       5.628  25.177  54.370  1.00  0.00     0.060 C 
ENDROOT
BRANCH   1   2
HETATM    2  C   UNL     1       6.691  24.075  54.437  1.00  0.00    -0.049 A 
HETATM    3  C   UNL     1       7.082  23.590  55.701  1.00  0.00     0.010 A 
HETATM    4  C   UNL     1       8.046  22.586  55.829  1.00  0.00     0.037 A 
HETATM    5  C   UNL     1       8.639  22.026  54.702  1.00  0.00     0.068 A 
HETATM    6  C   UNL     1       8.243  22.469  53.443  1.00  0.00     0.037 A 
HETATM    7  C   UNL     1       7.275  23.477  53.314  1.00  0.00     0.010 A 
BRANCH   5   8
HETATM    8  O   UNL     1       9.572  21.060  54.961  1.00  0.00    -0.356 OA
HETATM    9  C   UNL     1       9.383  20.288  56.140  1.00  0.00     0.210 C 
ENDBRANCH   5   8
ENDBRANCH   1   2
BRANCH   1  10
HETATM   10  C   UNL     1       6.091  26.565  54.829  1.00  0.00    -0.049 A 
HETATM   11  C   UNL     1       5.295  27.408  55.618  1.00  0.00     0.008 A 
HETATM   12  C   UNL     1       5.760  28.664  56.017  1.00  0.00     0.001 A 
HETATM   13  C   UNL     1       7.026  29.098  55.632  1.00  0.00     0.000 A 
HETATM   14  C   UNL     1       7.831  28.277  54.849  1.00  0.00     0.001 A 
HETATM   15  C   UNL     1       7.368  27.021  54.451  1.00  0.00     0.008 A 
ENDBRANCH   1  10
BRANCH   1  16
HETATM   16  C   UNL     1       4.719  25.263  53.123  1.00  0.00     0.116 C 
BRANCH  16  17
HETATM   17  C   UNL     1       5.028  26.264  52.026  1.00  0.00     0.218 C 
HETATM   18  N   UNL     1       4.192  27.327  51.872  1.00  0.00    -0.355 N 
HETATM   19  H   UNL     1       3.467  27.550  52.544  1.00  0.00     0.162 HD
HETATM   20  O   UNL     1       5.978  26.073  51.262  1.00  0.00    -0.274 OA
BRANCH  18  21
HETATM   21  C   UNL     1       4.484  28.355  50.898  1.00  0.00     0.184 C 
BRANCH  21  22
HETATM   22  C   UNL     1       3.495  28.316  49.778  1.00  0.00     0.080 A 
HETATM   23  N   UNL     1       2.639  29.340  49.544  1.00  0.00    -0.177 NA
HETATM   24  N   UNL     1       1.946  28.969  48.439  1.00  0.00    -0.281 N 
HETATM   25  H   UNL     1       1.246  29.602  48.067  1.00  0.00     0.189 HD
HETATM   26  C   UNL     1       2.336  27.758  47.997  1.00  0.00     0.036 A 
HETATM   27  C   UNL     1       3.316  27.307  48.825  1.00  0.00    -0.006 A 
HETATM   28  C   UNL     1       1.988  26.867  46.886  1.00  0.00     0.059 C 
HETATM   29  C   UNL     1       3.818  25.989  48.407  1.00  0.00     0.043 C 
HETATM   30  C   UNL     1       2.750  25.568  47.330  1.00  0.00     0.011 C 
ENDBRANCH  21  22
ENDBRANCH  18  21
ENDBRANCH  16  17
ENDBRANCH   1  16
TORSDOF 7
ENDMDL
MODEL 10
REMARK VINA RESULT:      -8.9      2.158      4.910
REMARK  7 active torsions:
REMARK  status: ('A' for Active; 'I' for Inactive)
REMARK    1  A    between atoms: O_2  and  C_3 
REMARK    2  A    between atoms: C_6  and  C_7 
REMARK    3  A    between atoms: C_7  and  C_8 
REMARK    4  A    between atoms: C_7  and  C_14 
REMARK    5  A    between atoms: C_14  and  C_15 
REMARK       I    between atoms: C_15  and  N_16 
REMARK    6  A    between atoms: N_16  and  C_17 
REMARK    7  A    between atoms: C_17  and  C_18 
ROOT
HETATM    1  C   UNL     1       7.192  26.140  54.501  1.00  0.00     0.060 C 
ENDROOT
BRANCH   1   2
HETATM    2  C   UNL     1       7.504  24.643  54.416  1.00  0.00    -0.049 A 
HETATM    3  C   UNL     1       7.214  23.828  55.528  1.00  0.00     0.010 A 
HETATM    4  C   UNL     1       7.476  22.454  55.513  1.00  0.00     0.037 A 
HETATM    5  C   UNL     1       8.020  21.850  54.384  1.00  0.00     0.068 A 
HETATM    6  C   UNL     1       8.284  22.632  53.263  1.00  0.00     0.037 A 
HETATM    7  C   UNL     1       8.021  24.011  53.278  1.00  0.00     0.010 A 
BRANCH   5   8
HETATM    8  O   UNL     1       8.236  20.504  54.498  1.00  0.00    -0.356 OA
HETATM    9  C   UNL     1       8.466  20.002  55.808  1.00  0.00     0.210 C 
ENDBRANCH   5   8
ENDBRANCH   1   2
BRANCH   1  10
HETATM   10  C   UNL     1       6.424  26.720  53.306  1.00  0.00    -0.049 A 
HETATM   11  C   UNL     1       5.740  25.916  52.382  1.00  0.00     0.008 A 
HETATM   12  C   UNL     1       5.050  26.488  51.309  1.00  0.00     0.001 A 
HETATM   13  C   UNL     1       5.036  27.870  51.141  1.00  0.00     0.000 A 
HETATM   14  C   UNL     1       5.710  28.684  52.046  1.00  0.00     0.001 A 
HETATM   15  C   UNL     1       6.398  28.114  53.119  1.00  0.00     0.008 A 
ENDBRANCH   1  10
BRANCH   1  16
HETATM   16  C   UNL     1       6.687  26.724  55.839  1.00  0.00     0.116 C 
BRANCH  16  17
HETATM   17  C   UNL     1       7.674  27.306  56.833  1.00  0.00     0.218 C 
HETATM   18  N   UNL     1       7.853  28.656  56.846  1.00  0.00    -0.355 N 
HETATM   19  H   UNL     1       7.256  29.287  56.325  1.00  0.00     0.162 HD
HETATM   20  O   UNL     1       8.333  26.560  57.561  1.00  0.00    -0.274 OA
BRANCH  18  21
HETATM   21  C   UNL     1       8.718  29.272  57.828  1.00  0.00     0.184 C 
BRANCH  21  22
HETATM   22  C   UNL     1       7.953  30.242  58.668  1.00  0.00     0.080 A 
HETATM   23  N   UNL     1       6.749  30.730  58.281  1.00  0.00    -0.177 NA
HETATM   24  N   UNL     1       6.351  31.526  59.304  1.00  0.00    -0.281 N 
HETATM   25  H   UNL     1       5.453  31.994  59.237  1.00  0.00     0.189 HD
HETATM   26  C   UNL     1       7.265  31.552  60.292  1.00  0.00     0.036 A 
HETATM   27  C   UNL     1       8.302  30.752  59.923  1.00  0.00    -0.006 A 
HETATM   28  C   UNL     1       7.394  32.188  61.607  1.00  0.00     0.059 C 
HETATM   29  C   UNL     1       9.348  30.707  60.957  1.00  0.00     0.043 C 
HETATM   30  C   UNL     1       8.901  31.873  61.914  1.00  0.00     0.011 C 
ENDBRANCH  21  22
ENDBRANCH  18  21
ENDBRANCH  16  17
ENDBRANCH   1  16
TORSDOF 7
ENDMDL
