MODEL 1
REMARK VINA RESULT:      -9.8      0.000      0.000
REMARK  6 active torsions:
REMARK  status: ('A' for Active; 'I' for Inactive)
REMARK    1  A    between atoms: C_3  and  C_4 
REMARK       I    between atoms: C_4  and  N_5 
REMARK    2  A    between atoms: N_5  and  C_6 
REMARK    3  A    between atoms: C_6  and  C_7 
REMARK    4  A    between atoms: C_6  and  C_22 
REMARK       I    between atoms: C_7  and  N_8 
REMARK    5  A    between atoms: N_8  and  C_9 
REMARK    6  A    between atoms: C_11  and  C_12 
ROOT
HETATM    1  C   UNL     1       5.734  27.353  55.120  1.00  0.00     0.245 C 
HETATM    2  N   UNL     1       6.955  26.710  55.053  1.00  0.00    -0.325 N 
HETATM    3  O   UNL     1       4.762  27.061  54.424  1.00  0.00    -0.271 OA
HETATM    4  H   UNL     1       7.686  27.079  55.660  1.00  0.00     0.169 HD
ENDROOT
BRANCH   1   5
HETATM    5  C   UNL     1       5.622  28.371  56.306  1.00  0.00     0.180 C 
BRANCH   5   6
HETATM    6  N   UNL     1       6.841  29.144  56.628  1.00  0.00    -0.343 N 
HETATM    7  C   UNL     1       7.680  28.803  57.662  1.00  0.00     0.252 C 
HETATM    8  O   UNL     1       7.803  27.664  58.092  1.00  0.00    -0.268 OA
HETATM    9  H   UNL     1       6.851  30.118  56.348  1.00  0.00     0.163 HD
BRANCH   7  10
HETATM   10  C   UNL     1       8.476  29.908  58.232  1.00  0.00     0.037 A 
HETATM   11  C   UNL     1       9.736  30.247  57.705  1.00  0.00    -0.046 A 
HETATM   12  C   UNL     1      10.358  29.509  56.554  1.00  0.00     0.049 C 
HETATM   13  C   UNL     1      10.435  31.312  58.292  1.00  0.00     0.007 A 
HETATM   14  C   UNL     1       9.878  32.037  59.348  1.00  0.00     0.001 A 
HETATM   15  C   UNL     1       8.615  31.707  59.838  1.00  0.00     0.001 A 
HETATM   16  C   UNL     1       7.910  30.642  59.280  1.00  0.00     0.017 A 
ENDBRANCH   7  10
ENDBRANCH   5   6
BRANCH   5  17
HETATM   17  C   UNL     1       4.424  29.356  56.185  1.00  0.00     0.009 C 
HETATM   18  C   UNL     1       4.123  30.112  57.483  1.00  0.00     0.012 C 
HETATM   19  C   UNL     1       4.563  30.328  55.010  1.00  0.00     0.012 C 
ENDBRANCH   5  17
ENDBRANCH   1   5
BRANCH   2  20
HETATM   20  C   UNL     1       7.293  25.545  54.338  1.00  0.00     0.035 A 
HETATM   21  C   UNL     1       7.517  24.302  54.936  1.00  0.00     0.042 A 
HETATM   22  C   UNL     1       7.952  23.200  54.179  1.00  0.00    -0.021 A 
HETATM   23  C   UNL     1       8.109  23.356  52.794  1.00  0.00     0.012 A 
HETATM   24  C   UNL     1       7.871  24.589  52.187  1.00  0.00     0.003 A 
HETATM   25  C   UNL     1       7.483  25.682  52.959  1.00  0.00     0.029 A 
BRANCH  22  26
HETATM   26  C   UNL     1       8.295  21.933  54.812  1.00  0.00     0.010 A 
HETATM   27  C   UNL     1       8.374  21.576  56.181  1.00  0.00     0.152 A 
HETATM   28  N   UNL     1       8.694  20.292  56.370  1.00  0.00    -0.187 NA
HETATM   29  N   UNL     1       8.813  19.817  55.121  1.00  0.00    -0.289 N 
HETATM   30  H   UNL     1       9.045  18.836  55.000  1.00  0.00     0.188 HD
HETATM   31  C   UNL     1       8.590  20.755  54.157  1.00  0.00     0.123 A 
ENDBRANCH  22  26
ENDBRANCH   2  20
TORSDOF 6
ENDMDL
MODEL 2
REMARK VINA RESULT:      -9.5      2.213      8.613
REMARK  6 active torsions:
REMARK  status: ('A' for Active; 'I' for Inactive)
REMARK    1  A    between atoms: C_3  and  C_4 
REMARK       I    between atoms: C_4  and  N_5 
REMARK    2  A    between atoms: N_5  and  C_6 
REMARK    3  A    between atoms: C_6  and  C_7 
REMARK    4  A    between atoms: C_6  and  C_22 
REMARK       I    between atoms: C_7  and  N_8 
REMARK    5  A    between atoms: N_8  and  C_9 
REMARK    6  A    between atoms: C_11  and  C_12 
ROOT
HETATM    1  C   UNL     1       7.789  26.700  57.121  1.00  0.00     0.245 C 
HETATM    2  N   UNL     1       8.338  27.851  56.590  1.00  0.00    -0.325 N 
HETATM    3  O   UNL     1       7.844  26.396  58.312  1.00  0.00    -0.271 OA
HETATM    4  H   UNL     1       8.252  27.961  55.580  1.00  0.00     0.169 HD
ENDROOT
BRANCH   1   5
HETATM    5  C   UNL     1       6.909  25.895  56.105  1.00  0.00     0.180 C 
BRANCH   5   6
HETATM    6  N   UNL     1       7.143  24.436  56.041  1.00  0.00    -0.343 N 
HETATM    7  C   UNL     1       8.393  23.897  55.844  1.00  0.00     0.252 C 
HETATM    8  O   UNL     1       9.434  24.456  56.161  1.00  0.00    -0.268 OA
HETATM    9  H   UNL     1       6.359  23.860  55.759  1.00  0.00     0.163 HD
BRANCH   7  10
HETATM   10  C   UNL     1       8.422  22.551  55.237  1.00  0.00     0.037 A 
HETATM   11  C   UNL     1       8.269  22.373  53.850  1.00  0.00    -0.046 A 
HETATM   12  C   UNL     1       8.053  23.521  52.905  1.00  0.00     0.049 C 
HETATM   13  C   UNL     1       8.312  21.067  53.340  1.00  0.00     0.007 A 
HETATM   14  C   UNL     1       8.536  19.977  54.185  1.00  0.00     0.001 A 
HETATM   15  C   UNL     1       8.716  20.175  55.554  1.00  0.00     0.001 A 
HETATM   16  C   UNL     1       8.661  21.462  56.084  1.00  0.00     0.017 A 
ENDBRANCH   7  10
ENDBRANCH   5   6
BRANCH   5  17
HETATM   17  C   UNL     1       5.381  26.148  56.250  1.00  0.00     0.009 C 
HETATM   18  C   UNL     1       4.713  25.258  57.303  1.00  0.00     0.012 C 
HETATM   19  C   UNL     1       5.036  27.621  56.486  1.00  0.00     0.012 C 
ENDBRANCH   5  17
ENDBRANCH   1   5
BRANCH   2  20
HETATM   20  C   UNL     1       8.904  28.946  57.271  1.00  0.00     0.035 A 
HETATM   21  C   UNL     1       8.230  29.691  58.243  1.00  0.00     0.042 A 
HETATM   22  C   UNL     1       8.814  30.837  58.813  1.00  0.00    -0.021 A 
HETATM   23  C   UNL     1      10.113  31.192  58.426  1.00  0.00     0.012 A 
HETATM   24  C   UNL     1      10.799  30.444  57.468  1.00  0.00     0.003 A 
HETATM   25  C   UNL     1      10.188  29.338  56.881  1.00  0.00     0.029 A 
BRANCH  22  26
HETATM   26  C   UNL     1       8.075  31.681  59.743  1.00  0.00     0.010 A 
HETATM   27  C   UNL     1       6.723  32.107  59.730  1.00  0.00     0.152 A 
HETATM   28  N   UNL     1       6.402  32.859  60.787  1.00  0.00    -0.187 NA
HETATM   29  N   UNL     1       7.544  32.912  61.488  1.00  0.00    -0.289 N 
HETATM   30  H   UNL     1       7.549  33.429  62.361  1.00  0.00     0.188 HD
HETATM   31  C   UNL     1       8.572  32.230  60.907  1.00  0.00     0.123 A 
ENDBRANCH  22  26
ENDBRANCH   2  20
TORSDOF 6
ENDMDL
MODEL 3
REMARK VINA RESULT:      -9.5      5.309      8.400
REMARK  6 active torsions:
REMARK  status: ('A' for Active; 'I' for Inactive)
REMARK    1  A    between atoms: C_3  and  C_4 
REMARK       I    between atoms: C_4  and  N_5 
REMARK    2  A    between atoms: N_5  and  C_6 
REMARK    3  A    between atoms: C_6  and  C_7 
REMARK    4  A    between atoms: C_6  and  C_22 
REMARK       I    between atoms: C_7  and  N_8 
REMARK    5  A    between atoms: N_8  and  C_9 
REMARK    6  A    between atoms: C_11  and  C_12 
ROOT
HETATM    1  C   UNL     1       5.469  25.978  51.067  1.00  0.00     0.245 C 
HETATM    2  N   UNL     1       6.685  26.074  51.716  1.00  0.00    -0.325 N 
HETATM    3  O   UNL     1       4.620  25.124  51.315  1.00  0.00    -0.271 OA
HETATM    4  H   UNL     1       7.310  26.808  51.386  1.00  0.00     0.169 HD
ENDROOT
BRANCH   1   5
HETATM    5  C   UNL     1       5.171  27.181  50.109  1.00  0.00     0.180 C 
BRANCH   5   6
HETATM    6  N   UNL     1       3.914  27.109  49.331  1.00  0.00    -0.343 N 
HETATM    7  C   UNL     1       3.891  27.180  47.958  1.00  0.00     0.252 C 
HETATM    8  O   UNL     1       4.825  26.843  47.242  1.00  0.00    -0.268 OA
HETATM    9  H   UNL     1       3.066  27.393  49.807  1.00  0.00     0.163 HD
BRANCH   7  10
HETATM   10  C   UNL     1       2.632  27.670  47.363  1.00  0.00     0.037 A 
HETATM   11  C   UNL     1       2.455  29.030  47.048  1.00  0.00    -0.046 A 
HETATM   12  C   UNL     1       3.512  30.066  47.308  1.00  0.00     0.049 C 
HETATM   13  C   UNL     1       1.235  29.426  46.480  1.00  0.00     0.007 A 
HETATM   14  C   UNL     1       0.239  28.487  46.201  1.00  0.00     0.001 A 
HETATM   15  C   UNL     1       0.443  27.139  46.491  1.00  0.00     0.001 A 
HETATM   16  C   UNL     1       1.641  26.726  47.071  1.00  0.00     0.017 A 
ENDBRANCH   7  10
ENDBRANCH   5   6
BRANCH   5  17
HETATM   17  C   UNL     1       5.252  28.575  50.796  1.00  0.00     0.009 C 
HETATM   18  C   UNL     1       5.894  29.652  49.916  1.00  0.00     0.012 C 
HETATM   19  C   UNL     1       3.905  29.053  51.344  1.00  0.00     0.012 C 
ENDBRANCH   5  17
ENDBRANCH   1   5
BRANCH   2  20
HETATM   20  C   UNL     1       7.131  25.363  52.847  1.00  0.00     0.035 A 
HETATM   21  C   UNL     1       7.580  24.040  52.809  1.00  0.00     0.042 A 
HETATM   22  C   UNL     1       7.915  23.353  53.989  1.00  0.00    -0.021 A 
HETATM   23  C   UNL     1       7.841  24.038  55.210  1.00  0.00     0.012 A 
HETATM   24  C   UNL     1       7.410  25.364  55.255  1.00  0.00     0.003 A 
HETATM   25  C   UNL     1       7.039  26.016  54.080  1.00  0.00     0.029 A 
BRANCH  22  26
HETATM   26  C   UNL     1       8.276  21.941  53.967  1.00  0.00     0.010 A 
HETATM   27  C   UNL     1       8.206  20.985  52.924  1.00  0.00     0.152 A 
HETATM   28  N   UNL     1       8.664  19.783  53.283  1.00  0.00    -0.187 NA
HETATM   29  N   UNL     1       9.038  19.963  54.559  1.00  0.00    -0.289 N 
HETATM   30  H   UNL     1       9.439  19.176  55.058  1.00  0.00     0.188 HD
HETATM   31  C   UNL     1       8.823  21.230  55.015  1.00  0.00     0.123 A 
ENDBRANCH  22  26
ENDBRANCH   2  20
TORSDOF 6
ENDMDL
MODEL 4
REMARK VINA RESULT:      -9.3      2.148      8.282
REMARK  6 active torsions:
REMARK  status: ('A' for Active; 'I' for Inactive)
REMARK    1  A    between atoms: C_3  and  C_4 
REMARK       I    between atoms: C_4  and  N_5 
REMARK    2  A    between atoms: N_5  and  C_6 
REMARK    3  A    between atoms: C_6  and  C_7 
REMARK    4  A    between atoms: C_6  and  C_22 
REMARK       I    between atoms: C_7  and  N_8 
REMARK    5  A    between atoms: N_8  and  C_9 
REMARK    6  A    between atoms: C_11  and  C_12 
ROOT
HETATM    1  C   UNL     1       6.982  27.450  56.365  1.00  0.00     0.245 C 
HETATM    2  N   UNL     1       8.262  27.970  56.332  1.00  0.00    -0.325 N 
HETATM    3  O   UNL     1       6.161  27.693  57.248  1.00  0.00    -0.271 OA
HETATM    4  H   UNL     1       8.851  27.656  55.562  1.00  0.00     0.169 HD
ENDROOT
BRANCH   1   5
HETATM    5  C   UNL     1       6.588  26.668  55.066  1.00  0.00     0.180 C 
BRANCH   5   6
HETATM    6  N   UNL     1       6.611  25.191  55.152  1.00  0.00    -0.343 N 
HETATM    7  C   UNL     1       7.762  24.485  55.413  1.00  0.00     0.252 C 
HETATM    8  O   UNL     1       8.713  24.938  56.035  1.00  0.00    -0.268 OA
HETATM    9  H   UNL     1       5.885  24.693  54.650  1.00  0.00     0.163 HD
BRANCH   7  10
HETATM   10  C   UNL     1       7.787  23.095  54.914  1.00  0.00     0.037 A 
HETATM   11  C   UNL     1       7.887  22.815  53.540  1.00  0.00    -0.046 A 
HETATM   12  C   UNL     1       7.957  23.894  52.496  1.00  0.00     0.049 C 
HETATM   13  C   UNL     1       7.912  21.472  53.136  1.00  0.00     0.007 A 
HETATM   14  C   UNL     1       7.873  20.442  54.079  1.00  0.00     0.001 A 
HETATM   15  C   UNL     1       7.805  20.738  55.440  1.00  0.00     0.001 A 
HETATM   16  C   UNL     1       7.763  22.065  55.862  1.00  0.00     0.017 A 
ENDBRANCH   7  10
ENDBRANCH   5   6
BRANCH   5  17
HETATM   17  C   UNL     1       5.230  27.109  54.448  1.00  0.00     0.009 C 
HETATM   18  C   UNL     1       5.199  28.584  54.033  1.00  0.00     0.012 C 
HETATM   19  C   UNL     1       4.775  26.211  53.295  1.00  0.00     0.012 C 
ENDBRANCH   5  17
ENDBRANCH   1   5
BRANCH   2  20
HETATM   20  C   UNL     1       8.825  28.961  57.159  1.00  0.00     0.035 A 
HETATM   21  C   UNL     1       8.260  29.382  58.366  1.00  0.00     0.042 A 
HETATM   22  C   UNL     1       8.816  30.448  59.095  1.00  0.00    -0.021 A 
HETATM   23  C   UNL     1       9.986  31.052  58.615  1.00  0.00     0.012 A 
HETATM   24  C   UNL     1      10.566  30.627  57.419  1.00  0.00     0.003 A 
HETATM   25  C   UNL     1       9.977  29.598  56.687  1.00  0.00     0.029 A 
BRANCH  22  26
HETATM   26  C   UNL     1       8.168  30.965  60.294  1.00  0.00     0.010 A 
HETATM   27  C   UNL     1       8.479  30.780  61.664  1.00  0.00     0.152 A 
HETATM   28  N   UNL     1       7.662  31.451  62.482  1.00  0.00    -0.187 NA
HETATM   29  N   UNL     1       6.826  32.076  61.638  1.00  0.00    -0.289 N 
HETATM   30  H   UNL     1       6.104  32.671  62.030  1.00  0.00     0.188 HD
HETATM   31  C   UNL     1       7.083  31.815  60.324  1.00  0.00     0.123 A 
ENDBRANCH  22  26
ENDBRANCH   2  20
TORSDOF 6
ENDMDL
MODEL 5
REMARK VINA RESULT:      -9.3      3.827      7.093
REMARK  6 active torsions:
REMARK  status: ('A' for Active; 'I' for Inactive)
REMARK    1  A    between atoms: C_3  and  C_4 
REMARK       I    between atoms: C_4  and  N_5 
REMARK    2  A    between atoms: N_5  and  C_6 
REMARK    3  A    between atoms: C_6  and  C_7 
REMARK    4  A    between atoms: C_6  and  C_22 
REMARK       I    between atoms: C_7  and  N_8 
REMARK    5  A    between atoms: N_8  and  C_9 
REMARK    6  A    between atoms: C_11  and  C_12 
ROOT
HETATM    1  C   UNL     1       6.811  27.783  53.487  1.00  0.00     0.245 C 
HETATM    2  N   UNL     1       6.354  26.589  54.013  1.00  0.00    -0.325 N 
HETATM    3  O   UNL     1       7.963  28.195  53.612  1.00  0.00    -0.271 OA
HETATM    4  H   UNL     1       5.366  26.387  53.866  1.00  0.00     0.169 HD
ENDROOT
BRANCH   1   5
HETATM    5  C   UNL     1       5.781  28.488  52.540  1.00  0.00     0.180 C 
BRANCH   5   6
HETATM    6  N   UNL     1       5.267  27.685  51.409  1.00  0.00    -0.343 N 
HETATM    7  C   UNL     1       5.123  28.201  50.142  1.00  0.00     0.252 C 
HETATM    8  O   UNL     1       5.789  29.129  49.705  1.00  0.00    -0.268 OA
HETATM    9  H   UNL     1       4.673  26.898  51.641  1.00  0.00     0.163 HD
BRANCH   7  10
HETATM   10  C   UNL     1       4.110  27.542  49.294  1.00  0.00     0.037 A 
HETATM   11  C   UNL     1       2.815  28.076  49.155  1.00  0.00    -0.046 A 
HETATM   12  C   UNL     1       2.374  29.325  49.863  1.00  0.00     0.049 C 
HETATM   13  C   UNL     1       1.905  27.401  48.329  1.00  0.00     0.007 A 
HETATM   14  C   UNL     1       2.287  26.250  47.636  1.00  0.00     0.001 A 
HETATM   15  C   UNL     1       3.583  25.752  47.761  1.00  0.00     0.001 A 
HETATM   16  C   UNL     1       4.499  26.398  48.589  1.00  0.00     0.017 A 
ENDBRANCH   7  10
ENDBRANCH   5   6
BRANCH   5  17
HETATM   17  C   UNL     1       4.575  29.132  53.282  1.00  0.00     0.009 C 
HETATM   18  C   UNL     1       4.265  30.559  52.817  1.00  0.00     0.012 C 
HETATM   19  C   UNL     1       3.316  28.264  53.247  1.00  0.00     0.012 C 
ENDBRANCH   5  17
ENDBRANCH   1   5
BRANCH   2  20
HETATM   20  C   UNL     1       7.096  25.563  54.628  1.00  0.00     0.035 A 
HETATM   21  C   UNL     1       7.382  24.337  54.022  1.00  0.00     0.042 A 
HETATM   22  C   UNL     1       8.039  23.314  54.728  1.00  0.00    -0.021 A 
HETATM   23  C   UNL     1       8.453  23.564  56.043  1.00  0.00     0.012 A 
HETATM   24  C   UNL     1       8.186  24.791  56.651  1.00  0.00     0.003 A 
HETATM   25  C   UNL     1       7.495  25.778  55.951  1.00  0.00     0.029 A 
BRANCH  22  26
HETATM   26  C   UNL     1       8.241  21.996  54.139  1.00  0.00     0.010 A 
HETATM   27  C   UNL     1       8.815  20.819  54.681  1.00  0.00     0.152 A 
HETATM   28  N   UNL     1       8.794  19.787  53.833  1.00  0.00    -0.187 NA
HETATM   29  N   UNL     1       8.198  20.295  52.743  1.00  0.00    -0.289 N 
HETATM   30  H   UNL     1       8.054  19.684  51.946  1.00  0.00     0.188 HD
HETATM   31  C   UNL     1       7.854  21.608  52.873  1.00  0.00     0.123 A 
ENDBRANCH  22  26
ENDBRANCH   2  20
TORSDOF 6
ENDMDL
MODEL 6
REMARK VINA RESULT:      -9.1      2.296      8.319
REMARK  6 active torsions:
REMARK  status: ('A' for Active; 'I' for Inactive)
REMARK    1  A    between atoms: C_3  and  C_4 
REMARK       I    between atoms: C_4  and  N_5 
REMARK    2  A    between atoms: N_5  and  C_6 
REMARK    3  A    between atoms: C_6  and  C_7 
REMARK    4  A    between atoms: C_6  and  C_22 
REMARK       I    between atoms: C_7  and  N_8 
REMARK    5  A    between atoms: N_8  and  C_9 
REMARK    6  A    between atoms: C_11  and  C_12 
ROOT
HETATM    1  C   UNL     1       5.930  27.451  56.025  1.00  0.00     0.245 C 
HETATM    2  N   UNL     1       6.760  28.554  56.081  1.00  0.00    -0.325 N 
HETATM    3  O   UNL     1       5.025  27.228  56.827  1.00  0.00    -0.271 OA
HETATM    4  H   UNL     1       7.493  28.596  55.374  1.00  0.00     0.169 HD
ENDROOT
BRANCH   1   5
HETATM    5  C   UNL     1       6.108  26.595  54.725  1.00  0.00     0.180 C 
BRANCH   5   6
HETATM    6  N   UNL     1       6.256  25.135  54.912  1.00  0.00    -0.343 N 
HETATM    7  C   UNL     1       7.448  24.554  55.277  1.00  0.00     0.252 C 
HETATM    8  O   UNL     1       8.320  25.130  55.913  1.00  0.00    -0.268 OA
HETATM    9  H   UNL     1       5.606  24.542  54.409  1.00  0.00     0.163 HD
BRANCH   7  10
HETATM   10  C   UNL     1       7.623  23.144  54.875  1.00  0.00     0.037 A 
HETATM   11  C   UNL     1       7.879  22.793  53.537  1.00  0.00    -0.046 A 
HETATM   12  C   UNL     1       7.973  23.811  52.436  1.00  0.00     0.049 C 
HETATM   13  C   UNL     1       8.040  21.434  53.227  1.00  0.00     0.007 A 
HETATM   14  C   UNL     1       7.983  20.462  54.228  1.00  0.00     0.001 A 
HETATM   15  C   UNL     1       7.760  20.830  55.554  1.00  0.00     0.001 A 
HETATM   16  C   UNL     1       7.581  22.173  55.882  1.00  0.00     0.017 A 
ENDBRANCH   7  10
ENDBRANCH   5   6
BRANCH   5  17
HETATM   17  C   UNL     1       5.020  26.850  53.643  1.00  0.00     0.009 C 
HETATM   18  C   UNL     1       5.331  28.046  52.736  1.00  0.00     0.012 C 
HETATM   19  C   UNL     1       4.698  25.607  52.811  1.00  0.00     0.012 C 
ENDBRANCH   5  17
ENDBRANCH   1   5
BRANCH   2  20
HETATM   20  C   UNL     1       6.661  29.682  56.918  1.00  0.00     0.035 A 
HETATM   21  C   UNL     1       7.417  29.859  58.080  1.00  0.00     0.042 A 
HETATM   22  C   UNL     1       7.198  30.959  58.928  1.00  0.00    -0.021 A 
HETATM   23  C   UNL     1       6.237  31.911  58.559  1.00  0.00     0.012 A 
HETATM   24  C   UNL     1       5.489  31.750  57.392  1.00  0.00     0.003 A 
HETATM   25  C   UNL     1       5.689  30.631  56.587  1.00  0.00     0.029 A 
BRANCH  22  26
HETATM   26  C   UNL     1       7.904  31.090  60.196  1.00  0.00     0.010 A 
HETATM   27  C   UNL     1       7.469  31.592  61.448  1.00  0.00     0.152 A 
HETATM   28  N   UNL     1       8.408  31.519  62.396  1.00  0.00    -0.187 NA
HETATM   29  N   UNL     1       9.449  30.963  61.758  1.00  0.00    -0.289 N 
HETATM   30  H   UNL     1      10.299  30.791  62.285  1.00  0.00     0.188 HD
HETATM   31  C   UNL     1       9.201  30.693  60.444  1.00  0.00     0.123 A 
ENDBRANCH  22  26
ENDBRANCH   2  20
TORSDOF 6
ENDMDL
MODEL 7
REMARK VINA RESULT:      -8.9      4.088      7.262
REMARK  6 active torsions:
REMARK  status: ('A' for Active; 'I' for Inactive)
REMARK    1  A    between atoms: C_3  and  C_4 
REMARK       I    between atoms: C_4  and  N_5 
REMARK    2  A    between atoms: N_5  and  C_6 
REMARK    3  A    between atoms: C_6  and  C_7 
REMARK    4  A    between atoms: C_6  and  C_22 
REMARK       I    between atoms: C_7  and  N_8 
REMARK    5  A    between atoms: N_8  and  C_9 
REMARK    6  A    between atoms: C_11  and  C_12 
ROOT
HETATM    1  C   UNL     1       5.476  28.522  53.815  1.00  0.00     0.245 C 
HETATM    2  N   UNL     1       5.931  28.124  52.573  1.00  0.00    -0.325 N 
HETATM    3  O   UNL     1       4.538  29.298  53.990  1.00  0.00    -0.271 OA
HETATM    4  H   UNL     1       6.741  27.506  52.572  1.00  0.00     0.169 HD
ENDROOT
BRANCH   1   5
HETATM    5  C   UNL     1       6.134  27.745  55.005  1.00  0.00     0.180 C 
BRANCH   5   6
HETATM    6  N   UNL     1       6.923  26.544  54.653  1.00  0.00    -0.343 N 
HETATM    7  C   UNL     1       6.341  25.317  54.432  1.00  0.00     0.252 C 
HETATM    8  O   UNL     1       5.190  25.169  54.044  1.00  0.00    -0.268 OA
HETATM    9  H   UNL     1       7.892  26.532  54.948  1.00  0.00     0.163 HD
BRANCH   7  10
HETATM   10  C   UNL     1       7.208  24.146  54.665  1.00  0.00     0.037 A 
HETATM   11  C   UNL     1       7.930  23.551  53.614  1.00  0.00    -0.046 A 
HETATM   12  C   UNL     1       7.855  24.049  52.198  1.00  0.00     0.049 C 
HETATM   13  C   UNL     1       8.740  22.444  53.908  1.00  0.00     0.007 A 
HETATM   14  C   UNL     1       8.853  21.970  55.217  1.00  0.00     0.001 A 
HETATM   15  C   UNL     1       8.155  22.590  56.252  1.00  0.00     0.001 A 
HETATM   16  C   UNL     1       7.332  23.681  55.980  1.00  0.00     0.017 A 
ENDBRANCH   7  10
ENDBRANCH   5   6
BRANCH   5  17
HETATM   17  C   UNL     1       6.985  28.638  55.953  1.00  0.00     0.009 C 
HETATM   18  C   UNL     1       7.019  28.134  57.399  1.00  0.00     0.012 C 
HETATM   19  C   UNL     1       8.402  28.888  55.431  1.00  0.00     0.012 C 
ENDBRANCH   5  17
ENDBRANCH   1   5
BRANCH   2  20
HETATM   20  C   UNL     1       5.357  28.370  51.310  1.00  0.00     0.035 A 
HETATM   21  C   UNL     1       4.718  27.393  50.541  1.00  0.00     0.042 A 
HETATM   22  C   UNL     1       4.257  27.678  49.244  1.00  0.00    -0.021 A 
HETATM   23  C   UNL     1       4.402  28.982  48.750  1.00  0.00     0.012 A 
HETATM   24  C   UNL     1       5.024  29.967  49.518  1.00  0.00     0.003 A 
HETATM   25  C   UNL     1       5.515  29.656  50.784  1.00  0.00     0.029 A 
BRANCH  22  26
HETATM   26  C   UNL     1       3.691  26.637  48.396  1.00  0.00     0.010 A 
HETATM   27  C   UNL     1       3.129  26.707  47.097  1.00  0.00     0.152 A 
HETATM   28  N   UNL     1       2.740  25.517  46.630  1.00  0.00    -0.187 NA
HETATM   29  N   UNL     1       3.058  24.675  47.625  1.00  0.00    -0.289 N 
HETATM   30  H   UNL     1       2.866  23.687  47.498  1.00  0.00     0.188 HD
HETATM   31  C   UNL     1       3.623  25.293  48.702  1.00  0.00     0.123 A 
ENDBRANCH  22  26
ENDBRANCH   2  20
TORSDOF 6
ENDMDL
MODEL 8
REMARK VINA RESULT:      -8.8      4.501      6.999
REMARK  6 active torsions:
REMARK  status: ('A' for Active; 'I' for Inactive)
REMARK    1  A    between atoms: C_3  and  C_4 
REMARK       I    between atoms: C_4  and  N_5 
REMARK    2  A    between atoms: N_5  and  C_6 
REMARK    3  A    between atoms: C_6  and  C_7 
REMARK    4  A    between atoms: C_6  and  C_22 
REMARK       I    between atoms: C_7  and  N_8 
REMARK    5  A    between atoms: N_8  and  C_9 
REMARK    6  A    between atoms: C_11  and  C_12 
ROOT
HETATM    1  C   UNL     1       6.114  32.419  59.303  1.00  0.00     0.245 C 
HETATM    2  N   UNL     1       7.031  31.438  59.629  1.00  0.00    -0.325 N 
HETATM    3  O   UNL     1       5.991  32.900  58.178  1.00  0.00    -0.271 OA
HETATM    4  H   UNL     1       7.051  31.156  60.608  1.00  0.00     0.169 HD
ENDROOT
BRANCH   1   5
HETATM    5  C   UNL     1       5.098  32.738  60.451  1.00  0.00     0.180 C 
BRANCH   5   6
HETATM    6  N   UNL     1       5.672  32.975  61.794  1.00  0.00    -0.343 N 
HETATM    7  C   UNL     1       5.204  32.339  62.920  1.00  0.00     0.252 C 
HETATM    8  O   UNL     1       4.655  31.245  62.906  1.00  0.00    -0.268 OA
HETATM    9  H   UNL     1       6.132  33.865  61.943  1.00  0.00     0.163 HD
BRANCH   7  10
HETATM   10  C   UNL     1       5.429  33.047  64.195  1.00  0.00     0.037 A 
HETATM   11  C   UNL     1       6.728  33.289  64.678  1.00  0.00    -0.046 A 
HETATM   12  C   UNL     1       7.960  32.833  63.948  1.00  0.00     0.049 C 
HETATM   13  C   UNL     1       6.868  33.973  65.894  1.00  0.00     0.007 A 
HETATM   14  C   UNL     1       5.746  34.433  66.588  1.00  0.00     0.001 A 
HETATM   15  C   UNL     1       4.467  34.212  66.080  1.00  0.00     0.001 A 
HETATM   16  C   UNL     1       4.304  33.520  64.881  1.00  0.00     0.017 A 
ENDBRANCH   7  10
ENDBRANCH   5   6
BRANCH   5  17
HETATM   17  C   UNL     1       4.111  33.894  60.121  1.00  0.00     0.009 C 
HETATM   18  C   UNL     1       2.659  33.582  60.498  1.00  0.00     0.012 C 
HETATM   19  C   UNL     1       4.546  35.241  60.705  1.00  0.00     0.012 C 
ENDBRANCH   5  17
ENDBRANCH   1   5
BRANCH   2  20
HETATM   20  C   UNL     1       7.863  30.697  58.768  1.00  0.00     0.035 A 
HETATM   21  C   UNL     1       7.472  29.514  58.134  1.00  0.00     0.042 A 
HETATM   22  C   UNL     1       8.384  28.767  57.368  1.00  0.00    -0.021 A 
HETATM   23  C   UNL     1       9.687  29.257  57.207  1.00  0.00     0.012 A 
HETATM   24  C   UNL     1      10.081  30.445  57.824  1.00  0.00     0.003 A 
HETATM   25  C   UNL     1       9.177  31.150  58.615  1.00  0.00     0.029 A 
BRANCH  22  26
HETATM   26  C   UNL     1       8.015  27.478  56.797  1.00  0.00     0.010 A 
HETATM   27  C   UNL     1       8.283  26.159  57.240  1.00  0.00     0.152 A 
HETATM   28  N   UNL     1       7.744  25.222  56.455  1.00  0.00    -0.187 NA
HETATM   29  N   UNL     1       7.119  25.936  55.506  1.00  0.00    -0.289 N 
HETATM   30  H   UNL     1       6.614  25.435  54.783  1.00  0.00     0.188 HD
HETATM   31  C   UNL     1       7.254  27.284  55.662  1.00  0.00     0.123 A 
ENDBRANCH  22  26
ENDBRANCH   2  20
TORSDOF 6
ENDMDL
MODEL 9
REMARK VINA RESULT:      -8.7      2.091      3.688
REMARK  6 active torsions:
REMARK  status: ('A' for Active; 'I' for Inactive)
REMARK    1  A    between atoms: C_3  and  C_4 
REMARK       I    between atoms: C_4  and  N_5 
REMARK    2  A    between atoms: N_5  and  C_6 
REMARK    3  A    between atoms: C_6  and  C_7 
REMARK    4  A    between atoms: C_6  and  C_22 
REMARK       I    between atoms: C_7  and  N_8 
REMARK    5  A    between atoms: N_8  and  C_9 
REMARK    6  A    between atoms: C_11  and  C_12 
ROOT
HETATM    1  C   UNL     1       6.626  28.601  56.748  1.00  0.00     0.245 C 
HETATM    2  N   UNL     1       7.052  28.089  55.537  1.00  0.00    -0.325 N 
HETATM    3  O   UNL     1       5.689  28.142  57.398  1.00  0.00    -0.271 OA
HETATM    4  H   UNL     1       7.818  28.589  55.087  1.00  0.00     0.169 HD
ENDROOT
BRANCH   1   5
HETATM    5  C   UNL     1       7.569  29.708  57.330  1.00  0.00     0.180 C 
BRANCH   5   6
HETATM    6  N   UNL     1       7.292  30.149  58.715  1.00  0.00    -0.343 N 
HETATM    7  C   UNL     1       7.048  31.464  59.036  1.00  0.00     0.252 C 
HETATM    8  O   UNL     1       6.581  32.281  58.254  1.00  0.00    -0.268 OA
HETATM    9  H   UNL     1       7.655  29.567  59.461  1.00  0.00     0.163 HD
BRANCH   7  10
HETATM   10  C   UNL     1       7.359  31.852  60.426  1.00  0.00     0.037 A 
HETATM   11  C   UNL     1       6.355  32.305  61.300  1.00  0.00    -0.046 A 
HETATM   12  C   UNL     1       4.918  32.441  60.881  1.00  0.00     0.049 C 
HETATM   13  C   UNL     1       6.721  32.652  62.609  1.00  0.00     0.007 A 
HETATM   14  C   UNL     1       8.042  32.515  63.041  1.00  0.00     0.001 A 
HETATM   15  C   UNL     1       9.019  32.035  62.171  1.00  0.00     0.001 A 
HETATM   16  C   UNL     1       8.681  31.700  60.861  1.00  0.00     0.017 A 
ENDBRANCH   7  10
ENDBRANCH   5   6
BRANCH   5  17
HETATM   17  C   UNL     1       9.085  29.379  57.207  1.00  0.00     0.009 C 
HETATM   18  C   UNL     1       9.615  29.478  55.773  1.00  0.00     0.012 C 
HETATM   19  C   UNL     1       9.956  30.194  58.166  1.00  0.00     0.012 C 
ENDBRANCH   5  17
ENDBRANCH   1   5
BRANCH   2  20
HETATM   20  C   UNL     1       6.643  26.905  54.894  1.00  0.00     0.035 A 
HETATM   21  C   UNL     1       7.367  25.710  54.929  1.00  0.00     0.042 A 
HETATM   22  C   UNL     1       6.958  24.591  54.182  1.00  0.00    -0.021 A 
HETATM   23  C   UNL     1       5.773  24.678  53.437  1.00  0.00     0.012 A 
HETATM   24  C   UNL     1       5.036  25.862  53.410  1.00  0.00     0.003 A 
HETATM   25  C   UNL     1       5.480  26.974  54.121  1.00  0.00     0.029 A 
BRANCH  22  26
HETATM   26  C   UNL     1       7.767  23.380  54.126  1.00  0.00     0.010 A 
HETATM   27  C   UNL     1       7.821  22.350  53.155  1.00  0.00     0.152 A 
HETATM   28  N   UNL     1       8.724  21.407  53.442  1.00  0.00    -0.187 NA
HETATM   29  N   UNL     1       9.260  21.833  54.596  1.00  0.00    -0.289 N 
HETATM   30  H   UNL     1       9.996  21.277  55.018  1.00  0.00     0.188 HD
HETATM   31  C   UNL     1       8.721  23.002  55.048  1.00  0.00     0.123 A 
ENDBRANCH  22  26
ENDBRANCH   2  20
TORSDOF 6
ENDMDL
MODEL 10
REMARK VINA RESULT:      -8.2      5.423      8.332
REMARK  6 active torsions:
REMARK  status: ('A' for Active; 'I' for Inactive)
REMARK    1  A    between atoms: C_3  and  C_4 
REMARK       I    between atoms: C_4  and  N_5 
REMARK    2  A    between atoms: N_5  and  C_6 
REMARK    3  A    between atoms: C_6  and  C_7 
REMARK    4  A    between atoms: C_6  and  C_22 
REMARK       I    between atoms: C_7  and  N_8 
REMARK    5  A    between atoms: N_8  and  C_9 
REMARK    6  A    between atoms: C_11  and  C_12 
ROOT
HETATM    1  C   UNL     1       4.842  33.340  59.897  1.00  0.00     0.245 C 
HETATM    2  N   UNL     1       5.519  32.141  60.016  1.00  0.00    -0.325 N 
HETATM    3  O   UNL     1       4.720  33.961  58.843  1.00  0.00    -0.271 OA
HETATM    4  H   UNL     1       5.575  31.752  60.956  1.00  0.00     0.169 HD
ENDROOT
BRANCH   1   5
HETATM    5  C   UNL     1       4.064  33.754  61.193  1.00  0.00     0.180 C 
BRANCH   5   6
HETATM    6  N   UNL     1       4.874  33.947  62.415  1.00  0.00    -0.343 N 
HETATM    7  C   UNL     1       4.985  32.982  63.388  1.00  0.00     0.252 C 
HETATM    8  O   UNL     1       4.860  31.783  63.176  1.00  0.00    -0.268 OA
HETATM    9  H   UNL     1       5.026  34.903  62.715  1.00  0.00     0.163 HD
BRANCH   7  10
HETATM   10  C   UNL     1       5.302  33.472  64.744  1.00  0.00     0.037 A 
HETATM   11  C   UNL     1       6.632  33.578  65.190  1.00  0.00    -0.046 A 
HETATM   12  C   UNL     1       7.805  33.187  64.337  1.00  0.00     0.049 C 
HETATM   13  C   UNL     1       6.860  34.057  66.489  1.00  0.00     0.007 A 
HETATM   14  C   UNL     1       5.796  34.453  67.301  1.00  0.00     0.001 A 
HETATM   15  C   UNL     1       4.485  34.371  66.832  1.00  0.00     0.001 A 
HETATM   16  C   UNL     1       4.234  33.882  65.551  1.00  0.00     0.017 A 
ENDBRANCH   7  10
ENDBRANCH   5   6
BRANCH   5  17
HETATM   17  C   UNL     1       3.138  34.990  61.008  1.00  0.00     0.009 C 
HETATM   18  C   UNL     1       1.646  34.651  61.082  1.00  0.00     0.012 C 
HETATM   19  C   UNL     1       3.480  36.143  61.955  1.00  0.00     0.012 C 
ENDBRANCH   5  17
ENDBRANCH   1   5
BRANCH   2  20
HETATM   20  C   UNL     1       6.047  31.330  58.993  1.00  0.00     0.035 A 
HETATM   21  C   UNL     1       7.414  31.102  58.807  1.00  0.00     0.042 A 
HETATM   22  C   UNL     1       7.883  30.366  57.705  1.00  0.00    -0.021 A 
HETATM   23  C   UNL     1       6.948  29.814  56.818  1.00  0.00     0.012 A 
HETATM   24  C   UNL     1       5.582  30.022  57.007  1.00  0.00     0.003 A 
HETATM   25  C   UNL     1       5.136  30.791  58.079  1.00  0.00     0.029 A 
BRANCH  22  26
HETATM   26  C   UNL     1       9.309  30.220  57.443  1.00  0.00     0.010 A 
HETATM   27  C   UNL     1      10.405  31.040  57.810  1.00  0.00     0.152 A 
HETATM   28  N   UNL     1      11.582  30.552  57.408  1.00  0.00    -0.187 NA
HETATM   29  N   UNL     1      11.248  29.411  56.787  1.00  0.00    -0.289 N 
HETATM   30  H   UNL     1      11.991  28.841  56.397  1.00  0.00     0.188 HD
HETATM   31  C   UNL     1       9.906  29.170  56.776  1.00  0.00     0.123 A 
ENDBRANCH  22  26
ENDBRANCH   2  20
TORSDOF 6
ENDMDL
