MODEL 1
REMARK VINA RESULT:      -9.1      0.000      0.000
REMARK  3 active torsions:
REMARK  status: ('A' for Active; 'I' for Inactive)
REMARK    1  A    between atoms: C_7  and  C_8 
REMARK    2  A    between atoms: C_17  and  C_18 
REMARK       I    between atoms: C_18  and  N_19 
REMARK    3  A    between atoms: N_19  and  C_20 
ROOT
HETATM    1  C   UNL     1       6.462  27.598  54.879  1.00  0.00     0.206 C 
HETATM    2  N   UNL     1       5.336  28.538  54.850  1.00  0.00    -0.084 N 
HETATM    3  C   UNL     1       4.289  28.504  55.730  1.00  0.00     0.725 A 
HETATM    4  N   UNL     1       3.454  29.473  55.454  1.00  0.00    -0.054 NA
HETATM    5  C   UNL     1       4.027  30.061  54.355  1.00  0.00     0.275 A 
HETATM    6  N   UNL     1       5.171  29.513  53.930  1.00  0.00    -0.149 NA
HETATM    7  N   UNL     1       4.240  27.531  56.661  1.00  0.00    -0.192 N 
HETATM    8  C   UNL     1       5.105  26.441  56.658  1.00  0.00     0.037 C 
HETATM    9  C   UNL     1       4.702  25.290  57.546  1.00  0.00     0.070 C 
HETATM   10  C   UNL     1       6.182  26.443  55.832  1.00  0.00     0.063 C 
HETATM   11  H   UNL     1       3.395  27.458  57.223  1.00  0.00     0.184 HD
ENDROOT
BRANCH  10  12
HETATM   12  C   UNL     1       7.116  25.296  55.675  1.00  0.00     0.256 C 
HETATM   13  N   UNL     1       6.615  24.279  54.893  1.00  0.00    -0.323 N 
HETATM   14  H   UNL     1       5.665  24.380  54.557  1.00  0.00     0.169 HD
HETATM   15  O   UNL     1       8.195  25.335  56.252  1.00  0.00    -0.267 OA
BRANCH  13  16
HETATM   16  C   UNL     1       7.294  23.117  54.467  1.00  0.00     0.035 A 
HETATM   17  C   UNL     1       7.729  22.901  53.158  1.00  0.00     0.029 A 
HETATM   18  C   UNL     1       8.368  21.706  52.810  1.00  0.00     0.002 A 
HETATM   19  C   UNL     1       8.572  20.715  53.766  1.00  0.00     0.000 A 
HETATM   20  C   UNL     1       8.143  20.919  55.074  1.00  0.00     0.002 A 
HETATM   21  C   UNL     1       7.513  22.117  55.425  1.00  0.00     0.029 A 
ENDBRANCH  13  16
ENDBRANCH  10  12
BRANCH   1  22
HETATM   22  C   UNL     1       7.718  28.337  55.263  1.00  0.00     0.015 A 
HETATM   23  C   UNL     1       8.082  28.854  56.501  1.00  0.00     0.036 A 
HETATM   24  C   UNL     1       7.369  28.854  57.805  1.00  0.00     0.070 C 
HETATM   25  N   UNL     1       9.336  29.386  56.331  1.00  0.00    -0.278 N 
HETATM   26  C   UNL     1      10.194  29.977  57.332  1.00  0.00     0.179 C 
HETATM   27  N   UNL     1       9.771  29.329  55.059  1.00  0.00    -0.185 NA
HETATM   28  C   UNL     1       8.811  28.662  54.422  1.00  0.00     0.150 A 
ENDBRANCH   1  22
TORSDOF 3
ENDMDL
MODEL 2
REMARK VINA RESULT:      -9.0      2.164      3.737
REMARK  3 active torsions:
REMARK  status: ('A' for Active; 'I' for Inactive)
REMARK    1  A    between atoms: C_7  and  C_8 
REMARK    2  A    between atoms: C_17  and  C_18 
REMARK       I    between atoms: C_18  and  N_19 
REMARK    3  A    between atoms: N_19  and  C_20 
ROOT
HETATM    1  C   UNL     1       5.227  27.642  54.961  1.00  0.00     0.206 C 
HETATM    2  N   UNL     1       4.976  29.040  55.330  1.00  0.00    -0.084 N 
HETATM    3  C   UNL     1       5.879  29.830  55.989  1.00  0.00     0.725 A 
HETATM    4  N   UNL     1       5.370  31.022  56.164  1.00  0.00    -0.054 NA
HETATM    5  C   UNL     1       4.118  30.899  55.617  1.00  0.00     0.275 A 
HETATM    6  N   UNL     1       3.818  29.698  55.111  1.00  0.00    -0.149 NA
HETATM    7  N   UNL     1       7.059  29.305  56.374  1.00  0.00    -0.192 N 
HETATM    8  C   UNL     1       7.336  27.943  56.305  1.00  0.00     0.037 C 
HETATM    9  C   UNL     1       8.546  27.487  57.083  1.00  0.00     0.070 C 
HETATM   10  C   UNL     1       6.493  27.122  55.629  1.00  0.00     0.063 C 
HETATM   11  H   UNL     1       7.659  29.877  56.965  1.00  0.00     0.184 HD
ENDROOT
BRANCH  10  12
HETATM   12  C   UNL     1       6.638  25.642  55.571  1.00  0.00     0.256 C 
HETATM   13  N   UNL     1       7.576  25.214  54.659  1.00  0.00    -0.323 N 
HETATM   14  H   UNL     1       8.024  25.922  54.090  1.00  0.00     0.169 HD
HETATM   15  O   UNL     1       5.921  24.955  56.288  1.00  0.00    -0.267 OA
BRANCH  13  16
HETATM   16  C   UNL     1       8.021  23.890  54.450  1.00  0.00     0.035 A 
HETATM   17  C   UNL     1       8.899  23.217  55.301  1.00  0.00     0.029 A 
HETATM   18  C   UNL     1       9.316  21.915  55.005  1.00  0.00     0.002 A 
HETATM   19  C   UNL     1       8.864  21.277  53.854  1.00  0.00     0.000 A 
HETATM   20  C   UNL     1       7.987  21.939  52.998  1.00  0.00     0.002 A 
HETATM   21  C   UNL     1       7.563  23.236  53.297  1.00  0.00     0.029 A 
ENDBRANCH  13  16
ENDBRANCH  10  12
BRANCH   1  22
HETATM   22  C   UNL     1       5.310  27.530  53.460  1.00  0.00     0.015 A 
HETATM   23  C   UNL     1       4.957  26.461  52.645  1.00  0.00     0.036 A 
HETATM   24  C   UNL     1       4.411  25.120  52.978  1.00  0.00     0.070 C 
HETATM   25  N   UNL     1       5.179  26.884  51.357  1.00  0.00    -0.278 N 
HETATM   26  C   UNL     1       4.899  26.176  50.129  1.00  0.00     0.179 C 
HETATM   27  N   UNL     1       5.728  28.110  51.286  1.00  0.00    -0.185 NA
HETATM   28  C   UNL     1       5.772  28.515  52.553  1.00  0.00     0.150 A 
ENDBRANCH   1  22
TORSDOF 3
ENDMDL
MODEL 3
REMARK VINA RESULT:      -8.3      2.697      5.403
REMARK  3 active torsions:
REMARK  status: ('A' for Active; 'I' for Inactive)
REMARK    1  A    between atoms: C_7  and  C_8 
REMARK    2  A    between atoms: C_17  and  C_18 
REMARK       I    between atoms: C_18  and  N_19 
REMARK    3  A    between atoms: N_19  and  C_20 
ROOT
HETATM    1  C   UNL     1       7.539  29.949  58.526  1.00  0.00     0.206 C 
HETATM    2  N   UNL     1       8.031  30.900  59.530  1.00  0.00    -0.084 N 
HETATM    3  C   UNL     1       9.235  31.544  59.448  1.00  0.00     0.725 A 
HETATM    4  N   UNL     1       9.382  32.329  60.484  1.00  0.00    -0.054 NA
HETATM    5  C   UNL     1       8.236  32.100  61.202  1.00  0.00     0.275 A 
HETATM    6  N   UNL     1       7.383  31.215  60.673  1.00  0.00    -0.149 NA
HETATM    7  N   UNL     1      10.060  31.274  58.417  1.00  0.00    -0.192 N 
HETATM    8  C   UNL     1       9.834  30.230  57.525  1.00  0.00     0.037 C 
HETATM    9  C   UNL     1      11.008  29.853  56.655  1.00  0.00     0.070 C 
HETATM   10  C   UNL     1       8.640  29.584  57.538  1.00  0.00     0.063 C 
HETATM   11  H   UNL     1      10.995  31.674  58.444  1.00  0.00     0.184 HD
ENDROOT
BRANCH  10  12
HETATM   12  C   UNL     1       8.324  28.396  56.700  1.00  0.00     0.256 C 
HETATM   13  N   UNL     1       8.397  27.203  57.383  1.00  0.00    -0.323 N 
HETATM   14  H   UNL     1       8.706  27.241  58.346  1.00  0.00     0.169 HD
HETATM   15  O   UNL     1       8.064  28.568  55.516  1.00  0.00    -0.267 OA
BRANCH  13  16
HETATM   16  C   UNL     1       8.049  25.922  56.903  1.00  0.00     0.035 A 
HETATM   17  C   UNL     1       6.953  25.669  56.074  1.00  0.00     0.029 A 
HETATM   18  C   UNL     1       6.658  24.364  55.666  1.00  0.00     0.002 A 
HETATM   19  C   UNL     1       7.452  23.301  56.087  1.00  0.00     0.000 A 
HETATM   20  C   UNL     1       8.547  23.541  56.912  1.00  0.00     0.002 A 
HETATM   21  C   UNL     1       8.847  24.846  57.313  1.00  0.00     0.029 A 
ENDBRANCH  13  16
ENDBRANCH  10  12
BRANCH   1  22
HETATM   22  C   UNL     1       6.343  30.540  57.824  1.00  0.00     0.015 A 
HETATM   23  C   UNL     1       5.245  29.890  57.275  1.00  0.00     0.036 A 
HETATM   24  C   UNL     1       4.908  28.445  57.195  1.00  0.00     0.070 C 
HETATM   25  N   UNL     1       4.421  30.881  56.802  1.00  0.00    -0.278 N 
HETATM   26  C   UNL     1       3.112  30.740  56.208  1.00  0.00     0.179 C 
HETATM   27  N   UNL     1       4.944  32.114  56.927  1.00  0.00    -0.185 NA
HETATM   28  C   UNL     1       6.088  31.912  57.577  1.00  0.00     0.150 A 
ENDBRANCH   1  22
TORSDOF 3
ENDMDL
MODEL 4
REMARK VINA RESULT:      -8.3      3.545      5.008
REMARK  3 active torsions:
REMARK  status: ('A' for Active; 'I' for Inactive)
REMARK    1  A    between atoms: C_7  and  C_8 
REMARK    2  A    between atoms: C_17  and  C_18 
REMARK       I    between atoms: C_18  and  N_19 
REMARK    3  A    between atoms: N_19  and  C_20 
ROOT
HETATM    1  C   UNL     1       5.652  28.293  51.427  1.00  0.00     0.206 C 
HETATM    2  N   UNL     1       5.590  29.328  50.388  1.00  0.00    -0.084 N 
HETATM    3  C   UNL     1       4.913  29.186  49.207  1.00  0.00     0.725 A 
HETATM    4  N   UNL     1       5.036  30.279  48.500  1.00  0.00    -0.054 NA
HETATM    5  C   UNL     1       5.840  31.062  49.289  1.00  0.00     0.275 A 
HETATM    6  N   UNL     1       6.226  30.517  50.449  1.00  0.00    -0.149 NA
HETATM    7  N   UNL     1       4.297  28.019  48.935  1.00  0.00    -0.192 N 
HETATM    8  C   UNL     1       4.469  26.877  49.712  1.00  0.00     0.037 C 
HETATM    9  C   UNL     1       3.993  25.589  49.086  1.00  0.00     0.070 C 
HETATM   10  C   UNL     1       5.098  26.971  50.910  1.00  0.00     0.063 C 
HETATM   11  H   UNL     1       3.905  27.899  48.004  1.00  0.00     0.184 HD
ENDROOT
BRANCH  10  12
HETATM   12  C   UNL     1       5.422  25.806  51.777  1.00  0.00     0.256 C 
HETATM   13  N   UNL     1       6.771  25.638  51.995  1.00  0.00    -0.323 N 
HETATM   14  H   UNL     1       7.399  26.269  51.513  1.00  0.00     0.169 HD
HETATM   15  O   UNL     1       4.504  25.105  52.183  1.00  0.00    -0.267 OA
BRANCH  13  16
HETATM   16  C   UNL     1       7.387  24.702  52.855  1.00  0.00     0.035 A 
HETATM   17  C   UNL     1       7.824  23.439  52.450  1.00  0.00     0.029 A 
HETATM   18  C   UNL     1       8.396  22.557  53.372  1.00  0.00     0.002 A 
HETATM   19  C   UNL     1       8.532  22.928  54.707  1.00  0.00     0.000 A 
HETATM   20  C   UNL     1       8.101  24.185  55.122  1.00  0.00     0.002 A 
HETATM   21  C   UNL     1       7.537  25.070  54.199  1.00  0.00     0.029 A 
ENDBRANCH  13  16
ENDBRANCH  10  12
BRANCH   1  22
HETATM   22  C   UNL     1       4.904  28.765  52.647  1.00  0.00     0.015 A 
HETATM   23  C   UNL     1       5.323  28.788  53.971  1.00  0.00     0.036 A 
HETATM   24  C   UNL     1       6.600  28.360  54.597  1.00  0.00     0.070 C 
HETATM   25  N   UNL     1       4.292  29.354  54.680  1.00  0.00    -0.278 N 
HETATM   26  C   UNL     1       4.253  29.677  56.088  1.00  0.00     0.179 C 
HETATM   27  N   UNL     1       3.208  29.617  53.927  1.00  0.00    -0.185 NA
HETATM   28  C   UNL     1       3.591  29.296  52.693  1.00  0.00     0.150 A 
ENDBRANCH   1  22
TORSDOF 3
ENDMDL
MODEL 5
REMARK VINA RESULT:      -8.0      3.279      5.760
REMARK  3 active torsions:
REMARK  status: ('A' for Active; 'I' for Inactive)
REMARK    1  A    between atoms: C_7  and  C_8 
REMARK    2  A    between atoms: C_17  and  C_18 
REMARK       I    between atoms: C_18  and  N_19 
REMARK    3  A    between atoms: N_19  and  C_20 
ROOT
HETATM    1  C   UNL     1       6.995  28.061  54.480  1.00  0.00     0.206 C 
HETATM    2  N   UNL     1       7.722  28.770  55.540  1.00  0.00    -0.084 N 
HETATM    3  C   UNL     1       7.140  29.657  56.405  1.00  0.00     0.725 A 
HETATM    4  N   UNL     1       8.041  30.112  57.236  1.00  0.00    -0.054 NA
HETATM    5  C   UNL     1       9.187  29.489  56.810  1.00  0.00     0.275 A 
HETATM    6  N   UNL     1       9.051  28.672  55.759  1.00  0.00    -0.149 NA
HETATM    7  N   UNL     1       5.832  29.951  56.268  1.00  0.00    -0.192 N 
HETATM    8  C   UNL     1       5.077  29.541  55.172  1.00  0.00     0.037 C 
HETATM    9  C   UNL     1       3.747  30.233  55.005  1.00  0.00     0.070 C 
HETATM   10  C   UNL     1       5.594  28.633  54.306  1.00  0.00     0.063 C 
HETATM   11  H   UNL     1       5.454  30.700  56.844  1.00  0.00     0.184 HD
ENDROOT
BRANCH  10  12
HETATM   12  C   UNL     1       4.919  28.197  53.053  1.00  0.00     0.256 C 
HETATM   13  N   UNL     1       5.647  28.461  51.914  1.00  0.00    -0.323 N 
HETATM   14  H   UNL     1       6.518  28.964  52.029  1.00  0.00     0.169 HD
HETATM   15  O   UNL     1       3.809  27.688  53.132  1.00  0.00    -0.267 OA
BRANCH  13  16
HETATM   16  C   UNL     1       5.334  28.073  50.593  1.00  0.00     0.035 A 
HETATM   17  C   UNL     1       4.903  26.794  50.236  1.00  0.00     0.029 A 
HETATM   18  C   UNL     1       4.643  26.482  48.897  1.00  0.00     0.002 A 
HETATM   19  C   UNL     1       4.817  27.442  47.905  1.00  0.00     0.000 A 
HETATM   20  C   UNL     1       5.246  28.721  48.250  1.00  0.00     0.002 A 
HETATM   21  C   UNL     1       5.498  29.037  49.588  1.00  0.00     0.029 A 
ENDBRANCH  13  16
ENDBRANCH  10  12
BRANCH   1  22
HETATM   22  C   UNL     1       6.953  26.590  54.803  1.00  0.00     0.015 A 
HETATM   23  C   UNL     1       7.283  25.510  53.993  1.00  0.00     0.036 A 
HETATM   24  C   UNL     1       7.759  25.456  52.586  1.00  0.00     0.070 C 
HETATM   25  N   UNL     1       7.120  24.392  54.774  1.00  0.00    -0.278 N 
HETATM   26  C   UNL     1       7.406  23.019  54.431  1.00  0.00     0.179 C 
HETATM   27  N   UNL     1       6.628  24.664  55.996  1.00  0.00    -0.185 NA
HETATM   28  C   UNL     1       6.563  25.993  56.027  1.00  0.00     0.150 A 
ENDBRANCH   1  22
TORSDOF 3
ENDMDL
MODEL 6
REMARK VINA RESULT:      -7.9      1.988      2.618
REMARK  3 active torsions:
REMARK  status: ('A' for Active; 'I' for Inactive)
REMARK    1  A    between atoms: C_7  and  C_8 
REMARK    2  A    between atoms: C_17  and  C_18 
REMARK       I    between atoms: C_18  and  N_19 
REMARK    3  A    between atoms: N_19  and  C_20 
ROOT
HETATM    1  C   UNL     1       6.688  27.547  52.930  1.00  0.00     0.206 C 
HETATM    2  N   UNL     1       5.636  28.469  52.486  1.00  0.00    -0.084 N 
HETATM    3  C   UNL     1       4.311  28.137  52.408  1.00  0.00     0.725 A 
HETATM    4  N   UNL     1       3.626  29.170  51.991  1.00  0.00    -0.054 NA
HETATM    5  C   UNL     1       4.598  30.117  51.791  1.00  0.00     0.275 A 
HETATM    6  N   UNL     1       5.851  29.732  52.058  1.00  0.00    -0.149 NA
HETATM    7  N   UNL     1       3.926  26.881  52.705  1.00  0.00    -0.192 N 
HETATM    8  C   UNL     1       4.832  25.843  52.909  1.00  0.00     0.037 C 
HETATM    9  C   UNL     1       4.243  24.455  52.890  1.00  0.00     0.070 C 
HETATM   10  C   UNL     1       6.154  26.124  53.034  1.00  0.00     0.063 C 
HETATM   11  H   UNL     1       2.958  26.629  52.523  1.00  0.00     0.184 HD
ENDROOT
BRANCH  10  12
HETATM   12  C   UNL     1       7.218  25.092  53.157  1.00  0.00     0.256 C 
HETATM   13  N   UNL     1       6.888  24.056  54.002  1.00  0.00    -0.323 N 
HETATM   14  H   UNL     1       6.003  24.122  54.490  1.00  0.00     0.169 HD
HETATM   15  O   UNL     1       8.267  25.255  52.546  1.00  0.00    -0.267 OA
BRANCH  13  16
HETATM   16  C   UNL     1       7.630  22.879  54.241  1.00  0.00     0.035 A 
HETATM   17  C   UNL     1       8.350  22.633  55.412  1.00  0.00     0.029 A 
HETATM   18  C   UNL     1       9.087  21.453  55.557  1.00  0.00     0.002 A 
HETATM   19  C   UNL     1       9.114  20.512  54.532  1.00  0.00     0.000 A 
HETATM   20  C   UNL     1       8.400  20.746  53.361  1.00  0.00     0.002 A 
HETATM   21  C   UNL     1       7.656  21.921  53.218  1.00  0.00     0.029 A 
ENDBRANCH  13  16
ENDBRANCH  10  12
BRANCH   1  22
HETATM   22  C   UNL     1       7.247  28.024  54.246  1.00  0.00     0.015 A 
HETATM   23  C   UNL     1       6.635  28.053  55.493  1.00  0.00     0.036 A 
HETATM   24  C   UNL     1       5.271  27.645  55.920  1.00  0.00     0.070 C 
HETATM   25  N   UNL     1       7.584  28.529  56.364  1.00  0.00    -0.278 N 
HETATM   26  C   UNL     1       7.479  28.678  57.797  1.00  0.00     0.179 C 
HETATM   27  N   UNL     1       8.730  28.890  55.758  1.00  0.00    -0.185 NA
HETATM   28  C   UNL     1       8.540  28.550  54.485  1.00  0.00     0.150 A 
ENDBRANCH   1  22
TORSDOF 3
ENDMDL
MODEL 7
REMARK VINA RESULT:      -7.8      3.679      7.586
REMARK  3 active torsions:
REMARK  status: ('A' for Active; 'I' for Inactive)
REMARK    1  A    between atoms: C_7  and  C_8 
REMARK    2  A    between atoms: C_17  and  C_18 
REMARK       I    between atoms: C_18  and  N_19 
REMARK    3  A    between atoms: N_19  and  C_20 
ROOT
HETATM    1  C   UNL     1       6.511  29.046  57.705  1.00  0.00     0.206 C 
HETATM    2  N   UNL     1       6.144  27.705  57.235  1.00  0.00    -0.084 N 
HETATM    3  C   UNL     1       5.160  27.459  56.316  1.00  0.00     0.725 A 
HETATM    4  N   UNL     1       5.078  26.173  56.097  1.00  0.00    -0.054 NA
HETATM    5  C   UNL     1       6.026  25.660  56.946  1.00  0.00     0.275 A 
HETATM    6  N   UNL     1       6.694  26.555  57.683  1.00  0.00    -0.149 NA
HETATM    7  N   UNL     1       4.437  28.488  55.832  1.00  0.00    -0.192 N 
HETATM    8  C   UNL     1       4.511  29.775  56.359  1.00  0.00     0.037 C 
HETATM    9  C   UNL     1       3.405  30.712  55.940  1.00  0.00     0.070 C 
HETATM   10  C   UNL     1       5.494  30.081  57.243  1.00  0.00     0.063 C 
HETATM   11  H   UNL     1       3.636  28.267  55.245  1.00  0.00     0.184 HD
ENDROOT
BRANCH  10  12
HETATM   12  C   UNL     1       5.612  31.390  57.940  1.00  0.00     0.256 C 
HETATM   13  N   UNL     1       5.270  31.339  59.274  1.00  0.00    -0.323 N 
HETATM   14  H   UNL     1       4.927  30.455  59.628  1.00  0.00     0.169 HD
HETATM   15  O   UNL     1       5.960  32.369  57.293  1.00  0.00    -0.267 OA
BRANCH  13  16
HETATM   16  C   UNL     1       5.383  32.376  60.224  1.00  0.00     0.035 A 
HETATM   17  C   UNL     1       4.434  33.388  60.392  1.00  0.00     0.029 A 
HETATM   18  C   UNL     1       4.637  34.399  61.337  1.00  0.00     0.002 A 
HETATM   19  C   UNL     1       5.790  34.412  62.117  1.00  0.00     0.000 A 
HETATM   20  C   UNL     1       6.741  33.408  61.958  1.00  0.00     0.002 A 
HETATM   21  C   UNL     1       6.536  32.392  61.020  1.00  0.00     0.029 A 
ENDBRANCH  13  16
ENDBRANCH  10  12
BRANCH   1  22
HETATM   22  C   UNL     1       7.898  29.381  57.220  1.00  0.00     0.015 A 
HETATM   23  C   UNL     1       8.970  29.902  57.935  1.00  0.00     0.036 A 
HETATM   24  C   UNL     1       9.090  30.295  59.363  1.00  0.00     0.070 C 
HETATM   25  N   UNL     1      10.014  29.975  57.045  1.00  0.00    -0.278 N 
HETATM   26  C   UNL     1      11.376  30.377  57.306  1.00  0.00     0.179 C 
HETATM   27  N   UNL     1       9.672  29.622  55.793  1.00  0.00    -0.185 NA
HETATM   28  C   UNL     1       8.405  29.229  55.906  1.00  0.00     0.150 A 
ENDBRANCH   1  22
TORSDOF 3
ENDMDL
MODEL 8
REMARK VINA RESULT:      -7.8      2.367      5.948
REMARK  3 active torsions:
REMARK  status: ('A' for Active; 'I' for Inactive)
REMARK    1  A    between atoms: C_7  and  C_8 
REMARK    2  A    between atoms: C_17  and  C_18 
REMARK       I    between atoms: C_18  and  N_19 
REMARK    3  A    between atoms: N_19  and  C_20 
ROOT
HETATM    1  C   UNL     1       7.498  28.672  56.108  1.00  0.00     0.206 C 
HETATM    2  N   UNL     1       8.472  29.301  57.007  1.00  0.00    -0.084 N 
HETATM    3  C   UNL     1       8.131  30.050  58.101  1.00  0.00     0.725 A 
HETATM    4  N   UNL     1       9.216  30.463  58.703  1.00  0.00    -0.054 NA
HETATM    5  C   UNL     1      10.214  29.962  57.906  1.00  0.00     0.275 A 
HETATM    6  N   UNL     1       9.812  29.260  56.840  1.00  0.00    -0.149 NA
HETATM    7  N   UNL     1       6.830  30.278  58.366  1.00  0.00    -0.192 N 
HETATM    8  C   UNL     1       5.811  29.948  57.476  1.00  0.00     0.037 C 
HETATM    9  C   UNL     1       4.468  30.572  57.767  1.00  0.00     0.070 C 
HETATM   10  C   UNL     1       6.089  29.174  56.397  1.00  0.00     0.063 C 
HETATM   11  H   UNL     1       6.608  30.934  59.111  1.00  0.00     0.184 HD
ENDROOT
BRANCH  10  12
HETATM   12  C   UNL     1       5.104  28.840  55.332  1.00  0.00     0.256 C 
HETATM   13  N   UNL     1       5.342  29.484  54.138  1.00  0.00    -0.323 N 
HETATM   14  H   UNL     1       6.107  30.147  54.115  1.00  0.00     0.169 HD
HETATM   15  O   UNL     1       4.186  28.077  55.603  1.00  0.00    -0.267 OA
BRANCH  13  16
HETATM   16  C   UNL     1       4.660  29.295  52.917  1.00  0.00     0.035 A 
HETATM   17  C   UNL     1       5.080  28.417  51.915  1.00  0.00     0.029 A 
HETATM   18  C   UNL     1       4.363  28.311  50.718  1.00  0.00     0.002 A 
HETATM   19  C   UNL     1       3.225  29.085  50.510  1.00  0.00     0.000 A 
HETATM   20  C   UNL     1       2.797  29.963  51.502  1.00  0.00     0.002 A 
HETATM   21  C   UNL     1       3.507  30.063  52.702  1.00  0.00     0.029 A 
ENDBRANCH  13  16
ENDBRANCH  10  12
BRANCH   1  22
HETATM   22  C   UNL     1       7.588  27.174  56.245  1.00  0.00     0.015 A 
HETATM   23  C   UNL     1       7.576  26.205  55.250  1.00  0.00     0.036 A 
HETATM   24  C   UNL     1       7.464  26.325  53.773  1.00  0.00     0.070 C 
HETATM   25  N   UNL     1       7.733  25.003  55.896  1.00  0.00    -0.278 N 
HETATM   26  C   UNL     1       7.864  23.689  55.308  1.00  0.00     0.179 C 
HETATM   27  N   UNL     1       7.758  25.117  57.236  1.00  0.00    -0.185 NA
HETATM   28  C   UNL     1       7.708  26.431  57.446  1.00  0.00     0.150 A 
ENDBRANCH   1  22
TORSDOF 3
ENDMDL
MODEL 9
REMARK VINA RESULT:      -7.6      3.059      5.701
REMARK  3 active torsions:
REMARK  status: ('A' for Active; 'I' for Inactive)
REMARK    1  A    between atoms: C_7  and  C_8 
REMARK    2  A    between atoms: C_17  and  C_18 
REMARK       I    between atoms: C_18  and  N_19 
REMARK    3  A    between atoms: N_19  and  C_20 
ROOT
HETATM    1  C   UNL     1       6.384  25.772  55.450  1.00  0.00     0.206 C 
HETATM    2  N   UNL     1       7.349  25.101  56.330  1.00  0.00    -0.084 N 
HETATM    3  C   UNL     1       8.391  24.337  55.881  1.00  0.00     0.725 A 
HETATM    4  N   UNL     1       9.073  23.886  56.901  1.00  0.00    -0.054 NA
HETATM    5  C   UNL     1       8.377  24.382  57.974  1.00  0.00     0.275 A 
HETATM    6  N   UNL     1       7.298  25.116  57.680  1.00  0.00    -0.149 NA
HETATM    7  N   UNL     1       8.537  24.132  54.557  1.00  0.00    -0.192 N 
HETATM    8  C   UNL     1       7.571  24.504  53.625  1.00  0.00     0.037 C 
HETATM    9  C   UNL     1       7.730  23.904  52.251  1.00  0.00     0.070 C 
HETATM   10  C   UNL     1       6.539  25.296  54.012  1.00  0.00     0.063 C 
HETATM   11  H   UNL     1       9.244  23.465  54.258  1.00  0.00     0.184 HD
ENDROOT
BRANCH  10  12
HETATM   12  C   UNL     1       5.402  25.675  53.129  1.00  0.00     0.256 C 
HETATM   13  N   UNL     1       5.679  26.738  52.298  1.00  0.00    -0.323 N 
HETATM   14  H   UNL     1       6.581  27.184  52.404  1.00  0.00     0.169 HD
HETATM   15  O   UNL     1       4.350  25.056  53.231  1.00  0.00    -0.267 OA
BRANCH  13  16
HETATM   16  C   UNL     1       4.855  27.259  51.277  1.00  0.00     0.035 A 
HETATM   17  C   UNL     1       4.047  28.388  51.424  1.00  0.00     0.029 A 
HETATM   18  C   UNL     1       3.236  28.822  50.370  1.00  0.00     0.002 A 
HETATM   19  C   UNL     1       3.221  28.128  49.164  1.00  0.00     0.000 A 
HETATM   20  C   UNL     1       4.023  27.002  49.005  1.00  0.00     0.002 A 
HETATM   21  C   UNL     1       4.841  26.573  50.054  1.00  0.00     0.029 A 
ENDBRANCH  13  16
ENDBRANCH  10  12
BRANCH   1  22
HETATM   22  C   UNL     1       6.565  27.265  55.559  1.00  0.00     0.015 A 
HETATM   23  C   UNL     1       5.602  28.248  55.749  1.00  0.00     0.036 A 
HETATM   24  C   UNL     1       4.126  28.152  55.892  1.00  0.00     0.070 C 
HETATM   25  N   UNL     1       6.289  29.435  55.826  1.00  0.00    -0.278 N 
HETATM   26  C   UNL     1       5.760  30.751  56.096  1.00  0.00     0.179 C 
HETATM   27  N   UNL     1       7.611  29.300  55.614  1.00  0.00    -0.185 NA
HETATM   28  C   UNL     1       7.783  27.986  55.490  1.00  0.00     0.150 A 
ENDBRANCH   1  22
TORSDOF 3
ENDMDL
MODEL 10
REMARK VINA RESULT:      -7.4      3.118      6.958
REMARK  3 active torsions:
REMARK  status: ('A' for Active; 'I' for Inactive)
REMARK    1  A    between atoms: C_7  and  C_8 
REMARK    2  A    between atoms: C_17  and  C_18 
REMARK       I    between atoms: C_18  and  N_19 
REMARK    3  A    between atoms: N_19  and  C_20 
ROOT
HETATM    1  C   UNL     1       6.580  28.389  56.612  1.00  0.00     0.206 C 
HETATM    2  N   UNL     1       6.601  27.024  56.071  1.00  0.00    -0.084 N 
HETATM    3  C   UNL     1       5.949  26.645  54.929  1.00  0.00     0.725 A 
HETATM    4  N   UNL     1       6.167  25.375  54.704  1.00  0.00    -0.054 NA
HETATM    5  C   UNL     1       6.942  25.006  55.774  1.00  0.00     0.275 A 
HETATM    6  N   UNL     1       7.220  25.975  56.654  1.00  0.00    -0.149 NA
HETATM    7  N   UNL     1       5.197  27.546  54.267  1.00  0.00    -0.192 N 
HETATM    8  C   UNL     1       4.894  28.802  54.786  1.00  0.00     0.037 C 
HETATM    9  C   UNL     1       3.780  29.540  54.087  1.00  0.00     0.070 C 
HETATM   10  C   UNL     1       5.542  29.242  55.894  1.00  0.00     0.063 C 
HETATM   11  H   UNL     1       4.630  27.209  53.493  1.00  0.00     0.184 HD
ENDROOT
BRANCH  10  12
HETATM   12  C   UNL     1       5.232  30.520  56.589  1.00  0.00     0.256 C 
HETATM   13  N   UNL     1       4.859  30.357  57.905  1.00  0.00    -0.323 N 
HETATM   14  H   UNL     1       4.778  29.408  58.247  1.00  0.00     0.169 HD
HETATM   15  O   UNL     1       5.303  31.564  55.954  1.00  0.00    -0.267 OA
BRANCH  13  16
HETATM   16  C   UNL     1       4.613  31.372  58.854  1.00  0.00     0.035 A 
HETATM   17  C   UNL     1       3.352  31.662  59.379  1.00  0.00     0.029 A 
HETATM   18  C   UNL     1       3.187  32.707  60.295  1.00  0.00     0.002 A 
HETATM   19  C   UNL     1       4.280  33.474  60.689  1.00  0.00     0.000 A 
HETATM   20  C   UNL     1       5.542  33.194  60.173  1.00  0.00     0.002 A 
HETATM   21  C   UNL     1       5.709  32.144  59.265  1.00  0.00     0.029 A 
ENDBRANCH  13  16
ENDBRANCH  10  12
BRANCH   1  22
HETATM   22  C   UNL     1       7.958  28.989  56.503  1.00  0.00     0.015 A 
HETATM   23  C   UNL     1       8.721  29.605  57.488  1.00  0.00     0.036 A 
HETATM   24  C   UNL     1       8.431  29.872  58.920  1.00  0.00     0.070 C 
HETATM   25  N   UNL     1       9.913  29.931  56.888  1.00  0.00    -0.278 N 
HETATM   26  C   UNL     1      11.082  30.521  57.499  1.00  0.00     0.179 C 
HETATM   27  N   UNL     1       9.942  29.650  55.573  1.00  0.00    -0.185 NA
HETATM   28  C   UNL     1       8.777  29.048  55.348  1.00  0.00     0.150 A 
ENDBRANCH   1  22
TORSDOF 3
ENDMDL
