MODEL 1
REMARK VINA RESULT:      -8.7      0.000      0.000
REMARK  3 active torsions:
REMARK  status: ('A' for Active; 'I' for Inactive)
REMARK    1  A    between atoms: C_3  and  N_4 
REMARK       I    between atoms: N_4  and  C_5 
REMARK       I    between atoms: C_5  and  N_6 
REMARK    2  A    between atoms: N_6  and  C_7 
REMARK    3  A    between atoms: C_15  and  C_16 
ROOT
HETATM    1  N   UNL     1       7.386  25.622  55.070  1.00  0.00    -0.309 N 
HETATM    2  C   UNL     1       6.249  26.367  54.941  1.00  0.00     0.326 C 
HETATM    3  N   UNL     1       6.276  27.619  55.491  1.00  0.00    -0.292 N 
HETATM    4  O   UNL     1       5.212  26.021  54.379  1.00  0.00    -0.247 OA
HETATM    5  H   UNL     1       8.133  26.098  55.570  1.00  0.00     0.170 HD
HETATM    6  H   UNL     1       5.405  28.112  55.357  1.00  0.00     0.172 HD
ENDROOT
BRANCH   1   7
HETATM    7  C   UNL     1       7.644  24.318  54.613  1.00  0.00     0.037 A 
HETATM    8  C   UNL     1       7.756  23.970  53.267  1.00  0.00     0.029 A 
HETATM    9  C   UNL     1       8.013  22.647  52.896  1.00  0.00     0.003 A 
HETATM   10  C   UNL     1       8.162  21.660  53.869  1.00  0.00     0.016 A 
HETATM   11  C   UNL     1       8.060  21.989  55.227  1.00  0.00     0.050 A 
HETATM   12  C   UNL     1       7.794  23.321  55.586  1.00  0.00     0.045 A 
BRANCH  11  13
HETATM   13  C   UNL     1       8.205  20.919  56.279  1.00  0.00     0.417 C 
HETATM   14  F   UNL     1       8.312  21.414  57.545  1.00  0.00    -0.166 F 
HETATM   15  F   UNL     1       7.143  20.066  56.302  1.00  0.00    -0.166 F 
HETATM   16  F   UNL     1       9.306  20.140  56.092  1.00  0.00    -0.166 F 
ENDBRANCH  11  13
ENDBRANCH   1   7
BRANCH   3  17
HETATM   17  C   UNL     1       7.307  28.265  56.181  1.00  0.00     0.148 A 
HETATM   18  N   UNL     1       8.358  28.790  55.506  1.00  0.00    -0.240 NA
HETATM   19  C   UNL     1       9.306  29.396  56.264  1.00  0.00     0.138 A 
HETATM   20  C   UNL     1       9.219  29.480  57.643  1.00  0.00     0.135 A 
HETATM   21  N   UNL     1       8.178  28.962  58.329  1.00  0.00    -0.268 NA
HETATM   22  C   UNL     1       7.231  28.357  57.570  1.00  0.00     0.166 A 
ENDBRANCH   3  17
TORSDOF 3
ENDMDL
MODEL 2
REMARK VINA RESULT:      -8.6      1.366      1.593
REMARK  3 active torsions:
REMARK  status: ('A' for Active; 'I' for Inactive)
REMARK    1  A    between atoms: C_3  and  N_4 
REMARK       I    between atoms: N_4  and  C_5 
REMARK       I    between atoms: C_5  and  N_6 
REMARK    2  A    between atoms: N_6  and  C_7 
REMARK    3  A    between atoms: C_15  and  C_16 
ROOT
HETATM    1  N   UNL     1       6.456  25.000  54.466  1.00  0.00    -0.309 N 
HETATM    2  C   UNL     1       5.267  25.445  53.964  1.00  0.00     0.326 C 
HETATM    3  N   UNL     1       4.862  26.688  54.366  1.00  0.00    -0.292 N 
HETATM    4  O   UNL     1       4.532  24.837  53.187  1.00  0.00    -0.247 OA
HETATM    5  H   UNL     1       6.909  25.662  55.092  1.00  0.00     0.170 HD
HETATM    6  H   UNL     1       3.978  26.951  53.957  1.00  0.00     0.172 HD
ENDROOT
BRANCH   1   7
HETATM    7  C   UNL     1       7.112  23.780  54.232  1.00  0.00     0.037 A 
HETATM    8  C   UNL     1       7.498  23.329  52.970  1.00  0.00     0.029 A 
HETATM    9  C   UNL     1       8.145  22.099  52.824  1.00  0.00     0.003 A 
HETATM   10  C   UNL     1       8.416  21.309  53.941  1.00  0.00     0.016 A 
HETATM   11  C   UNL     1       8.044  21.746  55.219  1.00  0.00     0.050 A 
HETATM   12  C   UNL     1       7.386  22.981  55.350  1.00  0.00     0.045 A 
BRANCH  11  13
HETATM   13  C   UNL     1       8.320  20.885  56.424  1.00  0.00     0.417 C 
HETATM   14  F   UNL     1       8.286  21.573  57.602  1.00  0.00    -0.166 F 
HETATM   15  F   UNL     1       7.417  19.874  56.559  1.00  0.00    -0.166 F 
HETATM   16  F   UNL     1       9.544  20.290  56.380  1.00  0.00    -0.166 F 
ENDBRANCH  11  13
ENDBRANCH   1   7
BRANCH   3  17
HETATM   17  C   UNL     1       5.490  27.590  55.232  1.00  0.00     0.148 A 
HETATM   18  N   UNL     1       6.688  28.131  54.906  1.00  0.00    -0.240 NA
HETATM   19  C   UNL     1       7.215  28.994  55.811  1.00  0.00     0.138 A 
HETATM   20  C   UNL     1       6.578  29.312  56.998  1.00  0.00     0.135 A 
HETATM   21  N   UNL     1       5.384  28.781  57.337  1.00  0.00    -0.268 NA
HETATM   22  C   UNL     1       4.859  27.918  56.432  1.00  0.00     0.166 A 
ENDBRANCH   3  17
TORSDOF 3
ENDMDL
MODEL 3
REMARK VINA RESULT:      -8.0      1.866      2.475
REMARK  3 active torsions:
REMARK  status: ('A' for Active; 'I' for Inactive)
REMARK    1  A    between atoms: C_3  and  N_4 
REMARK       I    between atoms: N_4  and  C_5 
REMARK       I    between atoms: C_5  and  N_6 
REMARK    2  A    between atoms: N_6  and  C_7 
REMARK    3  A    between atoms: C_15  and  C_16 
ROOT
HETATM    1  N   UNL     1       7.306  25.442  55.713  1.00  0.00    -0.309 N 
HETATM    2  C   UNL     1       7.872  25.844  56.889  1.00  0.00     0.326 C 
HETATM    3  N   UNL     1       7.422  27.026  57.409  1.00  0.00    -0.292 N 
HETATM    4  O   UNL     1       8.741  25.245  57.521  1.00  0.00    -0.247 OA
HETATM    5  H   UNL     1       6.602  26.084  55.358  1.00  0.00     0.170 HD
HETATM    6  H   UNL     1       7.883  27.259  58.277  1.00  0.00     0.172 HD
ENDROOT
BRANCH   1   7
HETATM    7  C   UNL     1       7.569  24.288  54.956  1.00  0.00     0.037 A 
HETATM    8  C   UNL     1       7.695  24.277  53.567  1.00  0.00     0.029 A 
HETATM    9  C   UNL     1       7.954  23.083  52.888  1.00  0.00     0.003 A 
HETATM   10  C   UNL     1       8.093  21.889  53.594  1.00  0.00     0.016 A 
HETATM   11  C   UNL     1       7.977  21.878  54.990  1.00  0.00     0.050 A 
HETATM   12  C   UNL     1       7.708  23.084  55.659  1.00  0.00     0.045 A 
BRANCH  11  13
HETATM   13  C   UNL     1       8.109  20.584  55.752  1.00  0.00     0.417 C 
HETATM   14  F   UNL     1       6.921  20.105  56.219  1.00  0.00    -0.166 F 
HETATM   15  F   UNL     1       8.639  19.586  54.992  1.00  0.00    -0.166 F 
HETATM   16  F   UNL     1       8.917  20.694  56.843  1.00  0.00    -0.166 F 
ENDBRANCH  11  13
ENDBRANCH   1   7
BRANCH   3  17
HETATM   17  C   UNL     1       6.455  27.906  56.911  1.00  0.00     0.148 A 
HETATM   18  N   UNL     1       5.229  27.448  56.559  1.00  0.00    -0.240 NA
HETATM   19  C   UNL     1       4.362  28.378  56.087  1.00  0.00     0.138 A 
HETATM   20  C   UNL     1       4.695  29.716  55.966  1.00  0.00     0.135 A 
HETATM   21  N   UNL     1       5.912  30.187  56.312  1.00  0.00    -0.268 NA
HETATM   22  C   UNL     1       6.778  29.256  56.784  1.00  0.00     0.166 A 
ENDBRANCH   3  17
TORSDOF 3
ENDMDL
MODEL 4
REMARK VINA RESULT:      -7.9      3.036      4.445
REMARK  3 active torsions:
REMARK  status: ('A' for Active; 'I' for Inactive)
REMARK    1  A    between atoms: C_3  and  N_4 
REMARK       I    between atoms: N_4  and  C_5 
REMARK       I    between atoms: C_5  and  N_6 
REMARK    2  A    between atoms: N_6  and  C_7 
REMARK    3  A    between atoms: C_15  and  C_16 
ROOT
HETATM    1  N   UNL     1       6.445  25.139  53.981  1.00  0.00    -0.309 N 
HETATM    2  C   UNL     1       5.485  25.857  54.633  1.00  0.00     0.326 C 
HETATM    3  N   UNL     1       4.744  26.717  53.869  1.00  0.00    -0.292 N 
HETATM    4  O   UNL     1       5.224  25.803  55.833  1.00  0.00    -0.247 OA
HETATM    5  H   UNL     1       6.495  25.332  52.984  1.00  0.00     0.170 HD
HETATM    6  H   UNL     1       4.055  27.213  54.415  1.00  0.00     0.172 HD
ENDROOT
BRANCH   1   7
HETATM    7  C   UNL     1       7.346  24.194  54.501  1.00  0.00     0.037 A 
HETATM    8  C   UNL     1       8.173  24.425  55.601  1.00  0.00     0.029 A 
HETATM    9  C   UNL     1       9.044  23.431  56.054  1.00  0.00     0.003 A 
HETATM   10  C   UNL     1       9.095  22.194  55.413  1.00  0.00     0.016 A 
HETATM   11  C   UNL     1       8.268  21.937  54.312  1.00  0.00     0.050 A 
HETATM   12  C   UNL     1       7.403  22.949  53.861  1.00  0.00     0.045 A 
BRANCH  11  13
HETATM   13  C   UNL     1       8.334  20.607  53.607  1.00  0.00     0.417 C 
HETATM   14  F   UNL     1       9.361  20.515  52.714  1.00  0.00    -0.166 F 
HETATM   15  F   UNL     1       8.502  19.569  54.473  1.00  0.00    -0.166 F 
HETATM   16  F   UNL     1       7.204  20.326  52.901  1.00  0.00    -0.166 F 
ENDBRANCH  11  13
ENDBRANCH   1   7
BRANCH   3  17
HETATM   17  C   UNL     1       4.823  26.980  52.498  1.00  0.00     0.148 A 
HETATM   18  N   UNL     1       4.961  25.964  51.612  1.00  0.00    -0.240 NA
HETATM   19  C   UNL     1       5.029  26.322  50.305  1.00  0.00     0.138 A 
HETATM   20  C   UNL     1       4.961  27.639  49.887  1.00  0.00     0.135 A 
HETATM   21  N   UNL     1       4.823  28.662  50.757  1.00  0.00    -0.268 NA
HETATM   22  C   UNL     1       4.756  28.303  52.063  1.00  0.00     0.166 A 
ENDBRANCH   3  17
TORSDOF 3
ENDMDL
MODEL 5
REMARK VINA RESULT:      -7.8      1.641      2.111
REMARK  3 active torsions:
REMARK  status: ('A' for Active; 'I' for Inactive)
REMARK    1  A    between atoms: C_3  and  N_4 
REMARK       I    between atoms: N_4  and  C_5 
REMARK       I    between atoms: C_5  and  N_6 
REMARK    2  A    between atoms: N_6  and  C_7 
REMARK    3  A    between atoms: C_15  and  C_16 
ROOT
HETATM    1  N   UNL     1       6.947  26.359  55.498  1.00  0.00    -0.309 N 
HETATM    2  C   UNL     1       5.897  26.239  56.362  1.00  0.00     0.326 C 
HETATM    3  N   UNL     1       5.785  27.206  57.323  1.00  0.00    -0.292 N 
HETATM    4  O   UNL     1       5.048  25.350  56.357  1.00  0.00    -0.247 OA
HETATM    5  H   UNL     1       7.532  27.172  55.675  1.00  0.00     0.170 HD
HETATM    6  H   UNL     1       4.988  27.054  57.924  1.00  0.00     0.172 HD
ENDROOT
BRANCH   1   7
HETATM    7  C   UNL     1       7.308  25.525  54.426  1.00  0.00     0.037 A 
HETATM    8  C   UNL     1       7.297  25.922  53.089  1.00  0.00     0.029 A 
HETATM    9  C   UNL     1       7.670  25.028  52.081  1.00  0.00     0.003 A 
HETATM   10  C   UNL     1       8.060  23.729  52.403  1.00  0.00     0.016 A 
HETATM   11  C   UNL     1       8.086  23.311  53.740  1.00  0.00     0.050 A 
HETATM   12  C   UNL     1       7.701  24.218  54.742  1.00  0.00     0.045 A 
BRANCH  11  13
HETATM   13  C   UNL     1       8.492  21.902  54.087  1.00  0.00     0.417 C 
HETATM   14  F   UNL     1       9.640  21.832  54.818  1.00  0.00    -0.166 F 
HETATM   15  F   UNL     1       7.544  21.255  54.820  1.00  0.00    -0.166 F 
HETATM   16  F   UNL     1       8.706  21.127  52.987  1.00  0.00    -0.166 F 
ENDBRANCH  11  13
ENDBRANCH   1   7
BRANCH   3  17
HETATM   17  C   UNL     1       6.598  28.319  57.563  1.00  0.00     0.148 A 
HETATM   18  N   UNL     1       7.902  28.156  57.894  1.00  0.00    -0.240 NA
HETATM   19  C   UNL     1       8.606  29.295  58.107  1.00  0.00     0.138 A 
HETATM   20  C   UNL     1       8.042  30.554  57.996  1.00  0.00     0.135 A 
HETATM   21  N   UNL     1       6.745  30.733  57.667  1.00  0.00    -0.268 NA
HETATM   22  C   UNL     1       6.042  29.593  57.454  1.00  0.00     0.166 A 
ENDBRANCH   3  17
TORSDOF 3
ENDMDL
MODEL 6
REMARK VINA RESULT:      -7.7      1.817      2.457
REMARK  3 active torsions:
REMARK  status: ('A' for Active; 'I' for Inactive)
REMARK    1  A    between atoms: C_3  and  N_4 
REMARK       I    between atoms: N_4  and  C_5 
REMARK       I    between atoms: C_5  and  N_6 
REMARK    2  A    between atoms: N_6  and  C_7 
REMARK    3  A    between atoms: C_15  and  C_16 
ROOT
HETATM    1  N   UNL     1       7.208  27.362  55.914  1.00  0.00    -0.309 N 
HETATM    2  C   UNL     1       6.100  27.533  56.693  1.00  0.00     0.326 C 
HETATM    3  N   UNL     1       6.171  28.510  57.647  1.00  0.00    -0.292 N 
HETATM    4  O   UNL     1       5.050  26.896  56.617  1.00  0.00    -0.247 OA
HETATM    5  H   UNL     1       7.970  27.996  56.141  1.00  0.00     0.170 HD
HETATM    6  H   UNL     1       5.319  28.581  58.184  1.00  0.00     0.172 HD
ENDROOT
BRANCH   1   7
HETATM    7  C   UNL     1       7.420  26.446  54.870  1.00  0.00     0.037 A 
HETATM    8  C   UNL     1       7.365  26.778  53.516  1.00  0.00     0.029 A 
HETATM    9  C   UNL     1       7.586  25.804  52.538  1.00  0.00     0.003 A 
HETATM   10  C   UNL     1       7.868  24.489  52.905  1.00  0.00     0.016 A 
HETATM   11  C   UNL     1       7.935  24.135  54.259  1.00  0.00     0.050 A 
HETATM   12  C   UNL     1       7.703  25.122  55.232  1.00  0.00     0.045 A 
BRANCH  11  13
HETATM   13  C   UNL     1       8.223  22.711  54.657  1.00  0.00     0.417 C 
HETATM   14  F   UNL     1       9.380  22.567  55.364  1.00  0.00    -0.166 F 
HETATM   15  F   UNL     1       7.242  22.182  55.440  1.00  0.00    -0.166 F 
HETATM   16  F   UNL     1       8.338  21.875  53.587  1.00  0.00    -0.166 F 
ENDBRANCH  11  13
ENDBRANCH   1   7
BRANCH   3  17
HETATM   17  C   UNL     1       7.226  29.376  57.956  1.00  0.00     0.148 A 
HETATM   18  N   UNL     1       8.502  28.921  57.972  1.00  0.00    -0.240 NA
HETATM   19  C   UNL     1       9.454  29.837  58.283  1.00  0.00     0.138 A 
HETATM   20  C   UNL     1       9.154  31.158  58.568  1.00  0.00     0.135 A 
HETATM   21  N   UNL     1       7.888  31.626  58.555  1.00  0.00    -0.268 NA
HETATM   22  C   UNL     1       6.938  30.709  58.245  1.00  0.00     0.166 A 
ENDBRANCH   3  17
TORSDOF 3
ENDMDL
MODEL 7
REMARK VINA RESULT:      -7.5      3.866      5.493
REMARK  3 active torsions:
REMARK  status: ('A' for Active; 'I' for Inactive)
REMARK    1  A    between atoms: C_3  and  N_4 
REMARK       I    between atoms: N_4  and  C_5 
REMARK       I    between atoms: C_5  and  N_6 
REMARK    2  A    between atoms: N_6  and  C_7 
REMARK    3  A    between atoms: C_15  and  C_16 
ROOT
HETATM    1  N   UNL     1       5.918  26.256  52.829  1.00  0.00    -0.309 N 
HETATM    2  C   UNL     1       6.237  27.580  52.738  1.00  0.00     0.326 C 
HETATM    3  N   UNL     1       5.696  28.265  51.685  1.00  0.00    -0.292 N 
HETATM    4  O   UNL     1       6.958  28.210  53.509  1.00  0.00    -0.247 OA
HETATM    5  H   UNL     1       5.302  25.931  52.087  1.00  0.00     0.170 HD
HETATM    6  H   UNL     1       5.973  29.237  51.681  1.00  0.00     0.172 HD
ENDROOT
BRANCH   1   7
HETATM    7  C   UNL     1       6.323  25.314  53.790  1.00  0.00     0.037 A 
HETATM    8  C   UNL     1       6.121  25.463  55.163  1.00  0.00     0.029 A 
HETATM    9  C   UNL     1       6.558  24.478  56.054  1.00  0.00     0.003 A 
HETATM   10  C   UNL     1       7.198  23.335  55.580  1.00  0.00     0.016 A 
HETATM   11  C   UNL     1       7.405  23.161  54.205  1.00  0.00     0.050 A 
HETATM   12  C   UNL     1       6.969  24.163  53.321  1.00  0.00     0.045 A 
BRANCH  11  13
HETATM   13  C   UNL     1       8.113  21.933  53.694  1.00  0.00     0.417 C 
HETATM   14  F   UNL     1       7.953  21.733  52.354  1.00  0.00    -0.166 F 
HETATM   15  F   UNL     1       9.458  21.983  53.903  1.00  0.00    -0.166 F 
HETATM   16  F   UNL     1       7.684  20.788  54.293  1.00  0.00    -0.166 F 
ENDBRANCH  11  13
ENDBRANCH   1   7
BRANCH   3  17
HETATM   17  C   UNL     1       4.853  27.809  50.666  1.00  0.00     0.148 A 
HETATM   18  N   UNL     1       5.083  26.612  50.072  1.00  0.00    -0.240 NA
HETATM   19  C   UNL     1       4.211  26.259  49.095  1.00  0.00     0.138 A 
HETATM   20  C   UNL     1       3.147  27.060  48.717  1.00  0.00     0.135 A 
HETATM   21  N   UNL     1       2.905  28.254  49.300  1.00  0.00    -0.268 NA
HETATM   22  C   UNL     1       3.778  28.606  50.276  1.00  0.00     0.166 A 
ENDBRANCH   3  17
TORSDOF 3
ENDMDL
MODEL 8
REMARK VINA RESULT:      -7.5      2.758      3.536
REMARK  3 active torsions:
REMARK  status: ('A' for Active; 'I' for Inactive)
REMARK    1  A    between atoms: C_3  and  N_4 
REMARK       I    between atoms: N_4  and  C_5 
REMARK       I    between atoms: C_5  and  N_6 
REMARK    2  A    between atoms: N_6  and  C_7 
REMARK    3  A    between atoms: C_15  and  C_16 
ROOT
HETATM    1  N   UNL     1       6.453  24.651  53.916  1.00  0.00    -0.309 N 
HETATM    2  C   UNL     1       5.806  25.245  54.962  1.00  0.00     0.326 C 
HETATM    3  N   UNL     1       5.170  26.425  54.693  1.00  0.00    -0.292 N 
HETATM    4  O   UNL     1       5.741  24.819  56.114  1.00  0.00    -0.247 OA
HETATM    5  H   UNL     1       6.382  25.169  53.044  1.00  0.00     0.170 HD
HETATM    6  H   UNL     1       4.714  26.806  55.510  1.00  0.00     0.172 HD
ENDROOT
BRANCH   1   7
HETATM    7  C   UNL     1       7.183  23.451  53.896  1.00  0.00     0.037 A 
HETATM    8  C   UNL     1       7.704  22.872  52.739  1.00  0.00     0.029 A 
HETATM    9  C   UNL     1       8.418  21.673  52.806  1.00  0.00     0.003 A 
HETATM   10  C   UNL     1       8.620  21.041  54.032  1.00  0.00     0.016 A 
HETATM   11  C   UNL     1       8.111  21.608  55.208  1.00  0.00     0.050 A 
HETATM   12  C   UNL     1       7.389  22.811  55.125  1.00  0.00     0.045 A 
BRANCH  11  13
HETATM   13  C   UNL     1       8.314  20.918  56.532  1.00  0.00     0.417 C 
HETATM   14  F   UNL     1       7.404  19.933  56.776  1.00  0.00    -0.166 F 
HETATM   15  F   UNL     1       9.537  20.325  56.627  1.00  0.00    -0.166 F 
HETATM   16  F   UNL     1       8.229  21.770  57.591  1.00  0.00    -0.166 F 
ENDBRANCH  11  13
ENDBRANCH   1   7
BRANCH   3  17
HETATM   17  C   UNL     1       5.082  27.134  53.491  1.00  0.00     0.148 A 
HETATM   18  N   UNL     1       4.887  26.476  52.322  1.00  0.00    -0.240 NA
HETATM   19  C   UNL     1       4.815  27.251  51.211  1.00  0.00     0.138 A 
HETATM   20  C   UNL     1       4.931  28.630  51.253  1.00  0.00     0.135 A 
HETATM   21  N   UNL     1       5.124  29.299  52.410  1.00  0.00    -0.268 NA
HETATM   22  C   UNL     1       5.196  28.523  53.519  1.00  0.00     0.166 A 
ENDBRANCH   3  17
TORSDOF 3
ENDMDL
MODEL 9
REMARK VINA RESULT:      -7.4      2.969      4.295
REMARK  3 active torsions:
REMARK  status: ('A' for Active; 'I' for Inactive)
REMARK    1  A    between atoms: C_3  and  N_4 
REMARK       I    between atoms: N_4  and  C_5 
REMARK       I    between atoms: C_5  and  N_6 
REMARK    2  A    between atoms: N_6  and  C_7 
REMARK    3  A    between atoms: C_15  and  C_16 
ROOT
HETATM    1  N   UNL     1       6.768  25.284  53.596  1.00  0.00    -0.309 N 
HETATM    2  C   UNL     1       7.075  25.252  52.266  1.00  0.00     0.326 C 
HETATM    3  N   UNL     1       6.376  26.105  51.458  1.00  0.00    -0.292 N 
HETATM    4  O   UNL     1       7.917  24.533  51.731  1.00  0.00    -0.247 OA
HETATM    5  H   UNL     1       6.040  25.955  53.832  1.00  0.00     0.170 HD
HETATM    6  H   UNL     1       6.655  26.028  50.491  1.00  0.00     0.172 HD
ENDROOT
BRANCH   1   7
HETATM    7  C   UNL     1       7.315  24.529  54.647  1.00  0.00     0.037 A 
HETATM    8  C   UNL     1       7.845  25.082  55.813  1.00  0.00     0.029 A 
HETATM    9  C   UNL     1       8.372  24.259  56.811  1.00  0.00     0.003 A 
HETATM   10  C   UNL     1       8.372  22.874  56.654  1.00  0.00     0.016 A 
HETATM   11  C   UNL     1       7.839  22.296  55.495  1.00  0.00     0.050 A 
HETATM   12  C   UNL     1       7.319  23.136  54.495  1.00  0.00     0.045 A 
BRANCH  11  13
HETATM   13  C   UNL     1       7.854  20.800  55.316  1.00  0.00     0.417 C 
HETATM   14  F   UNL     1       9.090  20.246  55.475  1.00  0.00    -0.166 F 
HETATM   15  F   UNL     1       7.045  20.163  56.207  1.00  0.00    -0.166 F 
HETATM   16  F   UNL     1       7.430  20.411  54.082  1.00  0.00    -0.166 F 
ENDBRANCH  11  13
ENDBRANCH   1   7
BRANCH   3  17
HETATM   17  C   UNL     1       5.372  27.022  51.790  1.00  0.00     0.148 A 
HETATM   18  N   UNL     1       4.685  26.894  52.951  1.00  0.00    -0.240 NA
HETATM   19  C   UNL     1       3.732  27.831  53.183  1.00  0.00     0.138 A 
HETATM   20  C   UNL     1       3.468  28.862  52.297  1.00  0.00     0.135 A 
HETATM   21  N   UNL     1       4.144  29.003  51.137  1.00  0.00    -0.268 NA
HETATM   22  C   UNL     1       5.096  28.064  50.907  1.00  0.00     0.166 A 
ENDBRANCH   3  17
TORSDOF 3
ENDMDL
MODEL 10
REMARK VINA RESULT:      -7.4      2.138      2.871
REMARK  3 active torsions:
REMARK  status: ('A' for Active; 'I' for Inactive)
REMARK    1  A    between atoms: C_3  and  N_4 
REMARK       I    between atoms: N_4  and  C_5 
REMARK       I    between atoms: C_5  and  N_6 
REMARK    2  A    between atoms: N_6  and  C_7 
REMARK    3  A    between atoms: C_15  and  C_16 
ROOT
HETATM    1  N   UNL     1       6.343  25.507  55.295  1.00  0.00    -0.309 N 
HETATM    2  C   UNL     1       5.348  25.735  54.388  1.00  0.00     0.326 C 
HETATM    3  N   UNL     1       4.795  26.986  54.393  1.00  0.00    -0.292 N 
HETATM    4  O   UNL     1       4.907  24.928  53.573  1.00  0.00    -0.247 OA
HETATM    5  H   UNL     1       6.559  26.313  55.877  1.00  0.00     0.170 HD
HETATM    6  H   UNL     1       4.068  27.083  53.699  1.00  0.00     0.172 HD
ENDROOT
BRANCH   1   7
HETATM    7  C   UNL     1       7.083  24.334  55.517  1.00  0.00     0.037 A 
HETATM    8  C   UNL     1       7.651  23.988  56.744  1.00  0.00     0.029 A 
HETATM    9  C   UNL     1       8.375  22.801  56.880  1.00  0.00     0.003 A 
HETATM   10  C   UNL     1       8.537  21.946  55.791  1.00  0.00     0.016 A 
HETATM   11  C   UNL     1       7.969  22.270  54.552  1.00  0.00     0.050 A 
HETATM   12  C   UNL     1       7.250  23.471  54.426  1.00  0.00     0.045 A 
BRANCH  11  13
HETATM   13  C   UNL     1       8.157  21.355  53.369  1.00  0.00     0.417 C 
HETATM   14  F   UNL     1       9.392  20.777  53.320  1.00  0.00    -0.166 F 
HETATM   15  F   UNL     1       7.266  20.325  53.362  1.00  0.00    -0.166 F 
HETATM   16  F   UNL     1       8.000  21.994  52.176  1.00  0.00    -0.166 F 
ENDBRANCH  11  13
ENDBRANCH   1   7
BRANCH   3  17
HETATM   17  C   UNL     1       5.095  28.088  55.201  1.00  0.00     0.148 A 
HETATM   18  N   UNL     1       6.360  28.569  55.261  1.00  0.00    -0.240 NA
HETATM   19  C   UNL     1       6.550  29.639  56.072  1.00  0.00     0.138 A 
HETATM   20  C   UNL     1       5.524  30.215  56.801  1.00  0.00     0.135 A 
HETATM   21  N   UNL     1       4.258  29.748  56.751  1.00  0.00    -0.268 NA
HETATM   22  C   UNL     1       4.070  28.678  55.940  1.00  0.00     0.166 A 
ENDBRANCH   3  17
TORSDOF 3
ENDMDL
