MODEL 1
REMARK VINA RESULT:     -10.0      0.000      0.000
REMARK  3 active torsions:
REMARK  status: ('A' for Active; 'I' for Inactive)
REMARK    1  A    between atoms: C_6  and  C_7 
REMARK    2  A    between atoms: C_14  and  N_15 
REMARK    3  A    between atoms: N_15  and  C_16 
ROOT
HETATM    1  C   UNL     1       4.597  27.801  52.480  1.00  0.00     0.001 A 
HETATM    2  C   UNL     1       4.903  27.332  53.756  1.00  0.00     0.018 A 
HETATM    3  C   UNL     1       5.582  26.099  53.935  1.00  0.00     0.039 A 
HETATM    4  C   UNL     1       5.937  25.339  52.815  1.00  0.00     0.073 A 
HETATM    5  N   UNL     1       6.564  24.162  52.905  1.00  0.00    -0.228 NA
HETATM    6  C   UNL     1       6.850  23.704  54.133  1.00  0.00     0.164 A 
HETATM    7  N   UNL     1       6.553  24.349  55.270  1.00  0.00    -0.210 NA
HETATM    8  C   UNL     1       5.931  25.537  55.176  1.00  0.00     0.143 A 
HETATM    9  C   UNL     1       5.621  25.828  51.553  1.00  0.00     0.032 A 
HETATM   10  C   UNL     1       4.961  27.046  51.374  1.00  0.00     0.002 A 
ENDROOT
BRANCH   8  11
HETATM   11  N   UNL     1       5.645  26.258  56.368  1.00  0.00    -0.340 N 
HETATM   12  H   UNL     1       4.639  26.332  56.470  1.00  0.00     0.167 HD
BRANCH  11  13
HETATM   13  C   UNL     1       6.312  27.408  56.848  1.00  0.00     0.036 A 
HETATM   14  C   UNL     1       7.711  27.476  56.777  1.00  0.00     0.069 A 
HETATM   15  C   UNL     1       8.391  28.624  57.189  1.00  0.00     0.104 A 
HETATM   16  C   UNL     1       7.681  29.723  57.679  1.00  0.00     0.102 A 
HETATM   17  O   UNL     1       9.760  28.598  57.089  1.00  0.00    -0.346 OA
HETATM   18  O   UNL     1       8.284  30.870  58.128  1.00  0.00    -0.346 OA
HETATM   19  C   UNL     1       6.292  29.690  57.710  1.00  0.00     0.042 A 
HETATM   20  C   UNL     1       9.679  30.662  58.369  1.00  0.00     0.202 C 
HETATM   21  C   UNL     1      10.317  29.911  57.212  1.00  0.00     0.202 C 
HETATM   22  C   UNL     1       5.614  28.542  57.290  1.00  0.00     0.032 A 
ENDBRANCH  11  13
ENDBRANCH   8  11
BRANCH   6  23
HETATM   23  C   UNL     1       7.553  22.420  54.246  1.00  0.00     0.029 A 
HETATM   24  C   UNL     1       7.847  21.846  55.483  1.00  0.00     0.131 A 
HETATM   25  N   UNL     1       8.490  20.661  55.666  1.00  0.00    -0.272 NA
HETATM   26  C   UNL     1       8.862  19.999  54.552  1.00  0.00     0.116 A 
HETATM   27  C   UNL     1       8.628  20.464  53.272  1.00  0.00     0.020 A 
HETATM   28  C   UNL     1       7.968  21.684  53.123  1.00  0.00     0.018 A 
ENDBRANCH   6  23
TORSDOF 3
ENDMDL
MODEL 2
REMARK VINA RESULT:      -9.8      3.078      5.795
REMARK  3 active torsions:
REMARK  status: ('A' for Active; 'I' for Inactive)
REMARK    1  A    between atoms: C_6  and  C_7 
REMARK    2  A    between atoms: C_14  and  N_15 
REMARK    3  A    between atoms: N_15  and  C_16 
ROOT
HETATM    1  C   UNL     1       6.573  28.323  56.995  1.00  0.00     0.001 A 
HETATM    2  C   UNL     1       6.014  27.700  55.881  1.00  0.00     0.018 A 
HETATM    3  C   UNL     1       6.418  26.394  55.500  1.00  0.00     0.039 A 
HETATM    4  C   UNL     1       7.399  25.730  56.245  1.00  0.00     0.073 A 
HETATM    5  N   UNL     1       7.839  24.507  55.938  1.00  0.00    -0.228 NA
HETATM    6  C   UNL     1       7.310  23.909  54.860  1.00  0.00     0.164 A 
HETATM    7  N   UNL     1       6.369  24.456  54.076  1.00  0.00    -0.210 NA
HETATM    8  C   UNL     1       5.920  25.682  54.394  1.00  0.00     0.143 A 
HETATM    9  C   UNL     1       7.940  26.373  57.352  1.00  0.00     0.032 A 
HETATM   10  C   UNL     1       7.538  27.655  57.735  1.00  0.00     0.002 A 
ENDROOT
BRANCH   8  11
HETATM   11  N   UNL     1       4.892  26.263  53.602  1.00  0.00    -0.340 N 
HETATM   12  H   UNL     1       4.092  25.640  53.599  1.00  0.00     0.167 HD
BRANCH  11  13
HETATM   13  C   UNL     1       5.045  26.934  52.367  1.00  0.00     0.036 A 
HETATM   14  C   UNL     1       4.767  26.253  51.172  1.00  0.00     0.069 A 
HETATM   15  C   UNL     1       4.852  26.910  49.942  1.00  0.00     0.104 A 
HETATM   16  C   UNL     1       5.216  28.257  49.888  1.00  0.00     0.102 A 
HETATM   17  O   UNL     1       4.569  26.163  48.826  1.00  0.00    -0.346 OA
HETATM   18  O   UNL     1       5.348  28.956  48.716  1.00  0.00    -0.346 OA
HETATM   19  C   UNL     1       5.447  28.958  51.066  1.00  0.00     0.042 A 
HETATM   20  C   UNL     1       5.427  28.073  47.592  1.00  0.00     0.202 C 
HETATM   21  C   UNL     1       4.359  26.996  47.680  1.00  0.00     0.202 C 
HETATM   22  C   UNL     1       5.354  28.300  52.296  1.00  0.00     0.032 A 
ENDBRANCH  11  13
ENDBRANCH   8  11
BRANCH   6  23
HETATM   23  C   UNL     1       7.773  22.558  54.520  1.00  0.00     0.029 A 
HETATM   24  C   UNL     1       8.172  21.646  55.498  1.00  0.00     0.131 A 
HETATM   25  N   UNL     1       8.608  20.380  55.260  1.00  0.00    -0.272 NA
HETATM   26  C   UNL     1       8.648  19.988  53.971  1.00  0.00     0.116 A 
HETATM   27  C   UNL     1       8.279  20.799  52.914  1.00  0.00     0.020 A 
HETATM   28  C   UNL     1       7.840  22.093  53.196  1.00  0.00     0.018 A 
ENDBRANCH   6  23
TORSDOF 3
ENDMDL
MODEL 3
REMARK VINA RESULT:      -9.8      1.831      4.801
REMARK  3 active torsions:
REMARK  status: ('A' for Active; 'I' for Inactive)
REMARK    1  A    between atoms: C_6  and  C_7 
REMARK    2  A    between atoms: C_14  and  N_15 
REMARK    3  A    between atoms: N_15  and  C_16 
ROOT
HETATM    1  C   UNL     1       7.963  22.780  55.258  1.00  0.00     0.001 A 
HETATM    2  C   UNL     1       7.087  23.849  55.433  1.00  0.00     0.018 A 
HETATM    3  C   UNL     1       6.601  24.582  54.319  1.00  0.00     0.039 A 
HETATM    4  C   UNL     1       7.018  24.232  53.030  1.00  0.00     0.073 A 
HETATM    5  N   UNL     1       6.615  24.884  51.935  1.00  0.00    -0.228 NA
HETATM    6  C   UNL     1       5.780  25.920  52.102  1.00  0.00     0.164 A 
HETATM    7  N   UNL     1       5.322  26.340  53.291  1.00  0.00    -0.210 NA
HETATM    8  C   UNL     1       5.721  25.676  54.389  1.00  0.00     0.143 A 
HETATM    9  C   UNL     1       7.892  23.162  52.881  1.00  0.00     0.032 A 
HETATM   10  C   UNL     1       8.364  22.433  53.975  1.00  0.00     0.002 A 
ENDROOT
BRANCH   8  11
HETATM   11  N   UNL     1       5.214  26.077  55.655  1.00  0.00    -0.340 N 
HETATM   12  H   UNL     1       4.227  25.844  55.700  1.00  0.00     0.167 HD
BRANCH  11  13
HETATM   13  C   UNL     1       5.508  27.272  56.351  1.00  0.00     0.036 A 
HETATM   14  C   UNL     1       6.754  27.416  56.980  1.00  0.00     0.069 A 
HETATM   15  C   UNL     1       7.093  28.609  57.622  1.00  0.00     0.104 A 
HETATM   16  C   UNL     1       6.192  29.676  57.646  1.00  0.00     0.102 A 
HETATM   17  O   UNL     1       8.331  28.657  58.215  1.00  0.00    -0.346 OA
HETATM   18  O   UNL     1       6.447  30.863  58.282  1.00  0.00    -0.346 OA
HETATM   19  C   UNL     1       4.974  29.566  56.985  1.00  0.00     0.042 A 
HETATM   20  C   UNL     1       7.544  30.739  59.192  1.00  0.00     0.202 C 
HETATM   21  C   UNL     1       8.702  30.002  58.540  1.00  0.00     0.202 C 
HETATM   22  C   UNL     1       4.640  28.374  56.337  1.00  0.00     0.032 A 
ENDBRANCH  11  13
ENDBRANCH   8  11
BRANCH   6  23
HETATM   23  C   UNL     1       5.316  26.636  50.907  1.00  0.00     0.029 A 
HETATM   24  C   UNL     1       5.475  28.015  50.763  1.00  0.00     0.131 A 
HETATM   25  N   UNL     1       5.076  28.743  49.686  1.00  0.00    -0.272 NA
HETATM   26  C   UNL     1       4.484  28.063  48.684  1.00  0.00     0.116 A 
HETATM   27  C   UNL     1       4.270  26.698  48.709  1.00  0.00     0.020 A 
HETATM   28  C   UNL     1       4.691  25.983  49.831  1.00  0.00     0.018 A 
ENDBRANCH   6  23
TORSDOF 3
ENDMDL
MODEL 4
REMARK VINA RESULT:      -9.0      3.228      7.386
REMARK  3 active torsions:
REMARK  status: ('A' for Active; 'I' for Inactive)
REMARK    1  A    between atoms: C_6  and  C_7 
REMARK    2  A    between atoms: C_14  and  N_15 
REMARK    3  A    between atoms: N_15  and  C_16 
ROOT
HETATM    1  C   UNL     1       7.633  22.537  54.511  1.00  0.00     0.001 A 
HETATM    2  C   UNL     1       6.836  23.637  54.200  1.00  0.00     0.018 A 
HETATM    3  C   UNL     1       6.990  24.866  54.891  1.00  0.00     0.039 A 
HETATM    4  C   UNL     1       7.947  24.970  55.908  1.00  0.00     0.073 A 
HETATM    5  N   UNL     1       8.139  26.089  56.612  1.00  0.00    -0.228 NA
HETATM    6  C   UNL     1       7.366  27.146  56.320  1.00  0.00     0.164 A 
HETATM    7  N   UNL     1       6.420  27.154  55.370  1.00  0.00    -0.210 NA
HETATM    8  C   UNL     1       6.236  26.030  54.656  1.00  0.00     0.143 A 
HETATM    9  C   UNL     1       8.729  23.859  56.200  1.00  0.00     0.032 A 
HETATM   10  C   UNL     1       8.586  22.651  55.514  1.00  0.00     0.002 A 
ENDROOT
BRANCH   8  11
HETATM   11  N   UNL     1       5.268  26.029  53.615  1.00  0.00    -0.340 N 
HETATM   12  H   UNL     1       4.950  25.077  53.466  1.00  0.00     0.167 HD
BRANCH  11  13
HETATM   13  C   UNL     1       5.313  26.766  52.410  1.00  0.00     0.036 A 
HETATM   14  C   UNL     1       4.999  26.130  51.199  1.00  0.00     0.069 A 
HETATM   15  C   UNL     1       4.977  26.849  50.002  1.00  0.00     0.104 A 
HETATM   16  C   UNL     1       5.269  28.215  49.997  1.00  0.00     0.102 A 
HETATM   17  O   UNL     1       4.666  26.143  48.866  1.00  0.00    -0.346 OA
HETATM   18  O   UNL     1       5.295  28.976  48.857  1.00  0.00    -0.346 OA
HETATM   19  C   UNL     1       5.534  28.869  51.194  1.00  0.00     0.042 A 
HETATM   20  C   UNL     1       5.351  28.154  47.686  1.00  0.00     0.202 C 
HETATM   21  C   UNL     1       4.346  27.019  47.779  1.00  0.00     0.202 C 
HETATM   22  C   UNL     1       5.548  28.149  52.392  1.00  0.00     0.032 A 
ENDBRANCH  11  13
ENDBRANCH   8  11
BRANCH   6  23
HETATM   23  C   UNL     1       7.577  28.388  57.075  1.00  0.00     0.029 A 
HETATM   24  C   UNL     1       6.516  29.209  57.457  1.00  0.00     0.131 A 
HETATM   25  N   UNL     1       6.634  30.368  58.159  1.00  0.00    -0.272 NA
HETATM   26  C   UNL     1       7.882  30.737  58.509  1.00  0.00     0.116 A 
HETATM   27  C   UNL     1       9.012  30.009  58.189  1.00  0.00     0.020 A 
HETATM   28  C   UNL     1       8.853  28.826  57.466  1.00  0.00     0.018 A 
ENDBRANCH   6  23
TORSDOF 3
ENDMDL
MODEL 5
REMARK VINA RESULT:      -8.9      3.684      6.561
REMARK  3 active torsions:
REMARK  status: ('A' for Active; 'I' for Inactive)
REMARK    1  A    between atoms: C_6  and  C_7 
REMARK    2  A    between atoms: C_14  and  N_15 
REMARK    3  A    between atoms: N_15  and  C_16 
ROOT
HETATM    1  C   UNL     1       4.588  28.815  55.502  1.00  0.00     0.001 A 
HETATM    2  C   UNL     1       5.084  28.328  54.295  1.00  0.00     0.018 A 
HETATM    3  C   UNL     1       5.638  27.024  54.209  1.00  0.00     0.039 A 
HETATM    4  C   UNL     1       5.697  26.224  55.355  1.00  0.00     0.073 A 
HETATM    5  N   UNL     1       6.218  24.993  55.355  1.00  0.00    -0.228 NA
HETATM    6  C   UNL     1       6.705  24.526  54.195  1.00  0.00     0.164 A 
HETATM    7  N   UNL     1       6.701  25.209  53.042  1.00  0.00    -0.210 NA
HETATM    8  C   UNL     1       6.167  26.443  53.043  1.00  0.00     0.143 A 
HETATM    9  C   UNL     1       5.196  26.732  56.548  1.00  0.00     0.032 A 
HETATM   10  C   UNL     1       4.641  28.012  56.633  1.00  0.00     0.002 A 
ENDROOT
BRANCH   8  11
HETATM   11  N   UNL     1       6.113  27.169  51.821  1.00  0.00    -0.340 N 
HETATM   12  H   UNL     1       6.412  28.122  51.996  1.00  0.00     0.167 HD
BRANCH  11  13
HETATM   13  C   UNL     1       5.103  27.102  50.835  1.00  0.00     0.036 A 
HETATM   14  C   UNL     1       4.318  28.235  50.574  1.00  0.00     0.069 A 
HETATM   15  C   UNL     1       3.353  28.216  49.564  1.00  0.00     0.104 A 
HETATM   16  C   UNL     1       3.158  27.063  48.800  1.00  0.00     0.102 A 
HETATM   17  O   UNL     1       2.628  29.368  49.384  1.00  0.00    -0.346 OA
HETATM   18  O   UNL     1       2.211  26.962  47.815  1.00  0.00    -0.346 OA
HETATM   19  C   UNL     1       3.961  25.948  49.015  1.00  0.00     0.042 A 
HETATM   20  C   UNL     1       1.243  28.012  47.917  1.00  0.00     0.202 C 
HETATM   21  C   UNL     1       1.926  29.352  48.136  1.00  0.00     0.202 C 
HETATM   22  C   UNL     1       4.931  25.973  50.021  1.00  0.00     0.032 A 
ENDBRANCH  11  13
ENDBRANCH   8  11
BRANCH   6  23
HETATM   23  C   UNL     1       7.266  23.169  54.177  1.00  0.00     0.029 A 
HETATM   24  C   UNL     1       7.511  22.455  55.350  1.00  0.00     0.131 A 
HETATM   25  N   UNL     1       8.023  21.196  55.410  1.00  0.00    -0.272 NA
HETATM   26  C   UNL     1       8.307  20.604  54.233  1.00  0.00     0.116 A 
HETATM   27  C   UNL     1       8.109  21.207  53.006  1.00  0.00     0.020 A 
HETATM   28  C   UNL     1       7.584  22.500  52.982  1.00  0.00     0.018 A 
ENDBRANCH   6  23
TORSDOF 3
ENDMDL
MODEL 6
REMARK VINA RESULT:      -8.8      6.539     11.080
REMARK  3 active torsions:
REMARK  status: ('A' for Active; 'I' for Inactive)
REMARK    1  A    between atoms: C_6  and  C_7 
REMARK    2  A    between atoms: C_14  and  N_15 
REMARK    3  A    between atoms: N_15  and  C_16 
ROOT
HETATM    1  C   UNL     1       7.239  33.467  65.013  1.00  0.00     0.001 A 
HETATM    2  C   UNL     1       7.158  32.729  63.834  1.00  0.00     0.018 A 
HETATM    3  C   UNL     1       6.284  33.122  62.788  1.00  0.00     0.039 A 
HETATM    4  C   UNL     1       5.485  34.259  62.948  1.00  0.00     0.073 A 
HETATM    5  N   UNL     1       4.628  34.682  62.013  1.00  0.00    -0.228 NA
HETATM    6  C   UNL     1       4.542  33.967  60.882  1.00  0.00     0.164 A 
HETATM    7  N   UNL     1       5.259  32.863  60.627  1.00  0.00    -0.210 NA
HETATM    8  C   UNL     1       6.127  32.446  61.565  1.00  0.00     0.143 A 
HETATM    9  C   UNL     1       5.583  34.979  64.133  1.00  0.00     0.032 A 
HETATM   10  C   UNL     1       6.449  34.599  65.161  1.00  0.00     0.002 A 
ENDROOT
BRANCH   8  11
HETATM   11  N   UNL     1       6.928  31.302  61.298  1.00  0.00    -0.340 N 
HETATM   12  H   UNL     1       7.165  30.858  62.179  1.00  0.00     0.167 HD
BRANCH  11  13
HETATM   13  C   UNL     1       7.974  31.196  60.353  1.00  0.00     0.036 A 
HETATM   14  C   UNL     1       7.874  30.259  59.314  1.00  0.00     0.069 A 
HETATM   15  C   UNL     1       8.865  30.175  58.333  1.00  0.00     0.104 A 
HETATM   16  C   UNL     1       9.972  31.026  58.377  1.00  0.00     0.102 A 
HETATM   17  O   UNL     1       8.686  29.225  57.358  1.00  0.00    -0.346 OA
HETATM   18  O   UNL     1      10.995  30.980  57.466  1.00  0.00    -0.346 OA
HETATM   19  C   UNL     1      10.061  31.992  59.373  1.00  0.00     0.042 A 
HETATM   20  C   UNL     1      10.970  29.758  56.720  1.00  0.00     0.202 C 
HETATM   21  C   UNL     1       9.560  29.448  56.246  1.00  0.00     0.202 C 
HETATM   22  C   UNL     1       9.064  32.079  60.349  1.00  0.00     0.032 A 
ENDBRANCH  11  13
ENDBRANCH   8  11
BRANCH   6  23
HETATM   23  C   UNL     1       3.617  34.429  59.839  1.00  0.00     0.029 A 
HETATM   24  C   UNL     1       3.521  33.793  58.602  1.00  0.00     0.131 A 
HETATM   25  N   UNL     1       2.687  34.160  57.592  1.00  0.00    -0.272 NA
HETATM   26  C   UNL     1       1.893  35.225  57.823  1.00  0.00     0.116 A 
HETATM   27  C   UNL     1       1.896  35.938  59.007  1.00  0.00     0.020 A 
HETATM   28  C   UNL     1       2.766  35.533  60.020  1.00  0.00     0.018 A 
ENDBRANCH   6  23
TORSDOF 3
ENDMDL
MODEL 7
REMARK VINA RESULT:      -8.8      1.738      2.497
REMARK  3 active torsions:
REMARK  status: ('A' for Active; 'I' for Inactive)
REMARK    1  A    between atoms: C_6  and  C_7 
REMARK    2  A    between atoms: C_14  and  N_15 
REMARK    3  A    between atoms: N_15  and  C_16 
ROOT
HETATM    1  C   UNL     1       5.195  27.886  51.051  1.00  0.00     0.001 A 
HETATM    2  C   UNL     1       6.065  28.059  52.126  1.00  0.00     0.018 A 
HETATM    3  C   UNL     1       6.491  26.950  52.902  1.00  0.00     0.039 A 
HETATM    4  C   UNL     1       6.021  25.669  52.590  1.00  0.00     0.073 A 
HETATM    5  N   UNL     1       6.367  24.581  53.284  1.00  0.00    -0.228 NA
HETATM    6  C   UNL     1       7.197  24.746  54.325  1.00  0.00     0.164 A 
HETATM    7  N   UNL     1       7.702  25.927  54.711  1.00  0.00    -0.210 NA
HETATM    8  C   UNL     1       7.361  27.018  54.005  1.00  0.00     0.143 A 
HETATM    9  C   UNL     1       5.155  25.523  51.513  1.00  0.00     0.032 A 
HETATM   10  C   UNL     1       4.741  26.612  50.742  1.00  0.00     0.002 A 
ENDROOT
BRANCH   8  11
HETATM   11  N   UNL     1       7.919  28.274  54.370  1.00  0.00    -0.340 N 
HETATM   12  H   UNL     1       8.863  28.330  54.004  1.00  0.00     0.167 HD
BRANCH  11  13
HETATM   13  C   UNL     1       7.794  28.931  55.615  1.00  0.00     0.036 A 
HETATM   14  C   UNL     1       6.692  29.768  55.847  1.00  0.00     0.069 A 
HETATM   15  C   UNL     1       6.513  30.382  57.089  1.00  0.00     0.104 A 
HETATM   16  C   UNL     1       7.433  30.169  58.118  1.00  0.00     0.102 A 
HETATM   17  O   UNL     1       5.410  31.188  57.222  1.00  0.00    -0.346 OA
HETATM   18  O   UNL     1       7.336  30.762  59.350  1.00  0.00    -0.346 OA
HETATM   19  C   UNL     1       8.504  29.305  57.919  1.00  0.00     0.042 A 
HETATM   20  C   UNL     1       6.425  31.865  59.325  1.00  0.00     0.202 C 
HETATM   21  C   UNL     1       5.145  31.486  58.598  1.00  0.00     0.202 C 
HETATM   22  C   UNL     1       8.676  28.686  56.678  1.00  0.00     0.032 A 
ENDBRANCH  11  13
ENDBRANCH   8  11
BRANCH   6  23
HETATM   23  C   UNL     1       7.597  23.556  55.087  1.00  0.00     0.029 A 
HETATM   24  C   UNL     1       8.012  23.636  56.416  1.00  0.00     0.131 A 
HETATM   25  N   UNL     1       8.393  22.580  57.184  1.00  0.00    -0.272 NA
HETATM   26  C   UNL     1       8.358  21.365  56.600  1.00  0.00     0.116 A 
HETATM   27  C   UNL     1       7.966  21.158  55.291  1.00  0.00     0.020 A 
HETATM   28  C   UNL     1       7.584  22.265  54.532  1.00  0.00     0.018 A 
ENDBRANCH   6  23
TORSDOF 3
ENDMDL
MODEL 8
REMARK VINA RESULT:      -8.7      3.655      7.534
REMARK  3 active torsions:
REMARK  status: ('A' for Active; 'I' for Inactive)
REMARK    1  A    between atoms: C_6  and  C_7 
REMARK    2  A    between atoms: C_14  and  N_15 
REMARK    3  A    between atoms: N_15  and  C_16 
ROOT
HETATM    1  C   UNL     1       6.902  24.160  54.893  1.00  0.00     0.001 A 
HETATM    2  C   UNL     1       6.965  25.456  54.384  1.00  0.00     0.018 A 
HETATM    3  C   UNL     1       7.410  26.534  55.192  1.00  0.00     0.039 A 
HETATM    4  C   UNL     1       7.777  26.294  56.521  1.00  0.00     0.073 A 
HETATM    5  N   UNL     1       8.191  27.260  57.345  1.00  0.00    -0.228 NA
HETATM    6  C   UNL     1       8.243  28.510  56.860  1.00  0.00     0.164 A 
HETATM    7  N   UNL     1       7.912  28.850  55.606  1.00  0.00    -0.210 NA
HETATM    8  C   UNL     1       7.506  27.874  54.776  1.00  0.00     0.143 A 
HETATM    9  C   UNL     1       7.705  24.993  57.006  1.00  0.00     0.032 A 
HETATM   10  C   UNL     1       7.276  23.928  56.210  1.00  0.00     0.002 A 
ENDROOT
BRANCH   8  11
HETATM   11  N   UNL     1       7.191  28.205  53.429  1.00  0.00    -0.340 N 
HETATM   12  H   UNL     1       7.884  28.862  53.085  1.00  0.00     0.167 HD
BRANCH  11  13
HETATM   13  C   UNL     1       5.909  28.458  52.892  1.00  0.00     0.036 A 
HETATM   14  C   UNL     1       5.677  28.241  51.525  1.00  0.00     0.069 A 
HETATM   15  C   UNL     1       4.404  28.426  50.981  1.00  0.00     0.104 A 
HETATM   16  C   UNL     1       3.343  28.830  51.794  1.00  0.00     0.102 A 
HETATM   17  O   UNL     1       4.273  28.196  49.634  1.00  0.00    -0.346 OA
HETATM   18  O   UNL     1       2.077  29.059  51.323  1.00  0.00    -0.346 OA
HETATM   19  C   UNL     1       3.546  29.002  53.159  1.00  0.00     0.042 A 
HETATM   20  C   UNL     1       2.069  29.187  49.897  1.00  0.00     0.202 C 
HETATM   21  C   UNL     1       2.896  28.086  49.255  1.00  0.00     0.202 C 
HETATM   22  C   UNL     1       4.819  28.810  53.702  1.00  0.00     0.032 A 
ENDBRANCH  11  13
ENDBRANCH   8  11
BRANCH   6  23
HETATM   23  C   UNL     1       8.711  29.580  57.751  1.00  0.00     0.029 A 
HETATM   24  C   UNL     1       8.036  29.911  58.926  1.00  0.00     0.131 A 
HETATM   25  N   UNL     1       8.412  30.884  59.799  1.00  0.00    -0.272 NA
HETATM   26  C   UNL     1       9.529  31.571  59.492  1.00  0.00     0.116 A 
HETATM   27  C   UNL     1      10.284  31.337  58.358  1.00  0.00     0.020 A 
HETATM   28  C   UNL     1       9.867  30.333  57.483  1.00  0.00     0.018 A 
ENDBRANCH   6  23
TORSDOF 3
ENDMDL
MODEL 9
REMARK VINA RESULT:      -8.7      3.412      8.648
REMARK  3 active torsions:
REMARK  status: ('A' for Active; 'I' for Inactive)
REMARK    1  A    between atoms: C_6  and  C_7 
REMARK    2  A    between atoms: C_14  and  N_15 
REMARK    3  A    between atoms: N_15  and  C_16 
ROOT
HETATM    1  C   UNL     1      10.840  29.531  56.767  1.00  0.00     0.001 A 
HETATM    2  C   UNL     1       9.517  29.234  56.448  1.00  0.00     0.018 A 
HETATM    3  C   UNL     1       8.445  29.908  57.087  1.00  0.00     0.039 A 
HETATM    4  C   UNL     1       8.721  30.876  58.059  1.00  0.00     0.073 A 
HETATM    5  N   UNL     1       7.764  31.542  58.713  1.00  0.00    -0.228 NA
HETATM    6  C   UNL     1       6.490  31.249  58.414  1.00  0.00     0.164 A 
HETATM    7  N   UNL     1       6.115  30.339  57.504  1.00  0.00    -0.210 NA
HETATM    8  C   UNL     1       7.079  29.679  56.840  1.00  0.00     0.143 A 
HETATM    9  C   UNL     1      10.049  31.156  58.359  1.00  0.00     0.032 A 
HETATM   10  C   UNL     1      11.106  30.499  57.725  1.00  0.00     0.002 A 
ENDROOT
BRANCH   8  11
HETATM   11  N   UNL     1       6.705  28.740  55.840  1.00  0.00    -0.340 N 
HETATM   12  H   UNL     1       5.812  29.020  55.448  1.00  0.00     0.167 HD
BRANCH  11  13
HETATM   13  C   UNL     1       6.839  27.334  55.898  1.00  0.00     0.036 A 
HETATM   14  C   UNL     1       7.284  26.635  54.766  1.00  0.00     0.069 A 
HETATM   15  C   UNL     1       7.483  25.254  54.814  1.00  0.00     0.104 A 
HETATM   16  C   UNL     1       7.240  24.549  55.995  1.00  0.00     0.102 A 
HETATM   17  O   UNL     1       7.914  24.654  53.656  1.00  0.00    -0.346 OA
HETATM   18  O   UNL     1       7.386  23.191  56.106  1.00  0.00    -0.346 OA
HETATM   19  C   UNL     1       6.846  25.234  57.139  1.00  0.00     0.042 A 
HETATM   20  C   UNL     1       7.453  22.570  54.819  1.00  0.00     0.202 C 
HETATM   21  C   UNL     1       8.399  23.330  53.905  1.00  0.00     0.202 C 
HETATM   22  C   UNL     1       6.655  26.618  57.090  1.00  0.00     0.032 A 
ENDBRANCH  11  13
ENDBRANCH   8  11
BRANCH   6  23
HETATM   23  C   UNL     1       5.428  31.984  59.114  1.00  0.00     0.029 A 
HETATM   24  C   UNL     1       4.098  31.938  58.695  1.00  0.00     0.131 A 
HETATM   25  N   UNL     1       3.064  32.587  59.294  1.00  0.00    -0.272 NA
HETATM   26  C   UNL     1       3.363  33.328  60.379  1.00  0.00     0.116 A 
HETATM   27  C   UNL     1       4.642  33.453  60.889  1.00  0.00     0.020 A 
HETATM   28  C   UNL     1       5.679  32.775  60.248  1.00  0.00     0.018 A 
ENDBRANCH   6  23
TORSDOF 3
ENDMDL
MODEL 10
REMARK VINA RESULT:      -8.6      3.046      7.023
REMARK  3 active torsions:
REMARK  status: ('A' for Active; 'I' for Inactive)
REMARK    1  A    between atoms: C_6  and  C_7 
REMARK    2  A    between atoms: C_14  and  N_15 
REMARK    3  A    between atoms: N_15  and  C_16 
ROOT
HETATM    1  C   UNL     1       6.261  29.403  57.435  1.00  0.00     0.001 A 
HETATM    2  C   UNL     1       6.736  28.339  56.672  1.00  0.00     0.018 A 
HETATM    3  C   UNL     1       6.260  28.119  55.354  1.00  0.00     0.039 A 
HETATM    4  C   UNL     1       5.293  28.977  54.819  1.00  0.00     0.073 A 
HETATM    5  N   UNL     1       4.788  28.824  53.591  1.00  0.00    -0.228 NA
HETATM    6  C   UNL     1       5.236  27.794  52.859  1.00  0.00     0.164 A 
HETATM    7  N   UNL     1       6.157  26.913  53.275  1.00  0.00    -0.210 NA
HETATM    8  C   UNL     1       6.671  27.075  54.506  1.00  0.00     0.143 A 
HETATM    9  C   UNL     1       4.835  30.032  55.599  1.00  0.00     0.032 A 
HETATM   10  C   UNL     1       5.308  30.255  56.894  1.00  0.00     0.002 A 
ENDROOT
BRANCH   8  11
HETATM   11  N   UNL     1       7.681  26.177  54.952  1.00  0.00    -0.340 N 
HETATM   12  H   UNL     1       8.567  26.670  54.975  1.00  0.00     0.167 HD
BRANCH  11  13
HETATM   13  C   UNL     1       7.837  24.822  54.585  1.00  0.00     0.036 A 
HETATM   14  C   UNL     1       7.948  23.844  55.584  1.00  0.00     0.069 A 
HETATM   15  C   UNL     1       8.044  22.491  55.250  1.00  0.00     0.104 A 
HETATM   16  C   UNL     1       8.030  22.096  53.910  1.00  0.00     0.102 A 
HETATM   17  O   UNL     1       8.155  21.606  56.293  1.00  0.00    -0.346 OA
HETATM   18  O   UNL     1       8.150  20.790  53.508  1.00  0.00    -0.346 OA
HETATM   19  C   UNL     1       7.872  23.048  52.910  1.00  0.00     0.042 A 
HETATM   20  C   UNL     1       8.643  19.964  54.568  1.00  0.00     0.202 C 
HETATM   21  C   UNL     1       7.909  20.261  55.865  1.00  0.00     0.202 C 
HETATM   22  C   UNL     1       7.769  24.401  53.248  1.00  0.00     0.032 A 
ENDBRANCH  11  13
ENDBRANCH   8  11
BRANCH   6  23
HETATM   23  C   UNL     1       4.701  27.624  51.502  1.00  0.00     0.029 A 
HETATM   24  C   UNL     1       3.808  28.537  50.940  1.00  0.00     0.131 A 
HETATM   25  N   UNL     1       3.276  28.448  49.692  1.00  0.00    -0.272 NA
HETATM   26  C   UNL     1       3.653  27.388  48.949  1.00  0.00     0.116 A 
HETATM   27  C   UNL     1       4.530  26.417  49.394  1.00  0.00     0.020 A 
HETATM   28  C   UNL     1       5.055  26.539  50.681  1.00  0.00     0.018 A 
ENDBRANCH   6  23
TORSDOF 3
ENDMDL
