MODEL 1
REMARK VINA RESULT:      -8.8      0.000      0.000
REMARK  11 active torsions:
REMARK  status: ('A' for Active; 'I' for Inactive)
REMARK    1  A    between atoms: C_2  and  O_3 
REMARK    2  A    between atoms: O_3  and  C_4 
REMARK    3  A    between atoms: C_5  and  O_6 
REMARK    4  A    between atoms: C_9  and  C_10 
REMARK    5  A    between atoms: N_11  and  C_12 
REMARK    6  A    between atoms: C_12  and  C_13 
REMARK    7  A    between atoms: C_13  and  C_14 
REMARK    8  A    between atoms: C_14  and  N_15 
REMARK    9  A    between atoms: C_27  and  O_28 
REMARK   10  A    between atoms: C_27  and  C_29 
REMARK   11  A    between atoms: C_30  and  C_31 
ROOT
HETATM    1  C   UNL     1       5.288  27.429  54.049  1.00  0.00     0.161 C 
HETATM    2  N   UNL     1       4.364  28.568  54.017  1.00  0.00    -0.332 N 
HETATM    3  C   UNL     1       4.291  29.173  52.784  1.00  0.00     0.295 C 
HETATM    4  O   UNL     1       3.632  30.155  52.501  1.00  0.00    -0.264 OA
HETATM    5  C   UNL     1       5.623  27.178  52.600  1.00  0.00     0.058 C 
HETATM    6  C   UNL     1       5.192  28.371  51.842  1.00  0.00     0.250 C 
HETATM    7  O   UNL     1       5.464  28.659  50.699  1.00  0.00    -0.282 OA
HETATM    8  C   UNL     1       6.011  26.059  51.969  1.00  0.00     0.078 C 
ENDROOT
BRANCH   1   9
HETATM    9  C   UNL     1       6.500  27.750  54.910  1.00  0.00    -0.028 A 
HETATM   10  C   UNL     1       7.426  28.709  54.463  1.00  0.00     0.012 A 
HETATM   11  C   UNL     1       8.563  29.004  55.215  1.00  0.00     0.040 A 
HETATM   12  C   UNL     1       8.789  28.330  56.405  1.00  0.00     0.099 A 
HETATM   13  C   UNL     1       7.900  27.365  56.878  1.00  0.00     0.102 A 
HETATM   14  C   UNL     1       6.740  27.100  56.144  1.00  0.00     0.049 A 
BRANCH  12  15
HETATM   15  O   UNL     1       9.924  28.629  57.107  1.00  0.00    -0.358 OA
HETATM   16  H   UNL     1      10.105  29.574  56.934  1.00  0.00     0.218 HD
ENDBRANCH  12  15
BRANCH  13  17
HETATM   17  O   UNL     1       8.269  26.758  58.049  1.00  0.00    -0.349 OA
BRANCH  17  18
HETATM   18  C   UNL     1       8.011  25.361  58.171  1.00  0.00     0.171 C 
HETATM   19  C   UNL     1       9.152  24.608  57.511  1.00  0.00     0.034 C 
ENDBRANCH  17  18
ENDBRANCH  13  17
ENDBRANCH   1   9
BRANCH   2  20
HETATM   20  C   UNL     1       3.485  28.894  55.127  1.00  0.00     0.129 C 
BRANCH  20  21
HETATM   21  C   UNL     1       3.831  30.183  55.876  1.00  0.00     0.048 C 
BRANCH  21  22
HETATM   22  C   UNL     1       3.553  30.225  57.380  1.00  0.00     0.236 C 
BRANCH  22  23
HETATM   23  N   UNL     1       4.722  30.660  58.220  1.00  0.00    -0.067 N 
HETATM   24  H   UNL     1       4.719  30.077  59.083  1.00  0.00     0.280 HD
HETATM   25  C   UNL     1       6.078  30.552  57.546  1.00  0.00     0.261 C 
HETATM   26  C   UNL     1       7.179  31.024  58.504  1.00  0.00     0.195 C 
HETATM   27  O   UNL     1       6.936  32.365  58.945  1.00  0.00    -0.388 OA
HETATM   28  C   UNL     1       5.698  32.464  59.659  1.00  0.00     0.195 C 
HETATM   29  C   UNL     1       4.522  32.083  58.755  1.00  0.00     0.261 C 
ENDBRANCH  22  23
ENDBRANCH  21  22
ENDBRANCH  20  21
ENDBRANCH   2  20
BRANCH   8  30
HETATM   30  O   UNL     1       6.192  25.993  50.601  1.00  0.00    -0.360 OA
HETATM   31  H   UNL     1       5.489  25.450  50.188  1.00  0.00     0.217 HD
ENDBRANCH   8  30
BRANCH   8  32
HETATM   32  C   UNL     1       6.206  24.793  52.651  1.00  0.00     0.038 C 
HETATM   33  C   UNL     1       7.364  24.396  53.203  1.00  0.00     0.014 C 
BRANCH  33  34
HETATM   34  C   UNL     1       7.534  23.040  53.730  1.00  0.00    -0.036 A 
HETATM   35  C   UNL     1       7.400  22.826  55.106  1.00  0.00     0.011 A 
HETATM   36  C   UNL     1       7.582  21.550  55.643  1.00  0.00     0.001 A 
HETATM   37  C   UNL     1       7.890  20.480  54.805  1.00  0.00     0.000 A 
HETATM   38  C   UNL     1       8.015  20.684  53.430  1.00  0.00     0.001 A 
HETATM   39  C   UNL     1       7.839  21.962  52.893  1.00  0.00     0.011 A 
ENDBRANCH  33  34
ENDBRANCH   8  32
TORSDOF 11
ENDMDL
MODEL 2
REMARK VINA RESULT:      -8.7      1.411      2.141
REMARK  11 active torsions:
REMARK  status: ('A' for Active; 'I' for Inactive)
REMARK    1  A    between atoms: C_2  and  O_3 
REMARK    2  A    between atoms: O_3  and  C_4 
REMARK    3  A    between atoms: C_5  and  O_6 
REMARK    4  A    between atoms: C_9  and  C_10 
REMARK    5  A    between atoms: N_11  and  C_12 
REMARK    6  A    between atoms: C_12  and  C_13 
REMARK    7  A    between atoms: C_13  and  C_14 
REMARK    8  A    between atoms: C_14  and  N_15 
REMARK    9  A    between atoms: C_27  and  O_28 
REMARK   10  A    between atoms: C_27  and  C_29 
REMARK   11  A    between atoms: C_30  and  C_31 
ROOT
HETATM    1  C   UNL     1       6.054  27.562  54.802  1.00  0.00     0.161 C 
HETATM    2  N   UNL     1       4.930  28.498  54.902  1.00  0.00    -0.332 N 
HETATM    3  C   UNL     1       4.461  28.917  53.679  1.00  0.00     0.295 C 
HETATM    4  O   UNL     1       3.567  29.718  53.485  1.00  0.00    -0.264 OA
HETATM    5  C   UNL     1       6.105  27.194  53.340  1.00  0.00     0.058 C 
HETATM    6  C   UNL     1       5.278  28.181  52.615  1.00  0.00     0.250 C 
HETATM    7  O   UNL     1       5.224  28.365  51.420  1.00  0.00    -0.282 OA
HETATM    8  C   UNL     1       6.568  26.094  52.727  1.00  0.00     0.078 C 
ENDROOT
BRANCH   1   9
HETATM    9  C   UNL     1       7.333  28.208  55.314  1.00  0.00    -0.028 A 
HETATM   10  C   UNL     1       8.337  28.565  54.398  1.00  0.00     0.012 A 
HETATM   11  C   UNL     1       9.533  29.132  54.838  1.00  0.00     0.040 A 
HETATM   12  C   UNL     1       9.739  29.324  56.196  1.00  0.00     0.099 A 
HETATM   13  C   UNL     1       8.771  28.973  57.138  1.00  0.00     0.102 A 
HETATM   14  C   UNL     1       7.557  28.444  56.691  1.00  0.00     0.049 A 
BRANCH  12  15
HETATM   15  O   UNL     1      10.930  29.863  56.595  1.00  0.00    -0.358 OA
HETATM   16  H   UNL     1      11.288  30.330  55.815  1.00  0.00     0.218 HD
ENDBRANCH  12  15
BRANCH  13  17
HETATM   17  O   UNL     1       9.125  29.190  58.443  1.00  0.00    -0.349 OA
BRANCH  17  18
HETATM   18  C   UNL     1       8.421  30.207  59.152  1.00  0.00     0.171 C 
HETATM   19  C   UNL     1       9.375  31.361  59.396  1.00  0.00     0.034 C 
ENDBRANCH  17  18
ENDBRANCH  13  17
ENDBRANCH   1   9
BRANCH   2  20
HETATM   20  C   UNL     1       4.270  28.797  56.162  1.00  0.00     0.129 C 
BRANCH  20  21
HETATM   21  C   UNL     1       4.537  30.196  56.722  1.00  0.00     0.048 C 
BRANCH  21  22
HETATM   22  C   UNL     1       3.579  30.726  57.791  1.00  0.00     0.236 C 
BRANCH  22  23
HETATM   23  N   UNL     1       4.251  31.251  59.029  1.00  0.00    -0.067 N 
HETATM   24  H   UNL     1       4.659  30.436  59.532  1.00  0.00     0.280 HD
HETATM   25  C   UNL     1       5.338  32.284  58.785  1.00  0.00     0.261 C 
HETATM   26  C   UNL     1       5.940  32.737  60.121  1.00  0.00     0.195 C 
HETATM   27  O   UNL     1       4.929  33.259  60.990  1.00  0.00    -0.388 OA
HETATM   28  C   UNL     1       3.942  32.267  61.298  1.00  0.00     0.195 C 
HETATM   29  C   UNL     1       3.226  31.805  60.025  1.00  0.00     0.261 C 
ENDBRANCH  22  23
ENDBRANCH  21  22
ENDBRANCH  20  21
ENDBRANCH   2  20
BRANCH   8  30
HETATM   30  O   UNL     1       6.451  25.887  51.365  1.00  0.00    -0.360 OA
HETATM   31  H   UNL     1       5.840  26.542  50.970  1.00  0.00     0.217 HD
ENDBRANCH   8  30
BRANCH   8  32
HETATM   32  C   UNL     1       7.169  24.982  53.441  1.00  0.00     0.038 C 
HETATM   33  C   UNL     1       7.199  23.717  52.993  1.00  0.00     0.014 C 
BRANCH  33  34
HETATM   34  C   UNL     1       7.674  22.618  53.837  1.00  0.00    -0.036 A 
HETATM   35  C   UNL     1       8.012  21.400  53.237  1.00  0.00     0.011 A 
HETATM   36  C   UNL     1       8.444  20.325  54.016  1.00  0.00     0.001 A 
HETATM   37  C   UNL     1       8.547  20.466  55.399  1.00  0.00     0.000 A 
HETATM   38  C   UNL     1       8.221  21.680  56.003  1.00  0.00     0.001 A 
HETATM   39  C   UNL     1       7.784  22.755  55.224  1.00  0.00     0.011 A 
ENDBRANCH  33  34
ENDBRANCH   8  32
TORSDOF 11
ENDMDL
MODEL 3
REMARK VINA RESULT:      -8.5      1.582      2.455
REMARK  11 active torsions:
REMARK  status: ('A' for Active; 'I' for Inactive)
REMARK    1  A    between atoms: C_2  and  O_3 
REMARK    2  A    between atoms: O_3  and  C_4 
REMARK    3  A    between atoms: C_5  and  O_6 
REMARK    4  A    between atoms: C_9  and  C_10 
REMARK    5  A    between atoms: N_11  and  C_12 
REMARK    6  A    between atoms: C_12  and  C_13 
REMARK    7  A    between atoms: C_13  and  C_14 
REMARK    8  A    between atoms: C_14  and  N_15 
REMARK    9  A    between atoms: C_27  and  O_28 
REMARK   10  A    between atoms: C_27  and  C_29 
REMARK   11  A    between atoms: C_30  and  C_31 
ROOT
HETATM    1  C   UNL     1       6.003  27.368  54.677  1.00  0.00     0.161 C 
HETATM    2  N   UNL     1       4.841  28.261  54.705  1.00  0.00    -0.332 N 
HETATM    3  C   UNL     1       4.431  28.658  53.453  1.00  0.00     0.295 C 
HETATM    4  O   UNL     1       3.520  29.425  53.202  1.00  0.00    -0.264 OA
HETATM    5  C   UNL     1       6.156  26.997  53.223  1.00  0.00     0.058 C 
HETATM    6  C   UNL     1       5.337  27.950  52.444  1.00  0.00     0.250 C 
HETATM    7  O   UNL     1       5.349  28.128  51.248  1.00  0.00    -0.282 OA
HETATM    8  C   UNL     1       6.695  25.913  52.644  1.00  0.00     0.078 C 
ENDROOT
BRANCH   1   9
HETATM    9  C   UNL     1       7.224  28.062  55.262  1.00  0.00    -0.028 A 
HETATM   10  C   UNL     1       8.257  28.476  54.403  1.00  0.00     0.012 A 
HETATM   11  C   UNL     1       9.402  29.088  54.910  1.00  0.00     0.040 A 
HETATM   12  C   UNL     1       9.528  29.272  56.279  1.00  0.00     0.099 A 
HETATM   13  C   UNL     1       8.530  28.867  57.166  1.00  0.00     0.102 A 
HETATM   14  C   UNL     1       7.366  28.290  56.651  1.00  0.00     0.049 A 
BRANCH  12  15
HETATM   15  O   UNL     1      10.673  29.858  56.745  1.00  0.00    -0.358 OA
HETATM   16  H   UNL     1      10.575  30.814  56.570  1.00  0.00     0.218 HD
ENDBRANCH  12  15
BRANCH  13  17
HETATM   17  O   UNL     1       8.807  29.081  58.490  1.00  0.00    -0.349 OA
BRANCH  17  18
HETATM   18  C   UNL     1       8.125  30.155  59.135  1.00  0.00     0.171 C 
HETATM   19  C   UNL     1       9.164  31.120  59.676  1.00  0.00     0.034 C 
ENDBRANCH  17  18
ENDBRANCH  13  17
ENDBRANCH   1   9
BRANCH   2  20
HETATM   20  C   UNL     1       4.095  28.538  55.922  1.00  0.00     0.129 C 
BRANCH  20  21
HETATM   21  C   UNL     1       4.293  29.941  56.501  1.00  0.00     0.048 C 
BRANCH  21  22
HETATM   22  C   UNL     1       3.113  30.912  56.426  1.00  0.00     0.236 C 
BRANCH  22  23
HETATM   23  N   UNL     1       3.500  32.362  56.344  1.00  0.00    -0.067 N 
HETATM   24  H   UNL     1       2.681  32.882  55.967  1.00  0.00     0.280 HD
HETATM   25  C   UNL     1       3.932  32.990  57.657  1.00  0.00     0.261 C 
HETATM   26  C   UNL     1       4.298  34.463  57.438  1.00  0.00     0.195 C 
HETATM   27  O   UNL     1       5.326  34.596  56.449  1.00  0.00    -0.388 OA
HETATM   28  C   UNL     1       4.899  34.085  55.181  1.00  0.00     0.195 C 
HETATM   29  C   UNL     1       4.582  32.590  55.282  1.00  0.00     0.261 C 
ENDBRANCH  22  23
ENDBRANCH  21  22
ENDBRANCH  20  21
ENDBRANCH   2  20
BRANCH   8  30
HETATM   30  O   UNL     1       6.668  25.698  51.280  1.00  0.00    -0.360 OA
HETATM   31  H   UNL     1       7.180  26.389  50.812  1.00  0.00     0.217 HD
ENDBRANCH   8  30
BRANCH   8  32
HETATM   32  C   UNL     1       7.293  24.827  53.400  1.00  0.00     0.038 C 
HETATM   33  C   UNL     1       7.468  23.581  52.931  1.00  0.00     0.014 C 
BRANCH  33  34
HETATM   34  C   UNL     1       7.925  22.495  53.801  1.00  0.00    -0.036 A 
HETATM   35  C   UNL     1       8.211  21.248  53.234  1.00  0.00     0.011 A 
HETATM   36  C   UNL     1       8.624  20.185  54.039  1.00  0.00     0.001 A 
HETATM   37  C   UNL     1       8.762  20.366  55.414  1.00  0.00     0.000 A 
HETATM   38  C   UNL     1       8.488  21.610  55.985  1.00  0.00     0.001 A 
HETATM   39  C   UNL     1       8.069  22.673  55.181  1.00  0.00     0.011 A 
ENDBRANCH  33  34
ENDBRANCH   8  32
TORSDOF 11
ENDMDL
MODEL 4
REMARK VINA RESULT:      -8.5      2.678      8.307
REMARK  11 active torsions:
REMARK  status: ('A' for Active; 'I' for Inactive)
REMARK    1  A    between atoms: C_2  and  O_3 
REMARK    2  A    between atoms: O_3  and  C_4 
REMARK    3  A    between atoms: C_5  and  O_6 
REMARK    4  A    between atoms: C_9  and  C_10 
REMARK    5  A    between atoms: N_11  and  C_12 
REMARK    6  A    between atoms: C_12  and  C_13 
REMARK    7  A    between atoms: C_13  and  C_14 
REMARK    8  A    between atoms: C_14  and  N_15 
REMARK    9  A    between atoms: C_27  and  O_28 
REMARK   10  A    between atoms: C_27  and  C_29 
REMARK   11  A    between atoms: C_30  and  C_31 
ROOT
HETATM    1  C   UNL     1       6.670  28.179  56.494  1.00  0.00     0.161 C 
HETATM    2  N   UNL     1       6.528  27.057  55.561  1.00  0.00    -0.332 N 
HETATM    3  C   UNL     1       7.410  27.112  54.507  1.00  0.00     0.295 C 
HETATM    4  O   UNL     1       7.474  26.329  53.579  1.00  0.00    -0.264 OA
HETATM    5  C   UNL     1       7.951  28.855  56.074  1.00  0.00     0.058 C 
HETATM    6  C   UNL     1       8.292  28.342  54.730  1.00  0.00     0.250 C 
HETATM    7  O   UNL     1       9.118  28.777  53.960  1.00  0.00    -0.282 OA
HETATM    8  C   UNL     1       8.821  29.601  56.772  1.00  0.00     0.078 C 
ENDROOT
BRANCH   1   9
HETATM    9  C   UNL     1       5.450  29.085  56.428  1.00  0.00    -0.028 A 
HETATM   10  C   UNL     1       4.875  29.373  55.178  1.00  0.00     0.012 A 
HETATM   11  C   UNL     1       3.774  30.224  55.081  1.00  0.00     0.040 A 
HETATM   12  C   UNL     1       3.257  30.806  56.229  1.00  0.00     0.099 A 
HETATM   13  C   UNL     1       3.806  30.553  57.486  1.00  0.00     0.102 A 
HETATM   14  C   UNL     1       4.883  29.668  57.586  1.00  0.00     0.049 A 
BRANCH  12  15
HETATM   15  O   UNL     1       2.190  31.650  56.095  1.00  0.00    -0.358 OA
HETATM   16  H   UNL     1       1.406  31.140  56.376  1.00  0.00     0.218 HD
ENDBRANCH  12  15
BRANCH  13  17
HETATM   17  O   UNL     1       3.214  31.223  58.524  1.00  0.00    -0.349 OA
BRANCH  17  18
HETATM   18  C   UNL     1       4.057  32.014  59.358  1.00  0.00     0.171 C 
HETATM   19  C   UNL     1       4.460  33.256  58.584  1.00  0.00     0.034 C 
ENDBRANCH  17  18
ENDBRANCH  13  17
ENDBRANCH   1   9
BRANCH   2  20
HETATM   20  C   UNL     1       5.670  25.915  55.834  1.00  0.00     0.129 C 
BRANCH  20  21
HETATM   21  C   UNL     1       6.216  24.920  56.860  1.00  0.00     0.048 C 
BRANCH  21  22
HETATM   22  C   UNL     1       7.582  24.290  56.578  1.00  0.00     0.236 C 
BRANCH  22  23
HETATM   23  N   UNL     1       7.525  22.955  55.889  1.00  0.00    -0.067 N 
HETATM   24  H   UNL     1       6.543  22.614  55.950  1.00  0.00     0.280 HD
HETATM   25  C   UNL     1       7.964  22.959  54.435  1.00  0.00     0.261 C 
HETATM   26  C   UNL     1       7.859  21.545  53.852  1.00  0.00     0.195 C 
HETATM   27  O   UNL     1       8.637  20.616  54.614  1.00  0.00    -0.388 OA
HETATM   28  C   UNL     1       8.178  20.537  55.968  1.00  0.00     0.195 C 
HETATM   29  C   UNL     1       8.316  21.895  56.664  1.00  0.00     0.261 C 
ENDBRANCH  22  23
ENDBRANCH  21  22
ENDBRANCH  20  21
ENDBRANCH   2  20
BRANCH   8  30
HETATM   30  O   UNL     1      10.005  30.073  56.237  1.00  0.00    -0.360 OA
HETATM   31  H   UNL     1       9.835  30.837  55.649  1.00  0.00     0.217 HD
ENDBRANCH   8  30
BRANCH   8  32
HETATM   32  C   UNL     1       8.641  29.921  58.176  1.00  0.00     0.038 C 
HETATM   33  C   UNL     1       8.174  31.092  58.636  1.00  0.00     0.014 C 
BRANCH  33  34
HETATM   34  C   UNL     1       8.173  31.406  60.067  1.00  0.00    -0.036 A 
HETATM   35  C   UNL     1       8.838  30.548  60.949  1.00  0.00     0.011 A 
HETATM   36  C   UNL     1       8.834  30.804  62.321  1.00  0.00     0.001 A 
HETATM   37  C   UNL     1       8.171  31.925  62.817  1.00  0.00     0.000 A 
HETATM   38  C   UNL     1       7.514  32.791  61.942  1.00  0.00     0.001 A 
HETATM   39  C   UNL     1       7.513  32.532  60.569  1.00  0.00     0.011 A 
ENDBRANCH  33  34
ENDBRANCH   8  32
TORSDOF 11
ENDMDL
MODEL 5
REMARK VINA RESULT:      -8.3      2.736      8.964
REMARK  11 active torsions:
REMARK  status: ('A' for Active; 'I' for Inactive)
REMARK    1  A    between atoms: C_2  and  O_3 
REMARK    2  A    between atoms: O_3  and  C_4 
REMARK    3  A    between atoms: C_5  and  O_6 
REMARK    4  A    between atoms: C_9  and  C_10 
REMARK    5  A    between atoms: N_11  and  C_12 
REMARK    6  A    between atoms: C_12  and  C_13 
REMARK    7  A    between atoms: C_13  and  C_14 
REMARK    8  A    between atoms: C_14  and  N_15 
REMARK    9  A    between atoms: C_27  and  O_28 
REMARK   10  A    between atoms: C_27  and  C_29 
REMARK   11  A    between atoms: C_30  and  C_31 
ROOT
HETATM    1  C   UNL     1       6.607  29.474  57.634  1.00  0.00     0.161 C 
HETATM    2  N   UNL     1       6.540  28.338  56.709  1.00  0.00    -0.332 N 
HETATM    3  C   UNL     1       7.633  28.248  55.878  1.00  0.00     0.295 C 
HETATM    4  O   UNL     1       7.804  27.425  55.000  1.00  0.00    -0.264 OA
HETATM    5  C   UNL     1       8.022  29.980  57.502  1.00  0.00     0.058 C 
HETATM    6  C   UNL     1       8.586  29.376  56.277  1.00  0.00     0.250 C 
HETATM    7  O   UNL     1       9.608  29.681  55.705  1.00  0.00    -0.282 OA
HETATM    8  C   UNL     1       8.800  30.649  58.366  1.00  0.00     0.078 C 
ENDROOT
BRANCH   1   9
HETATM    9  C   UNL     1       5.552  30.511  57.283  1.00  0.00    -0.028 A 
HETATM   10  C   UNL     1       5.358  30.867  55.937  1.00  0.00     0.012 A 
HETATM   11  C   UNL     1       4.419  31.836  55.585  1.00  0.00     0.040 A 
HETATM   12  C   UNL     1       3.684  32.467  56.578  1.00  0.00     0.099 A 
HETATM   13  C   UNL     1       3.854  32.150  57.926  1.00  0.00     0.102 A 
HETATM   14  C   UNL     1       4.766  31.149  58.272  1.00  0.00     0.049 A 
BRANCH  12  15
HETATM   15  O   UNL     1       2.787  33.427  56.200  1.00  0.00    -0.358 OA
HETATM   16  H   UNL     1       1.923  32.976  56.134  1.00  0.00     0.218 HD
ENDBRANCH  12  15
BRANCH  13  17
HETATM   17  O   UNL     1       3.085  32.877  58.795  1.00  0.00    -0.349 OA
BRANCH  17  18
HETATM   18  C   UNL     1       3.208  32.579  60.184  1.00  0.00     0.171 C 
HETATM   19  C   UNL     1       2.785  33.805  60.972  1.00  0.00     0.034 C 
ENDBRANCH  17  18
ENDBRANCH  13  17
ENDBRANCH   1   9
BRANCH   2  20
HETATM   20  C   UNL     1       5.510  27.316  56.799  1.00  0.00     0.129 C 
BRANCH  20  21
HETATM   21  C   UNL     1       6.009  25.920  57.180  1.00  0.00     0.048 C 
BRANCH  21  22
HETATM   22  C   UNL     1       5.782  24.788  56.176  1.00  0.00     0.236 C 
BRANCH  22  23
HETATM   23  N   UNL     1       7.004  24.386  55.398  1.00  0.00    -0.067 N 
HETATM   24  H   UNL     1       7.651  25.201  55.393  1.00  0.00     0.280 HD
HETATM   25  C   UNL     1       7.737  23.167  55.932  1.00  0.00     0.261 C 
HETATM   26  C   UNL     1       8.958  22.865  55.054  1.00  0.00     0.195 C 
HETATM   27  O   UNL     1       8.573  22.669  53.689  1.00  0.00    -0.388 OA
HETATM   28  C   UNL     1       7.957  23.843  53.146  1.00  0.00     0.195 C 
HETATM   29  C   UNL     1       6.677  24.184  53.914  1.00  0.00     0.261 C 
ENDBRANCH  22  23
ENDBRANCH  21  22
ENDBRANCH  20  21
ENDBRANCH   2  20
BRANCH   8  30
HETATM   30  O   UNL     1      10.121  30.958  58.104  1.00  0.00    -0.360 OA
HETATM   31  H   UNL     1      10.316  30.853  57.150  1.00  0.00     0.217 HD
ENDBRANCH   8  30
BRANCH   8  32
HETATM   32  C   UNL     1       8.355  31.044  59.690  1.00  0.00     0.038 C 
HETATM   33  C   UNL     1       7.841  32.247  59.992  1.00  0.00     0.014 C 
BRANCH  33  34
HETATM   34  C   UNL     1       7.565  32.635  61.377  1.00  0.00    -0.036 A 
HETATM   35  C   UNL     1       6.500  33.504  61.639  1.00  0.00     0.011 A 
HETATM   36  C   UNL     1       6.227  33.913  62.945  1.00  0.00     0.001 A 
HETATM   37  C   UNL     1       7.013  33.448  63.998  1.00  0.00     0.000 A 
HETATM   38  C   UNL     1       8.071  32.574  63.746  1.00  0.00     0.001 A 
HETATM   39  C   UNL     1       8.348  32.168  62.438  1.00  0.00     0.011 A 
ENDBRANCH  33  34
ENDBRANCH   8  32
TORSDOF 11
ENDMDL
MODEL 6
REMARK VINA RESULT:      -8.2      2.582      8.353
REMARK  11 active torsions:
REMARK  status: ('A' for Active; 'I' for Inactive)
REMARK    1  A    between atoms: C_2  and  O_3 
REMARK    2  A    between atoms: O_3  and  C_4 
REMARK    3  A    between atoms: C_5  and  O_6 
REMARK    4  A    between atoms: C_9  and  C_10 
REMARK    5  A    between atoms: N_11  and  C_12 
REMARK    6  A    between atoms: C_12  and  C_13 
REMARK    7  A    between atoms: C_13  and  C_14 
REMARK    8  A    between atoms: C_14  and  N_15 
REMARK    9  A    between atoms: C_27  and  O_28 
REMARK   10  A    between atoms: C_27  and  C_29 
REMARK   11  A    between atoms: C_30  and  C_31 
ROOT
HETATM    1  C   UNL     1       6.696  28.240  56.420  1.00  0.00     0.161 C 
HETATM    2  N   UNL     1       6.580  27.125  55.476  1.00  0.00    -0.332 N 
HETATM    3  C   UNL     1       7.509  27.172  54.463  1.00  0.00     0.295 C 
HETATM    4  O   UNL     1       7.603  26.392  53.534  1.00  0.00    -0.264 OA
HETATM    5  C   UNL     1       8.003  28.901  56.061  1.00  0.00     0.058 C 
HETATM    6  C   UNL     1       8.397  28.388  54.732  1.00  0.00     0.250 C 
HETATM    7  O   UNL     1       9.263  28.815  54.002  1.00  0.00    -0.282 OA
HETATM    8  C   UNL     1       8.852  29.631  56.801  1.00  0.00     0.078 C 
ENDROOT
BRANCH   1   9
HETATM    9  C   UNL     1       5.493  29.165  56.304  1.00  0.00    -0.028 A 
HETATM   10  C   UNL     1       4.860  29.620  57.474  1.00  0.00     0.012 A 
HETATM   11  C   UNL     1       3.738  30.444  57.401  1.00  0.00     0.040 A 
HETATM   12  C   UNL     1       3.231  30.801  56.160  1.00  0.00     0.099 A 
HETATM   13  C   UNL     1       3.824  30.361  54.976  1.00  0.00     0.102 A 
HETATM   14  C   UNL     1       4.973  29.569  55.051  1.00  0.00     0.049 A 
BRANCH  12  15
HETATM   15  O   UNL     1       2.118  31.593  56.124  1.00  0.00    -0.358 OA
HETATM   16  H   UNL     1       1.868  31.663  55.183  1.00  0.00     0.218 HD
ENDBRANCH  12  15
BRANCH  13  17
HETATM   17  O   UNL     1       3.196  30.764  53.827  1.00  0.00    -0.349 OA
BRANCH  17  18
HETATM   18  C   UNL     1       3.766  30.346  52.589  1.00  0.00     0.171 C 
HETATM   19  C   UNL     1       3.007  29.123  52.107  1.00  0.00     0.034 C 
ENDBRANCH  17  18
ENDBRANCH  13  17
ENDBRANCH   1   9
BRANCH   2  20
HETATM   20  C   UNL     1       5.694  25.995  55.705  1.00  0.00     0.129 C 
BRANCH  20  21
HETATM   21  C   UNL     1       6.158  25.011  56.781  1.00  0.00     0.048 C 
BRANCH  21  22
HETATM   22  C   UNL     1       7.530  24.356  56.598  1.00  0.00     0.236 C 
BRANCH  22  23
HETATM   23  N   UNL     1       7.499  23.023  55.904  1.00  0.00    -0.067 N 
HETATM   24  H   UNL     1       6.524  22.662  55.964  1.00  0.00     0.280 HD
HETATM   25  C   UNL     1       7.937  23.042  54.450  1.00  0.00     0.261 C 
HETATM   26  C   UNL     1       7.861  21.628  53.861  1.00  0.00     0.195 C 
HETATM   27  O   UNL     1       8.658  20.711  54.620  1.00  0.00    -0.388 OA
HETATM   28  C   UNL     1       8.200  20.619  55.974  1.00  0.00     0.195 C 
HETATM   29  C   UNL     1       8.312  21.976  56.675  1.00  0.00     0.261 C 
ENDBRANCH  22  23
ENDBRANCH  21  22
ENDBRANCH  20  21
ENDBRANCH   2  20
BRANCH   8  30
HETATM   30  O   UNL     1      10.065  30.088  56.321  1.00  0.00    -0.360 OA
HETATM   31  H   UNL     1       9.928  30.808  55.672  1.00  0.00     0.217 HD
ENDBRANCH   8  30
BRANCH   8  32
HETATM   32  C   UNL     1       8.614  29.947  58.198  1.00  0.00     0.038 C 
HETATM   33  C   UNL     1       8.102  31.107  58.638  1.00  0.00     0.014 C 
BRANCH  33  34
HETATM   34  C   UNL     1       8.042  31.422  60.068  1.00  0.00    -0.036 A 
HETATM   35  C   UNL     1       7.172  32.427  60.505  1.00  0.00     0.011 A 
HETATM   36  C   UNL     1       7.110  32.768  61.857  1.00  0.00     0.001 A 
HETATM   37  C   UNL     1       7.912  32.101  62.780  1.00  0.00     0.000 A 
HETATM   38  C   UNL     1       8.775  31.091  62.353  1.00  0.00     0.001 A 
HETATM   39  C   UNL     1       8.842  30.752  60.999  1.00  0.00     0.011 A 
ENDBRANCH  33  34
ENDBRANCH   8  32
TORSDOF 11
ENDMDL
MODEL 7
REMARK VINA RESULT:      -7.9      2.599      8.988
REMARK  11 active torsions:
REMARK  status: ('A' for Active; 'I' for Inactive)
REMARK    1  A    between atoms: C_2  and  O_3 
REMARK    2  A    between atoms: O_3  and  C_4 
REMARK    3  A    between atoms: C_5  and  O_6 
REMARK    4  A    between atoms: C_9  and  C_10 
REMARK    5  A    between atoms: N_11  and  C_12 
REMARK    6  A    between atoms: C_12  and  C_13 
REMARK    7  A    between atoms: C_13  and  C_14 
REMARK    8  A    between atoms: C_14  and  N_15 
REMARK    9  A    between atoms: C_27  and  O_28 
REMARK   10  A    between atoms: C_27  and  C_29 
REMARK   11  A    between atoms: C_30  and  C_31 
ROOT
HETATM    1  C   UNL     1       7.550  29.855  58.392  1.00  0.00     0.161 C 
HETATM    2  N   UNL     1       7.894  28.576  57.762  1.00  0.00    -0.332 N 
HETATM    3  C   UNL     1       9.089  28.610  57.082  1.00  0.00     0.295 C 
HETATM    4  O   UNL     1       9.581  27.699  56.445  1.00  0.00    -0.264 OA
HETATM    5  C   UNL     1       8.807  30.680  58.275  1.00  0.00     0.058 C 
HETATM    6  C   UNL     1       9.677  30.008  57.287  1.00  0.00     0.250 C 
HETATM    7  O   UNL     1      10.671  30.448  56.757  1.00  0.00    -0.282 OA
HETATM    8  C   UNL     1       9.265  31.695  59.024  1.00  0.00     0.078 C 
ENDROOT
BRANCH   1   9
HETATM    9  C   UNL     1       6.343  30.479  57.707  1.00  0.00    -0.028 A 
HETATM   10  C   UNL     1       6.201  30.352  56.315  1.00  0.00     0.012 A 
HETATM   11  C   UNL     1       5.122  30.938  55.654  1.00  0.00     0.040 A 
HETATM   12  C   UNL     1       4.192  31.669  56.378  1.00  0.00     0.099 A 
HETATM   13  C   UNL     1       4.304  31.827  57.759  1.00  0.00     0.102 A 
HETATM   14  C   UNL     1       5.363  31.205  58.425  1.00  0.00     0.049 A 
BRANCH  12  15
HETATM   15  O   UNL     1       3.158  32.247  55.695  1.00  0.00    -0.358 OA
HETATM   16  H   UNL     1       2.428  32.335  56.338  1.00  0.00     0.218 HD
ENDBRANCH  12  15
BRANCH  13  17
HETATM   17  O   UNL     1       3.333  32.603  58.336  1.00  0.00    -0.349 OA
BRANCH  17  18
HETATM   18  C   UNL     1       3.664  33.959  58.623  1.00  0.00     0.171 C 
HETATM   19  C   UNL     1       3.990  34.065  60.102  1.00  0.00     0.034 C 
ENDBRANCH  17  18
ENDBRANCH  13  17
ENDBRANCH   1   9
BRANCH   2  20
HETATM   20  C   UNL     1       7.135  27.359  57.997  1.00  0.00     0.129 C 
BRANCH  20  21
HETATM   21  C   UNL     1       6.619  26.659  56.738  1.00  0.00     0.048 C 
BRANCH  21  22
HETATM   22  C   UNL     1       5.152  26.872  56.359  1.00  0.00     0.236 C 
BRANCH  22  23
HETATM   23  N   UNL     1       4.822  26.549  54.929  1.00  0.00    -0.067 N 
HETATM   24  H   UNL     1       3.810  26.305  54.890  1.00  0.00     0.280 HD
HETATM   25  C   UNL     1       5.107  27.660  53.933  1.00  0.00     0.261 C 
HETATM   26  C   UNL     1       4.728  27.205  52.518  1.00  0.00     0.195 C 
HETATM   27  O   UNL     1       5.427  26.009  52.158  1.00  0.00    -0.388 OA
HETATM   28  C   UNL     1       5.100  24.928  53.039  1.00  0.00     0.195 C 
HETATM   29  C   UNL     1       5.515  25.259  54.476  1.00  0.00     0.261 C 
ENDBRANCH  22  23
ENDBRANCH  21  22
ENDBRANCH  20  21
ENDBRANCH   2  20
BRANCH   8  30
HETATM   30  O   UNL     1      10.499  32.282  58.819  1.00  0.00    -0.360 OA
HETATM   31  H   UNL     1      10.442  32.965  58.119  1.00  0.00     0.217 HD
ENDBRANCH   8  30
BRANCH   8  32
HETATM   32  C   UNL     1       8.544  32.223  60.168  1.00  0.00     0.038 C 
HETATM   33  C   UNL     1       8.471  31.620  61.365  1.00  0.00     0.014 C 
BRANCH  33  34
HETATM   34  C   UNL     1       7.593  32.126  62.423  1.00  0.00    -0.036 A 
HETATM   35  C   UNL     1       8.161  32.798  63.512  1.00  0.00     0.011 A 
HETATM   36  C   UNL     1       7.355  33.269  64.549  1.00  0.00     0.001 A 
HETATM   37  C   UNL     1       5.975  33.079  64.498  1.00  0.00     0.000 A 
HETATM   38  C   UNL     1       5.401  32.420  63.411  1.00  0.00     0.001 A 
HETATM   39  C   UNL     1       6.208  31.942  62.376  1.00  0.00     0.011 A 
ENDBRANCH  33  34
ENDBRANCH   8  32
TORSDOF 11
ENDMDL
MODEL 8
REMARK VINA RESULT:      -7.9      2.609      8.914
REMARK  11 active torsions:
REMARK  status: ('A' for Active; 'I' for Inactive)
REMARK    1  A    between atoms: C_2  and  O_3 
REMARK    2  A    between atoms: O_3  and  C_4 
REMARK    3  A    between atoms: C_5  and  O_6 
REMARK    4  A    between atoms: C_9  and  C_10 
REMARK    5  A    between atoms: N_11  and  C_12 
REMARK    6  A    between atoms: C_12  and  C_13 
REMARK    7  A    between atoms: C_13  and  C_14 
REMARK    8  A    between atoms: C_14  and  N_15 
REMARK    9  A    between atoms: C_27  and  O_28 
REMARK   10  A    between atoms: C_27  and  C_29 
REMARK   11  A    between atoms: C_30  and  C_31 
ROOT
HETATM    1  C   UNL     1       6.919  29.463  57.768  1.00  0.00     0.161 C 
HETATM    2  N   UNL     1       6.952  28.303  56.872  1.00  0.00    -0.332 N 
HETATM    3  C   UNL     1       8.054  28.285  56.049  1.00  0.00     0.295 C 
HETATM    4  O   UNL     1       8.299  27.457  55.192  1.00  0.00    -0.264 OA
HETATM    5  C   UNL     1       8.286  30.083  57.630  1.00  0.00     0.058 C 
HETATM    6  C   UNL     1       8.908  29.498  56.423  1.00  0.00     0.250 C 
HETATM    7  O   UNL     1       9.904  29.874  55.848  1.00  0.00    -0.282 OA
HETATM    8  C   UNL     1       9.001  30.836  58.480  1.00  0.00     0.078 C 
ENDROOT
BRANCH   1   9
HETATM    9  C   UNL     1       5.782  30.400  57.386  1.00  0.00    -0.028 A 
HETATM   10  C   UNL     1       4.964  30.936  58.396  1.00  0.00     0.012 A 
HETATM   11  C   UNL     1       3.896  31.774  58.077  1.00  0.00     0.040 A 
HETATM   12  C   UNL     1       3.629  32.064  56.747  1.00  0.00     0.099 A 
HETATM   13  C   UNL     1       4.411  31.543  55.715  1.00  0.00     0.102 A 
HETATM   14  C   UNL     1       5.506  30.737  56.040  1.00  0.00     0.049 A 
BRANCH  12  15
HETATM   15  O   UNL     1       2.563  32.872  56.468  1.00  0.00    -0.358 OA
HETATM   16  H   UNL     1       2.689  33.678  57.005  1.00  0.00     0.218 HD
ENDBRANCH  12  15
BRANCH  13  17
HETATM   17  O   UNL     1       4.009  31.887  54.452  1.00  0.00    -0.349 OA
BRANCH  17  18
HETATM   18  C   UNL     1       3.407  30.868  53.657  1.00  0.00     0.171 C 
HETATM   19  C   UNL     1       3.914  31.015  52.234  1.00  0.00     0.034 C 
ENDBRANCH  17  18
ENDBRANCH  13  17
ENDBRANCH   1   9
BRANCH   2  20
HETATM   20  C   UNL     1       6.011  27.201  56.983  1.00  0.00     0.129 C 
BRANCH  20  21
HETATM   21  C   UNL     1       5.270  26.845  55.693  1.00  0.00     0.048 C 
BRANCH  21  22
HETATM   22  C   UNL     1       5.299  25.383  55.240  1.00  0.00     0.236 C 
BRANCH  22  23
HETATM   23  N   UNL     1       6.647  24.895  54.788  1.00  0.00    -0.067 N 
HETATM   24  H   UNL     1       7.265  25.728  54.694  1.00  0.00     0.280 HD
HETATM   25  C   UNL     1       7.309  23.883  55.707  1.00  0.00     0.261 C 
HETATM   26  C   UNL     1       8.670  23.468  55.136  1.00  0.00     0.195 C 
HETATM   27  O   UNL     1       8.533  22.938  53.813  1.00  0.00    -0.388 OA
HETATM   28  C   UNL     1       7.990  23.913  52.915  1.00  0.00     0.195 C 
HETATM   29  C   UNL     1       6.587  24.336  53.362  1.00  0.00     0.261 C 
ENDBRANCH  22  23
ENDBRANCH  21  22
ENDBRANCH  20  21
ENDBRANCH   2  20
BRANCH   8  30
HETATM   30  O   UNL     1      10.293  31.248  58.216  1.00  0.00    -0.360 OA
HETATM   31  H   UNL     1      10.568  30.964  57.320  1.00  0.00     0.217 HD
ENDBRANCH   8  30
BRANCH   8  32
HETATM   32  C   UNL     1       8.515  31.226  59.792  1.00  0.00     0.038 C 
HETATM   33  C   UNL     1       7.849  32.362  60.049  1.00  0.00     0.014 C 
BRANCH  33  34
HETATM   34  C   UNL     1       7.533  32.769  61.420  1.00  0.00    -0.036 A 
HETATM   35  C   UNL     1       8.329  32.294  62.469  1.00  0.00     0.011 A 
HETATM   36  C   UNL     1       8.040  32.641  63.789  1.00  0.00     0.001 A 
HETATM   37  C   UNL     1       6.956  33.473  64.068  1.00  0.00     0.000 A 
HETATM   38  C   UNL     1       6.164  33.959  63.027  1.00  0.00     0.001 A 
HETATM   39  C   UNL     1       6.450  33.607  61.705  1.00  0.00     0.011 A 
ENDBRANCH  33  34
ENDBRANCH   8  32
TORSDOF 11
ENDMDL
MODEL 9
REMARK VINA RESULT:      -7.8      2.754      5.726
REMARK  11 active torsions:
REMARK  status: ('A' for Active; 'I' for Inactive)
REMARK    1  A    between atoms: C_2  and  O_3 
REMARK    2  A    between atoms: O_3  and  C_4 
REMARK    3  A    between atoms: C_5  and  O_6 
REMARK    4  A    between atoms: C_9  and  C_10 
REMARK    5  A    between atoms: N_11  and  C_12 
REMARK    6  A    between atoms: C_12  and  C_13 
REMARK    7  A    between atoms: C_13  and  C_14 
REMARK    8  A    between atoms: C_14  and  N_15 
REMARK    9  A    between atoms: C_27  and  O_28 
REMARK   10  A    between atoms: C_27  and  C_29 
REMARK   11  A    between atoms: C_30  and  C_31 
ROOT
HETATM    1  C   UNL     1       6.579  28.036  54.993  1.00  0.00     0.161 C 
HETATM    2  N   UNL     1       7.337  28.104  56.246  1.00  0.00    -0.332 N 
HETATM    3  C   UNL     1       7.276  26.943  56.982  1.00  0.00     0.295 C 
HETATM    4  O   UNL     1       7.783  26.752  58.071  1.00  0.00    -0.264 OA
HETATM    5  C   UNL     1       6.221  26.578  54.851  1.00  0.00     0.058 C 
HETATM    6  C   UNL     1       6.454  25.943  56.165  1.00  0.00     0.250 C 
HETATM    7  O   UNL     1       6.098  24.846  56.530  1.00  0.00    -0.282 OA
HETATM    8  C   UNL     1       5.962  25.838  53.762  1.00  0.00     0.078 C 
ENDROOT
BRANCH   1   9
HETATM    9  C   UNL     1       5.370  28.958  55.050  1.00  0.00    -0.028 A 
HETATM   10  C   UNL     1       4.901  29.550  53.865  1.00  0.00     0.012 A 
HETATM   11  C   UNL     1       3.814  30.423  53.888  1.00  0.00     0.040 A 
HETATM   12  C   UNL     1       3.204  30.724  55.097  1.00  0.00     0.099 A 
HETATM   13  C   UNL     1       3.647  30.166  56.296  1.00  0.00     0.102 A 
HETATM   14  C   UNL     1       4.710  29.259  56.266  1.00  0.00     0.049 A 
BRANCH  12  15
HETATM   15  O   UNL     1       2.154  31.600  55.086  1.00  0.00    -0.358 OA
HETATM   16  H   UNL     1       1.542  31.293  55.782  1.00  0.00     0.218 HD
ENDBRANCH  12  15
BRANCH  13  17
HETATM   17  O   UNL     1       2.972  30.580  57.414  1.00  0.00    -0.349 OA
BRANCH  17  18
HETATM   18  C   UNL     1       3.736  31.195  58.449  1.00  0.00     0.171 C 
HETATM   19  C   UNL     1       3.853  32.676  58.136  1.00  0.00     0.034 C 
ENDBRANCH  17  18
ENDBRANCH  13  17
ENDBRANCH   1   9
BRANCH   2  20
HETATM   20  C   UNL     1       8.209  29.220  56.574  1.00  0.00     0.129 C 
BRANCH  20  21
HETATM   21  C   UNL     1       8.326  29.539  58.066  1.00  0.00     0.048 C 
BRANCH  21  22
HETATM   22  C   UNL     1       7.457  30.670  58.619  1.00  0.00     0.236 C 
BRANCH  22  23
HETATM   23  N   UNL     1       7.475  30.798  60.117  1.00  0.00    -0.067 N 
HETATM   24  H   UNL     1       6.826  30.079  60.499  1.00  0.00     0.280 HD
HETATM   25  C   UNL     1       8.840  30.635  60.763  1.00  0.00     0.261 C 
HETATM   26  C   UNL     1       8.720  30.788  62.284  1.00  0.00     0.195 C 
HETATM   27  O   UNL     1       8.142  32.051  62.631  1.00  0.00    -0.388 OA
HETATM   28  C   UNL     1       6.819  32.182  62.099  1.00  0.00     0.195 C 
HETATM   29  C   UNL     1       6.843  32.120  60.569  1.00  0.00     0.261 C 
ENDBRANCH  22  23
ENDBRANCH  21  22
ENDBRANCH  20  21
ENDBRANCH   2  20
BRANCH   8  30
HETATM   30  O   UNL     1       5.736  24.476  53.814  1.00  0.00    -0.360 OA
HETATM   31  H   UNL     1       6.207  24.079  54.576  1.00  0.00     0.217 HD
ENDBRANCH   8  30
BRANCH   8  32
HETATM   32  C   UNL     1       5.970  26.382  52.416  1.00  0.00     0.038 C 
HETATM   33  C   UNL     1       4.868  26.708  51.721  1.00  0.00     0.014 C 
BRANCH  33  34
HETATM   34  C   UNL     1       4.942  27.096  50.310  1.00  0.00    -0.036 A 
HETATM   35  C   UNL     1       4.521  26.187  49.334  1.00  0.00     0.011 A 
HETATM   36  C   UNL     1       4.603  26.516  47.980  1.00  0.00     0.001 A 
HETATM   37  C   UNL     1       5.098  27.761  47.596  1.00  0.00     0.000 A 
HETATM   38  C   UNL     1       5.510  28.677  48.564  1.00  0.00     0.001 A 
HETATM   39  C   UNL     1       5.434  28.346  49.919  1.00  0.00     0.011 A 
ENDBRANCH  33  34
ENDBRANCH   8  32
TORSDOF 11
ENDMDL
MODEL 10
REMARK VINA RESULT:      -7.7      4.631      8.265
REMARK  11 active torsions:
REMARK  status: ('A' for Active; 'I' for Inactive)
REMARK    1  A    between atoms: C_2  and  O_3 
REMARK    2  A    between atoms: O_3  and  C_4 
REMARK    3  A    between atoms: C_5  and  O_6 
REMARK    4  A    between atoms: C_9  and  C_10 
REMARK    5  A    between atoms: N_11  and  C_12 
REMARK    6  A    between atoms: C_12  and  C_13 
REMARK    7  A    between atoms: C_13  and  C_14 
REMARK    8  A    between atoms: C_14  and  N_15 
REMARK    9  A    between atoms: C_27  and  O_28 
REMARK   10  A    between atoms: C_27  and  C_29 
REMARK   11  A    between atoms: C_30  and  C_31 
ROOT
HETATM    1  C   UNL     1       5.083  28.856  50.803  1.00  0.00     0.161 C 
HETATM    2  N   UNL     1       5.034  30.284  50.474  1.00  0.00    -0.332 N 
HETATM    3  C   UNL     1       4.203  31.004  51.300  1.00  0.00     0.295 C 
HETATM    4  O   UNL     1       3.957  32.192  51.218  1.00  0.00    -0.264 OA
HETATM    5  C   UNL     1       4.383  28.755  52.135  1.00  0.00     0.058 C 
HETATM    6  C   UNL     1       3.655  30.024  52.340  1.00  0.00     0.250 C 
HETATM    7  O   UNL     1       2.811  30.266  53.173  1.00  0.00    -0.282 OA
HETATM    8  C   UNL     1       4.506  27.859  53.127  1.00  0.00     0.078 C 
ENDROOT
BRANCH   1   9
HETATM    9  C   UNL     1       4.428  28.032  49.705  1.00  0.00    -0.028 A 
HETATM   10  C   UNL     1       5.228  27.211  48.891  1.00  0.00     0.012 A 
HETATM   11  C   UNL     1       4.661  26.467  47.857  1.00  0.00     0.040 A 
HETATM   12  C   UNL     1       3.298  26.554  47.619  1.00  0.00     0.099 A 
HETATM   13  C   UNL     1       2.472  27.365  48.398  1.00  0.00     0.102 A 
HETATM   14  C   UNL     1       3.035  28.079  49.460  1.00  0.00     0.049 A 
BRANCH  12  15
HETATM   15  O   UNL     1       2.778  25.827  46.585  1.00  0.00    -0.358 OA
HETATM   16  H   UNL     1       1.849  26.114  46.495  1.00  0.00     0.218 HD
ENDBRANCH  12  15
BRANCH  13  17
HETATM   17  O   UNL     1       1.153  27.379  48.026  1.00  0.00    -0.349 OA
BRANCH  17  18
HETATM   18  C   UNL     1       0.732  28.417  47.145  1.00  0.00     0.171 C 
HETATM   19  C   UNL     1      -0.265  27.831  46.163  1.00  0.00     0.034 C 
ENDBRANCH  17  18
ENDBRANCH  13  17
ENDBRANCH   1   9
BRANCH   2  20
HETATM   20  C   UNL     1       5.920  30.892  49.495  1.00  0.00     0.129 C 
BRANCH  20  21
HETATM   21  C   UNL     1       5.245  31.343  48.198  1.00  0.00     0.048 C 
BRANCH  21  22
HETATM   22  C   UNL     1       4.888  32.825  48.064  1.00  0.00     0.236 C 
BRANCH  22  23
HETATM   23  N   UNL     1       5.788  33.606  47.147  1.00  0.00    -0.067 N 
HETATM   24  H   UNL     1       5.321  34.515  46.951  1.00  0.00     0.280 HD
HETATM   25  C   UNL     1       7.186  33.865  47.682  1.00  0.00     0.261 C 
HETATM   26  C   UNL     1       7.999  34.665  46.656  1.00  0.00     0.195 C 
HETATM   27  O   UNL     1       8.054  33.983  45.399  1.00  0.00    -0.388 OA
HETATM   28  C   UNL     1       6.747  33.808  44.841  1.00  0.00     0.195 C 
HETATM   29  C   UNL     1       5.877  32.949  45.764  1.00  0.00     0.261 C 
ENDBRANCH  22  23
ENDBRANCH  21  22
ENDBRANCH  20  21
ENDBRANCH   2  20
BRANCH   8  30
HETATM   30  O   UNL     1       3.838  27.975  54.331  1.00  0.00    -0.360 OA
HETATM   31  H   UNL     1       4.141  28.769  54.817  1.00  0.00     0.217 HD
ENDBRANCH   8  30
BRANCH   8  32
HETATM   32  C   UNL     1       5.408  26.723  53.061  1.00  0.00     0.038 C 
HETATM   33  C   UNL     1       5.302  25.623  53.823  1.00  0.00     0.014 C 
BRANCH  33  34
HETATM   34  C   UNL     1       6.340  24.589  53.820  1.00  0.00    -0.036 A 
HETATM   35  C   UNL     1       6.773  24.059  55.040  1.00  0.00     0.011 A 
HETATM   36  C   UNL     1       7.778  23.092  55.073  1.00  0.00     0.001 A 
HETATM   37  C   UNL     1       8.351  22.643  53.885  1.00  0.00     0.000 A 
HETATM   38  C   UNL     1       7.917  23.159  52.663  1.00  0.00     0.001 A 
HETATM   39  C   UNL     1       6.915  24.132  52.630  1.00  0.00     0.011 A 
ENDBRANCH  33  34
ENDBRANCH   8  32
TORSDOF 11
ENDMDL
