MODEL 1
REMARK VINA RESULT:      -8.9      0.000      0.000
REMARK  8 active torsions:
REMARK  status: ('A' for Active; 'I' for Inactive)
REMARK    1  A    between atoms: C_3  and  C_4 
REMARK       I    between atoms: C_4  and  N_5 
REMARK    2  A    between atoms: N_5  and  C_6 
REMARK    3  A    between atoms: C_8  and  C_9 
REMARK    4  A    between atoms: C_9  and  C_10 
REMARK    5  A    between atoms: C_10  and  N_11 
REMARK    6  A    between atoms: C_21  and  O_22 
REMARK    7  A    between atoms: O_22  and  C_23 
REMARK    8  A    between atoms: C_23  and  C_24 
ROOT
HETATM    1  C   UNL     1       7.191  24.242  52.849  1.00  0.00     0.259 C 
HETATM    2  N   UNL     1       5.870  24.650  52.784  1.00  0.00    -0.323 N 
HETATM    3  O   UNL     1       8.130  24.815  52.305  1.00  0.00    -0.267 OA
HETATM    4  H   UNL     1       5.202  24.049  53.253  1.00  0.00     0.169 HD
ENDROOT
BRANCH   2   5
HETATM    5  C   UNL     1       5.364  25.815  52.162  1.00  0.00     0.035 A 
HETATM    6  C   UNL     1       5.343  25.854  50.758  1.00  0.00     0.036 A 
HETATM    7  C   UNL     1       4.828  26.967  50.059  1.00  0.00    -0.054 A 
HETATM    8  C   UNL     1       4.310  28.036  50.802  1.00  0.00     0.007 A 
HETATM    9  C   UNL     1       4.342  28.011  52.193  1.00  0.00     0.003 A 
HETATM   10  C   UNL     1       4.867  26.910  52.866  1.00  0.00     0.029 A 
BRANCH   7  11
HETATM   11  C   UNL     1       4.776  26.930  48.546  1.00  0.00     0.066 C 
BRANCH  11  12
HETATM   12  C   UNL     1       4.485  28.283  47.880  1.00  0.00     0.239 C 
BRANCH  12  13
HETATM   13  N   UNL     1       3.104  28.316  47.255  1.00  0.00    -0.071 N 
HETATM   14  H   UNL     1       3.187  28.751  46.326  1.00  0.00     0.279 HD
HETATM   15  C   UNL     1       2.125  29.158  48.061  1.00  0.00     0.235 C 
HETATM   16  C   UNL     1       1.237  28.141  48.744  1.00  0.00     0.029 C 
HETATM   17  C   UNL     1       1.071  27.082  47.675  1.00  0.00     0.029 C 
HETATM   18  C   UNL     1       2.466  26.941  47.094  1.00  0.00     0.235 C 
ENDBRANCH  12  13
ENDBRANCH  11  12
ENDBRANCH   7  11
ENDBRANCH   2   5
BRANCH   1  19
HETATM   19  C   UNL     1       7.495  23.008  53.653  1.00  0.00     0.065 A 
HETATM   20  C   UNL     1       8.031  21.919  52.936  1.00  0.00     0.020 A 
HETATM   21  C   UNL     1       8.357  20.720  53.569  1.00  0.00     0.001 A 
HETATM   22  C   UNL     1       8.141  20.583  54.934  1.00  0.00     0.003 A 
HETATM   23  C   UNL     1       7.609  21.647  55.662  1.00  0.00     0.038 A 
HETATM   24  C   UNL     1       7.309  22.872  55.042  1.00  0.00     0.084 A 
BRANCH  24  25
HETATM   25  O   UNL     1       6.745  23.898  55.759  1.00  0.00    -0.348 OA
BRANCH  25  26
HETATM   26  C   UNL     1       7.518  24.362  56.876  1.00  0.00     0.207 C 
BRANCH  26  27
HETATM   27  C   UNL     1       8.157  25.720  56.549  1.00  0.00     0.145 C 
HETATM   28  O   UNL     1       8.299  26.470  57.770  1.00  0.00    -0.384 OA
HETATM   29  C   UNL     1       7.406  27.596  57.730  1.00  0.00     0.168 C 
HETATM   30  C   UNL     1       6.464  27.370  56.569  1.00  0.00     0.029 C 
HETATM   31  C   UNL     1       7.331  26.590  55.612  1.00  0.00     0.036 C 
ENDBRANCH  26  27
ENDBRANCH  25  26
ENDBRANCH  24  25
ENDBRANCH   1  19
TORSDOF 8
ENDMDL
MODEL 2
REMARK VINA RESULT:      -8.8      3.530      8.398
REMARK  8 active torsions:
REMARK  status: ('A' for Active; 'I' for Inactive)
REMARK    1  A    between atoms: C_3  and  C_4 
REMARK       I    between atoms: C_4  and  N_5 
REMARK    2  A    between atoms: N_5  and  C_6 
REMARK    3  A    between atoms: C_8  and  C_9 
REMARK    4  A    between atoms: C_9  and  C_10 
REMARK    5  A    between atoms: C_10  and  N_11 
REMARK    6  A    between atoms: C_21  and  O_22 
REMARK    7  A    between atoms: O_22  and  C_23 
REMARK    8  A    between atoms: C_23  and  C_24 
ROOT
HETATM    1  C   UNL     1       6.906  24.974  56.175  1.00  0.00     0.259 C 
HETATM    2  N   UNL     1       7.461  26.226  55.980  1.00  0.00    -0.323 N 
HETATM    3  O   UNL     1       6.004  24.722  56.969  1.00  0.00    -0.267 OA
HETATM    4  H   UNL     1       8.228  26.268  55.319  1.00  0.00     0.169 HD
ENDROOT
BRANCH   2   5
HETATM    5  C   UNL     1       7.061  27.443  56.581  1.00  0.00     0.035 A 
HETATM    6  C   UNL     1       7.963  28.073  57.454  1.00  0.00     0.036 A 
HETATM    7  C   UNL     1       7.654  29.303  58.073  1.00  0.00    -0.054 A 
HETATM    8  C   UNL     1       6.423  29.904  57.777  1.00  0.00     0.007 A 
HETATM    9  C   UNL     1       5.517  29.278  56.925  1.00  0.00     0.003 A 
HETATM   10  C   UNL     1       5.834  28.056  56.335  1.00  0.00     0.029 A 
BRANCH   7  11
HETATM   11  C   UNL     1       8.688  29.966  58.959  1.00  0.00     0.066 C 
BRANCH  11  12
HETATM   12  C   UNL     1       8.236  31.289  59.593  1.00  0.00     0.239 C 
BRANCH  12  13
HETATM   13  N   UNL     1       7.620  31.075  60.963  1.00  0.00    -0.071 N 
HETATM   14  H   UNL     1       7.161  30.154  60.962  1.00  0.00     0.279 HD
HETATM   15  C   UNL     1       6.553  32.112  61.284  1.00  0.00     0.235 C 
HETATM   16  C   UNL     1       7.218  33.029  62.286  1.00  0.00     0.029 C 
HETATM   17  C   UNL     1       8.025  32.064  63.128  1.00  0.00     0.029 C 
HETATM   18  C   UNL     1       8.628  31.118  62.105  1.00  0.00     0.235 C 
ENDBRANCH  12  13
ENDBRANCH  11  12
ENDBRANCH   7  11
ENDBRANCH   2   5
BRANCH   1  19
HETATM   19  C   UNL     1       7.446  23.841  55.346  1.00  0.00     0.065 A 
HETATM   20  C   UNL     1       7.433  22.569  55.954  1.00  0.00     0.020 A 
HETATM   21  C   UNL     1       7.905  21.439  55.287  1.00  0.00     0.001 A 
HETATM   22  C   UNL     1       8.412  21.562  54.000  1.00  0.00     0.003 A 
HETATM   23  C   UNL     1       8.436  22.812  53.382  1.00  0.00     0.038 A 
HETATM   24  C   UNL     1       7.932  23.952  54.030  1.00  0.00     0.084 A 
BRANCH  24  25
HETATM   25  O   UNL     1       8.001  25.184  53.429  1.00  0.00    -0.348 OA
BRANCH  25  26
HETATM   26  C   UNL     1       7.661  25.207  52.035  1.00  0.00     0.207 C 
BRANCH  26  27
HETATM   27  C   UNL     1       6.414  26.075  51.809  1.00  0.00     0.145 C 
HETATM   28  O   UNL     1       6.094  26.754  53.038  1.00  0.00    -0.384 OA
HETATM   29  C   UNL     1       4.857  26.230  53.548  1.00  0.00     0.168 C 
HETATM   30  C   UNL     1       4.551  24.976  52.761  1.00  0.00     0.029 C 
HETATM   31  C   UNL     1       5.168  25.292  51.421  1.00  0.00     0.036 C 
ENDBRANCH  26  27
ENDBRANCH  25  26
ENDBRANCH  24  25
ENDBRANCH   1  19
TORSDOF 8
ENDMDL
MODEL 3
REMARK VINA RESULT:      -8.5      6.177     10.453
REMARK  8 active torsions:
REMARK  status: ('A' for Active; 'I' for Inactive)
REMARK    1  A    between atoms: C_3  and  C_4 
REMARK       I    between atoms: C_4  and  N_5 
REMARK    2  A    between atoms: N_5  and  C_6 
REMARK    3  A    between atoms: C_8  and  C_9 
REMARK    4  A    between atoms: C_9  and  C_10 
REMARK    5  A    between atoms: C_10  and  N_11 
REMARK    6  A    between atoms: C_21  and  O_22 
REMARK    7  A    between atoms: O_22  and  C_23 
REMARK    8  A    between atoms: C_23  and  C_24 
ROOT
HETATM    1  C   UNL     1       8.456  31.113  61.079  1.00  0.00     0.259 C 
HETATM    2  N   UNL     1       8.205  31.153  59.719  1.00  0.00    -0.323 N 
HETATM    3  O   UNL     1       9.211  30.317  61.630  1.00  0.00    -0.267 OA
HETATM    4  H   UNL     1       7.525  31.843  59.418  1.00  0.00     0.169 HD
ENDROOT
BRANCH   2   5
HETATM    5  C   UNL     1       8.807  30.361  58.714  1.00  0.00     0.035 A 
HETATM    6  C   UNL     1       8.136  29.198  58.304  1.00  0.00     0.036 A 
HETATM    7  C   UNL     1       8.652  28.366  57.287  1.00  0.00    -0.054 A 
HETATM    8  C   UNL     1       9.854  28.741  56.670  1.00  0.00     0.007 A 
HETATM    9  C   UNL     1      10.533  29.884  57.082  1.00  0.00     0.003 A 
HETATM   10  C   UNL     1      10.014  30.685  58.098  1.00  0.00     0.029 A 
BRANCH   7  11
HETATM   11  C   UNL     1       7.857  27.156  56.845  1.00  0.00     0.066 C 
BRANCH  11  12
HETATM   12  C   UNL     1       7.826  26.002  57.857  1.00  0.00     0.239 C 
BRANCH  12  13
HETATM   13  N   UNL     1       7.231  24.743  57.257  1.00  0.00    -0.071 N 
HETATM   14  H   UNL     1       6.574  24.346  57.942  1.00  0.00     0.279 HD
HETATM   15  C   UNL     1       8.287  23.683  56.978  1.00  0.00     0.235 C 
HETATM   16  C   UNL     1       8.453  23.712  55.474  1.00  0.00     0.029 C 
HETATM   17  C   UNL     1       7.034  23.927  54.993  1.00  0.00     0.029 C 
HETATM   18  C   UNL     1       6.489  24.975  55.946  1.00  0.00     0.235 C 
ENDBRANCH  12  13
ENDBRANCH  11  12
ENDBRANCH   7  11
ENDBRANCH   2   5
BRANCH   1  19
HETATM   19  C   UNL     1       7.756  32.127  61.942  1.00  0.00     0.065 A 
HETATM   20  C   UNL     1       8.229  32.246  63.265  1.00  0.00     0.020 A 
HETATM   21  C   UNL     1       7.664  33.152  64.161  1.00  0.00     0.001 A 
HETATM   22  C   UNL     1       6.603  33.950  63.754  1.00  0.00     0.003 A 
HETATM   23  C   UNL     1       6.118  33.847  62.451  1.00  0.00     0.038 A 
HETATM   24  C   UNL     1       6.702  32.962  61.528  1.00  0.00     0.084 A 
BRANCH  24  25
HETATM   25  O   UNL     1       6.188  32.836  60.261  1.00  0.00    -0.348 OA
BRANCH  25  26
HETATM   26  C   UNL     1       4.755  32.828  60.178  1.00  0.00     0.207 C 
BRANCH  26  27
HETATM   27  C   UNL     1       4.311  32.815  58.708  1.00  0.00     0.145 C 
HETATM   28  O   UNL     1       3.151  31.970  58.583  1.00  0.00    -0.384 OA
HETATM   29  C   UNL     1       3.508  30.802  57.825  1.00  0.00     0.168 C 
HETATM   30  C   UNL     1       5.017  30.782  57.729  1.00  0.00     0.029 C 
HETATM   31  C   UNL     1       5.349  32.254  57.747  1.00  0.00     0.036 C 
ENDBRANCH  26  27
ENDBRANCH  25  26
ENDBRANCH  24  25
ENDBRANCH   1  19
TORSDOF 8
ENDMDL
MODEL 4
REMARK VINA RESULT:      -8.4      4.226      9.234
REMARK  8 active torsions:
REMARK  status: ('A' for Active; 'I' for Inactive)
REMARK    1  A    between atoms: C_3  and  C_4 
REMARK       I    between atoms: C_4  and  N_5 
REMARK    2  A    between atoms: N_5  and  C_6 
REMARK    3  A    between atoms: C_8  and  C_9 
REMARK    4  A    between atoms: C_9  and  C_10 
REMARK    5  A    between atoms: C_10  and  N_11 
REMARK    6  A    between atoms: C_21  and  O_22 
REMARK    7  A    between atoms: O_22  and  C_23 
REMARK    8  A    between atoms: C_23  and  C_24 
ROOT
HETATM    1  C   UNL     1       6.841  28.070  55.321  1.00  0.00     0.259 C 
HETATM    2  N   UNL     1       8.088  27.928  55.905  1.00  0.00    -0.323 N 
HETATM    3  O   UNL     1       6.142  29.076  55.394  1.00  0.00    -0.267 OA
HETATM    4  H   UNL     1       8.526  27.021  55.790  1.00  0.00     0.169 HD
ENDROOT
BRANCH   2   5
HETATM    5  C   UNL     1       8.817  28.911  56.615  1.00  0.00     0.035 A 
HETATM    6  C   UNL     1       8.409  29.213  57.925  1.00  0.00     0.036 A 
HETATM    7  C   UNL     1       9.098  30.160  58.713  1.00  0.00    -0.054 A 
HETATM    8  C   UNL     1      10.226  30.785  58.164  1.00  0.00     0.007 A 
HETATM    9  C   UNL     1      10.627  30.502  56.861  1.00  0.00     0.003 A 
HETATM   10  C   UNL     1       9.925  29.575  56.093  1.00  0.00     0.029 A 
BRANCH   7  11
HETATM   11  C   UNL     1       8.650  30.403  60.138  1.00  0.00     0.066 C 
BRANCH  11  12
HETATM   12  C   UNL     1       7.549  31.462  60.294  1.00  0.00     0.239 C 
BRANCH  12  13
HETATM   13  N   UNL     1       7.007  31.507  61.710  1.00  0.00    -0.071 N 
HETATM   14  H   UNL     1       6.520  30.619  61.890  1.00  0.00     0.279 HD
HETATM   15  C   UNL     1       5.993  32.625  61.904  1.00  0.00     0.235 C 
HETATM   16  C   UNL     1       6.743  33.671  62.699  1.00  0.00     0.029 C 
HETATM   17  C   UNL     1       7.567  32.830  63.651  1.00  0.00     0.029 C 
HETATM   18  C   UNL     1       8.080  31.701  62.775  1.00  0.00     0.235 C 
ENDBRANCH  12  13
ENDBRANCH  11  12
ENDBRANCH   7  11
ENDBRANCH   2   5
BRANCH   1  19
HETATM   19  C   UNL     1       6.310  26.903  54.533  1.00  0.00     0.065 A 
HETATM   20  C   UNL     1       5.395  27.215  53.507  1.00  0.00     0.020 A 
HETATM   21  C   UNL     1       4.834  26.221  52.706  1.00  0.00     0.001 A 
HETATM   22  C   UNL     1       5.170  24.892  52.923  1.00  0.00     0.003 A 
HETATM   23  C   UNL     1       6.072  24.561  53.935  1.00  0.00     0.038 A 
HETATM   24  C   UNL     1       6.670  25.556  54.727  1.00  0.00     0.084 A 
BRANCH  24  25
HETATM   25  O   UNL     1       7.523  25.217  55.748  1.00  0.00    -0.348 OA
BRANCH  25  26
HETATM   26  C   UNL     1       7.272  23.942  56.357  1.00  0.00     0.207 C 
BRANCH  26  27
HETATM   27  C   UNL     1       8.548  23.088  56.340  1.00  0.00     0.145 C 
HETATM   28  O   UNL     1       9.112  23.125  55.015  1.00  0.00    -0.384 OA
HETATM   29  C   UNL     1       8.992  21.821  54.423  1.00  0.00     0.168 C 
HETATM   30  C   UNL     1       8.055  21.022  55.301  1.00  0.00     0.029 C 
HETATM   31  C   UNL     1       8.321  21.617  56.662  1.00  0.00     0.036 C 
ENDBRANCH  26  27
ENDBRANCH  25  26
ENDBRANCH  24  25
ENDBRANCH   1  19
TORSDOF 8
ENDMDL
MODEL 5
REMARK VINA RESULT:      -8.4      5.373      9.017
REMARK  8 active torsions:
REMARK  status: ('A' for Active; 'I' for Inactive)
REMARK    1  A    between atoms: C_3  and  C_4 
REMARK       I    between atoms: C_4  and  N_5 
REMARK    2  A    between atoms: N_5  and  C_6 
REMARK    3  A    between atoms: C_8  and  C_9 
REMARK    4  A    between atoms: C_9  and  C_10 
REMARK    5  A    between atoms: C_10  and  N_11 
REMARK    6  A    between atoms: C_21  and  O_22 
REMARK    7  A    between atoms: O_22  and  C_23 
REMARK    8  A    between atoms: C_23  and  C_24 
ROOT
HETATM    1  C   UNL     1       8.672  30.058  58.644  1.00  0.00     0.259 C 
HETATM    2  N   UNL     1       7.661  29.214  58.218  1.00  0.00    -0.323 N 
HETATM    3  O   UNL     1       9.771  30.162  58.108  1.00  0.00    -0.267 OA
HETATM    4  H   UNL     1       6.823  29.209  58.789  1.00  0.00     0.169 HD
ENDROOT
BRANCH   2   5
HETATM    5  C   UNL     1       7.664  28.385  57.072  1.00  0.00     0.035 A 
HETATM    6  C   UNL     1       7.489  27.004  57.258  1.00  0.00     0.036 A 
HETATM    7  C   UNL     1       7.451  26.111  56.166  1.00  0.00    -0.054 A 
HETATM    8  C   UNL     1       7.570  26.638  54.873  1.00  0.00     0.007 A 
HETATM    9  C   UNL     1       7.759  28.004  54.681  1.00  0.00     0.003 A 
HETATM   10  C   UNL     1       7.808  28.869  55.772  1.00  0.00     0.029 A 
BRANCH   7  11
HETATM   11  C   UNL     1       7.202  24.640  56.422  1.00  0.00     0.066 C 
BRANCH  11  12
HETATM   12  C   UNL     1       7.016  23.790  55.156  1.00  0.00     0.239 C 
BRANCH  12  13
HETATM   13  N   UNL     1       8.134  22.779  54.989  1.00  0.00    -0.071 N 
HETATM   14  H   UNL     1       8.972  23.153  55.455  1.00  0.00     0.279 HD
HETATM   15  C   UNL     1       8.495  22.556  53.527  1.00  0.00     0.235 C 
HETATM   16  C   UNL     1       7.906  21.200  53.204  1.00  0.00     0.029 C 
HETATM   17  C   UNL     1       8.164  20.420  54.475  1.00  0.00     0.029 C 
HETATM   18  C   UNL     1       7.819  21.408  55.575  1.00  0.00     0.235 C 
ENDBRANCH  12  13
ENDBRANCH  11  12
ENDBRANCH   7  11
ENDBRANCH   2   5
BRANCH   1  19
HETATM   19  C   UNL     1       8.395  30.915  59.849  1.00  0.00     0.065 A 
HETATM   20  C   UNL     1       9.124  30.598  61.013  1.00  0.00     0.020 A 
HETATM   21  C   UNL     1       8.959  31.320  62.195  1.00  0.00     0.001 A 
HETATM   22  C   UNL     1       8.050  32.369  62.237  1.00  0.00     0.003 A 
HETATM   23  C   UNL     1       7.316  32.697  61.097  1.00  0.00     0.038 A 
HETATM   24  C   UNL     1       7.500  31.999  59.891  1.00  0.00     0.084 A 
BRANCH  24  25
HETATM   25  O   UNL     1       6.741  32.302  58.787  1.00  0.00    -0.348 OA
BRANCH  25  26
HETATM   26  C   UNL     1       5.334  32.053  58.923  1.00  0.00     0.207 C 
BRANCH  26  27
HETATM   27  C   UNL     1       4.639  32.194  57.561  1.00  0.00     0.145 C 
HETATM   28  O   UNL     1       3.262  31.797  57.701  1.00  0.00    -0.384 OA
HETATM   29  C   UNL     1       3.053  30.579  56.968  1.00  0.00     0.168 C 
HETATM   30  C   UNL     1       4.420  30.044  56.603  1.00  0.00     0.029 C 
HETATM   31  C   UNL     1       5.224  31.313  56.466  1.00  0.00     0.036 C 
ENDBRANCH  26  27
ENDBRANCH  25  26
ENDBRANCH  24  25
ENDBRANCH   1  19
TORSDOF 8
ENDMDL
MODEL 6
REMARK VINA RESULT:      -8.2      7.616     12.162
REMARK  8 active torsions:
REMARK  status: ('A' for Active; 'I' for Inactive)
REMARK    1  A    between atoms: C_3  and  C_4 
REMARK       I    between atoms: C_4  and  N_5 
REMARK    2  A    between atoms: N_5  and  C_6 
REMARK    3  A    between atoms: C_8  and  C_9 
REMARK    4  A    between atoms: C_9  and  C_10 
REMARK    5  A    between atoms: C_10  and  N_11 
REMARK    6  A    between atoms: C_21  and  O_22 
REMARK    7  A    between atoms: O_22  and  C_23 
REMARK    8  A    between atoms: C_23  and  C_24 
ROOT
HETATM    1  C   UNL     1       8.882  31.680  59.663  1.00  0.00     0.259 C 
HETATM    2  N   UNL     1       8.008  31.224  60.634  1.00  0.00    -0.323 N 
HETATM    3  O   UNL     1       9.328  32.822  59.600  1.00  0.00    -0.267 OA
HETATM    4  H   UNL     1       7.696  30.265  60.529  1.00  0.00     0.169 HD
ENDROOT
BRANCH   2   5
HETATM    5  C   UNL     1       7.529  31.938  61.757  1.00  0.00     0.035 A 
HETATM    6  C   UNL     1       6.212  32.427  61.713  1.00  0.00     0.036 A 
HETATM    7  C   UNL     1       5.647  33.125  62.801  1.00  0.00    -0.054 A 
HETATM    8  C   UNL     1       6.427  33.304  63.952  1.00  0.00     0.007 A 
HETATM    9  C   UNL     1       7.737  32.837  63.998  1.00  0.00     0.003 A 
HETATM   10  C   UNL     1       8.283  32.162  62.907  1.00  0.00     0.029 A 
BRANCH   7  11
HETATM   11  C   UNL     1       4.204  33.577  62.721  1.00  0.00     0.066 C 
BRANCH  11  12
HETATM   12  C   UNL     1       3.637  34.151  64.028  1.00  0.00     0.239 C 
BRANCH  12  13
HETATM   13  N   UNL     1       3.523  35.663  63.975  1.00  0.00    -0.071 N 
HETATM   14  H   UNL     1       2.554  35.915  64.210  1.00  0.00     0.279 HD
HETATM   15  C   UNL     1       3.808  36.214  62.585  1.00  0.00     0.235 C 
HETATM   16  C   UNL     1       5.185  36.829  62.707  1.00  0.00     0.029 C 
HETATM   17  C   UNL     1       5.147  37.446  64.089  1.00  0.00     0.029 C 
HETATM   18  C   UNL     1       4.462  36.386  64.933  1.00  0.00     0.235 C 
ENDBRANCH  12  13
ENDBRANCH  11  12
ENDBRANCH   7  11
ENDBRANCH   2   5
BRANCH   1  19
HETATM   19  C   UNL     1       9.322  30.697  58.612  1.00  0.00     0.065 A 
HETATM   20  C   UNL     1      10.646  30.838  58.149  1.00  0.00     0.020 A 
HETATM   21  C   UNL     1      11.172  29.986  57.178  1.00  0.00     0.001 A 
HETATM   22  C   UNL     1      10.377  28.983  56.642  1.00  0.00     0.003 A 
HETATM   23  C   UNL     1       9.063  28.828  57.084  1.00  0.00     0.038 A 
HETATM   24  C   UNL     1       8.533  29.657  58.086  1.00  0.00     0.084 A 
BRANCH  24  25
HETATM   25  O   UNL     1       7.226  29.524  58.483  1.00  0.00    -0.348 OA
BRANCH  25  26
HETATM   26  C   UNL     1       6.273  29.390  57.418  1.00  0.00     0.207 C 
BRANCH  26  27
HETATM   27  C   UNL     1       5.639  30.753  57.102  1.00  0.00     0.145 C 
HETATM   28  O   UNL     1       5.671  31.566  58.290  1.00  0.00    -0.384 OA
HETATM   29  C   UNL     1       4.325  31.760  58.756  1.00  0.00     0.168 C 
HETATM   30  C   UNL     1       3.451  30.789  57.995  1.00  0.00     0.029 C 
HETATM   31  C   UNL     1       4.178  30.681  56.678  1.00  0.00     0.036 C 
ENDBRANCH  26  27
ENDBRANCH  25  26
ENDBRANCH  24  25
ENDBRANCH   1  19
TORSDOF 8
ENDMDL
MODEL 7
REMARK VINA RESULT:      -8.2      5.997     10.276
REMARK  8 active torsions:
REMARK  status: ('A' for Active; 'I' for Inactive)
REMARK    1  A    between atoms: C_3  and  C_4 
REMARK       I    between atoms: C_4  and  N_5 
REMARK    2  A    between atoms: N_5  and  C_6 
REMARK    3  A    between atoms: C_8  and  C_9 
REMARK    4  A    between atoms: C_9  and  C_10 
REMARK    5  A    between atoms: C_10  and  N_11 
REMARK    6  A    between atoms: C_21  and  O_22 
REMARK    7  A    between atoms: O_22  and  C_23 
REMARK    8  A    between atoms: C_23  and  C_24 
ROOT
HETATM    1  C   UNL     1       7.983  31.787  60.177  1.00  0.00     0.259 C 
HETATM    2  N   UNL     1       7.644  30.518  59.740  1.00  0.00    -0.323 N 
HETATM    3  O   UNL     1       8.694  32.575  59.560  1.00  0.00    -0.267 OA
HETATM    4  H   UNL     1       7.082  29.969  60.381  1.00  0.00     0.169 HD
ENDROOT
BRANCH   2   5
HETATM    5  C   UNL     1       7.973  29.924  58.500  1.00  0.00     0.035 A 
HETATM    6  C   UNL     1       6.919  29.502  57.672  1.00  0.00     0.036 A 
HETATM    7  C   UNL     1       7.159  28.925  56.407  1.00  0.00    -0.054 A 
HETATM    8  C   UNL     1       8.486  28.800  55.976  1.00  0.00     0.007 A 
HETATM    9  C   UNL     1       9.537  29.202  56.796  1.00  0.00     0.003 A 
HETATM   10  C   UNL     1       9.281  29.756  58.049  1.00  0.00     0.029 A 
BRANCH   7  11
HETATM   11  C   UNL     1       5.983  28.543  55.533  1.00  0.00     0.066 C 
BRANCH  11  12
HETATM   12  C   UNL     1       4.847  27.815  56.266  1.00  0.00     0.239 C 
BRANCH  12  13
HETATM   13  N   UNL     1       4.815  26.337  55.927  1.00  0.00    -0.071 N 
HETATM   14  H   UNL     1       3.853  26.096  55.652  1.00  0.00     0.279 HD
HETATM   15  C   UNL     1       5.175  25.464  57.121  1.00  0.00     0.235 C 
HETATM   16  C   UNL     1       6.578  24.984  56.819  1.00  0.00     0.029 C 
HETATM   17  C   UNL     1       6.527  24.744  55.325  1.00  0.00     0.029 C 
HETATM   18  C   UNL     1       5.760  25.943  54.797  1.00  0.00     0.235 C 
ENDBRANCH  12  13
ENDBRANCH  11  12
ENDBRANCH   7  11
ENDBRANCH   2   5
BRANCH   1  19
HETATM   19  C   UNL     1       7.433  32.231  61.505  1.00  0.00     0.065 A 
HETATM   20  C   UNL     1       8.374  32.387  62.543  1.00  0.00     0.020 A 
HETATM   21  C   UNL     1       7.989  32.797  63.819  1.00  0.00     0.001 A 
HETATM   22  C   UNL     1       6.649  33.047  64.084  1.00  0.00     0.003 A 
HETATM   23  C   UNL     1       5.701  32.897  63.072  1.00  0.00     0.038 A 
HETATM   24  C   UNL     1       6.082  32.518  61.773  1.00  0.00     0.084 A 
BRANCH  24  25
HETATM   25  O   UNL     1       5.136  32.330  60.796  1.00  0.00    -0.348 OA
BRANCH  25  26
HETATM   26  C   UNL     1       3.777  32.297  61.256  1.00  0.00     0.207 C 
BRANCH  26  27
HETATM   27  C   UNL     1       2.955  33.390  60.557  1.00  0.00     0.145 C 
HETATM   28  O   UNL     1       3.826  34.136  59.685  1.00  0.00    -0.384 OA
HETATM   29  C   UNL     1       3.971  35.468  60.206  1.00  0.00     0.168 C 
HETATM   30  C   UNL     1       3.407  35.458  61.609  1.00  0.00     0.029 C 
HETATM   31  C   UNL     1       2.331  34.405  61.504  1.00  0.00     0.036 C 
ENDBRANCH  26  27
ENDBRANCH  25  26
ENDBRANCH  24  25
ENDBRANCH   1  19
TORSDOF 8
ENDMDL
MODEL 8
REMARK VINA RESULT:      -8.1      3.223      6.120
REMARK  8 active torsions:
REMARK  status: ('A' for Active; 'I' for Inactive)
REMARK    1  A    between atoms: C_3  and  C_4 
REMARK       I    between atoms: C_4  and  N_5 
REMARK    2  A    between atoms: N_5  and  C_6 
REMARK    3  A    between atoms: C_8  and  C_9 
REMARK    4  A    between atoms: C_9  and  C_10 
REMARK    5  A    between atoms: C_10  and  N_11 
REMARK    6  A    between atoms: C_21  and  O_22 
REMARK    7  A    between atoms: O_22  and  C_23 
REMARK    8  A    between atoms: C_23  and  C_24 
ROOT
HETATM    1  C   UNL     1       7.477  24.796  56.207  1.00  0.00     0.259 C 
HETATM    2  N   UNL     1       7.912  26.047  55.804  1.00  0.00    -0.323 N 
HETATM    3  O   UNL     1       6.919  24.557  57.273  1.00  0.00    -0.267 OA
HETATM    4  H   UNL     1       8.394  26.078  54.913  1.00  0.00     0.169 HD
ENDROOT
BRANCH   2   5
HETATM    5  C   UNL     1       7.738  27.274  56.486  1.00  0.00     0.035 A 
HETATM    6  C   UNL     1       6.441  27.807  56.558  1.00  0.00     0.036 A 
HETATM    7  C   UNL     1       6.175  29.012  57.243  1.00  0.00    -0.054 A 
HETATM    8  C   UNL     1       7.241  29.663  57.878  1.00  0.00     0.007 A 
HETATM    9  C   UNL     1       8.532  29.150  57.798  1.00  0.00     0.003 A 
HETATM   10  C   UNL     1       8.777  27.966  57.104  1.00  0.00     0.029 A 
BRANCH   7  11
HETATM   11  C   UNL     1       4.748  29.509  57.339  1.00  0.00     0.066 C 
BRANCH  11  12
HETATM   12  C   UNL     1       3.945  29.415  56.033  1.00  0.00     0.239 C 
BRANCH  12  13
HETATM   13  N   UNL     1       3.285  30.734  55.682  1.00  0.00    -0.071 N 
HETATM   14  H   UNL     1       2.302  30.543  55.446  1.00  0.00     0.279 HD
HETATM   15  C   UNL     1       3.921  31.391  54.465  1.00  0.00     0.235 C 
HETATM   16  C   UNL     1       4.731  32.532  55.042  1.00  0.00     0.029 C 
HETATM   17  C   UNL     1       3.840  33.036  56.156  1.00  0.00     0.029 C 
HETATM   18  C   UNL     1       3.327  31.763  56.806  1.00  0.00     0.235 C 
ENDBRANCH  12  13
ENDBRANCH  11  12
ENDBRANCH   7  11
ENDBRANCH   2   5
BRANCH   1  19
HETATM   19  C   UNL     1       7.700  23.649  55.260  1.00  0.00     0.065 A 
HETATM   20  C   UNL     1       7.619  22.358  55.822  1.00  0.00     0.020 A 
HETATM   21  C   UNL     1       7.804  21.214  55.047  1.00  0.00     0.001 A 
HETATM   22  C   UNL     1       8.088  21.339  53.694  1.00  0.00     0.003 A 
HETATM   23  C   UNL     1       8.176  22.607  53.118  1.00  0.00     0.038 A 
HETATM   24  C   UNL     1       7.956  23.766  53.881  1.00  0.00     0.084 A 
BRANCH  24  25
HETATM   25  O   UNL     1       8.088  25.009  53.314  1.00  0.00    -0.348 OA
BRANCH  25  26
HETATM   26  C   UNL     1       7.651  25.111  51.951  1.00  0.00     0.207 C 
BRANCH  26  27
HETATM   27  C   UNL     1       6.419  26.024  51.858  1.00  0.00     0.145 C 
HETATM   28  O   UNL     1       6.216  26.658  53.135  1.00  0.00    -0.384 OA
HETATM   29  C   UNL     1       5.005  26.148  53.719  1.00  0.00     0.168 C 
HETATM   30  C   UNL     1       4.600  24.939  52.907  1.00  0.00     0.029 C 
HETATM   31  C   UNL     1       5.123  25.294  51.537  1.00  0.00     0.036 C 
ENDBRANCH  26  27
ENDBRANCH  25  26
ENDBRANCH  24  25
ENDBRANCH   1  19
TORSDOF 8
ENDMDL
MODEL 9
REMARK VINA RESULT:      -7.5      5.047      9.312
REMARK  8 active torsions:
REMARK  status: ('A' for Active; 'I' for Inactive)
REMARK    1  A    between atoms: C_3  and  C_4 
REMARK       I    between atoms: C_4  and  N_5 
REMARK    2  A    between atoms: N_5  and  C_6 
REMARK    3  A    between atoms: C_8  and  C_9 
REMARK    4  A    between atoms: C_9  and  C_10 
REMARK    5  A    between atoms: C_10  and  N_11 
REMARK    6  A    between atoms: C_21  and  O_22 
REMARK    7  A    between atoms: O_22  and  C_23 
REMARK    8  A    between atoms: C_23  and  C_24 
ROOT
HETATM    1  C   UNL     1       8.074  30.144  58.568  1.00  0.00     0.259 C 
HETATM    2  N   UNL     1       6.848  29.598  58.226  1.00  0.00    -0.323 N 
HETATM    3  O   UNL     1       9.104  30.019  57.913  1.00  0.00    -0.267 OA
HETATM    4  H   UNL     1       6.098  29.754  58.890  1.00  0.00     0.169 HD
ENDROOT
BRANCH   2   5
HETATM    5  C   UNL     1       6.530  28.876  57.053  1.00  0.00     0.035 A 
HETATM    6  C   UNL     1       6.457  27.477  57.141  1.00  0.00     0.036 A 
HETATM    7  C   UNL     1       6.118  26.683  56.025  1.00  0.00    -0.054 A 
HETATM    8  C   UNL     1       5.830  27.328  54.814  1.00  0.00     0.007 A 
HETATM    9  C   UNL     1       5.916  28.714  54.714  1.00  0.00     0.003 A 
HETATM   10  C   UNL     1       6.266  29.480  55.824  1.00  0.00     0.029 A 
BRANCH   7  11
HETATM   11  C   UNL     1       5.996  25.183  56.192  1.00  0.00     0.066 C 
BRANCH  11  12
HETATM   12  C   UNL     1       7.287  24.399  55.914  1.00  0.00     0.239 C 
BRANCH  12  13
HETATM   13  N   UNL     1       7.031  23.187  55.038  1.00  0.00    -0.071 N 
HETATM   14  H   UNL     1       6.096  22.824  55.266  1.00  0.00     0.279 HD
HETATM   15  C   UNL     1       8.026  22.065  55.301  1.00  0.00     0.235 C 
HETATM   16  C   UNL     1       8.950  22.103  54.103  1.00  0.00     0.029 C 
HETATM   17  C   UNL     1       8.000  22.413  52.966  1.00  0.00     0.029 C 
HETATM   18  C   UNL     1       7.091  23.483  53.544  1.00  0.00     0.235 C 
ENDBRANCH  12  13
ENDBRANCH  11  12
ENDBRANCH   7  11
ENDBRANCH   2   5
BRANCH   1  19
HETATM   19  C   UNL     1       8.141  30.955  59.833  1.00  0.00     0.065 A 
HETATM   20  C   UNL     1       9.101  30.545  60.780  1.00  0.00     0.020 A 
HETATM   21  C   UNL     1       9.263  31.217  61.991  1.00  0.00     0.001 A 
HETATM   22  C   UNL     1       8.455  32.308  62.284  1.00  0.00     0.003 A 
HETATM   23  C   UNL     1       7.497  32.729  61.362  1.00  0.00     0.038 A 
HETATM   24  C   UNL     1       7.349  32.081  60.124  1.00  0.00     0.084 A 
BRANCH  24  25
HETATM   25  O   UNL     1       6.373  32.476  59.243  1.00  0.00    -0.348 OA
BRANCH  25  26
HETATM   26  C   UNL     1       5.062  32.626  59.807  1.00  0.00     0.207 C 
BRANCH  26  27
HETATM   27  C   UNL     1       4.558  34.062  59.597  1.00  0.00     0.145 C 
HETATM   28  O   UNL     1       4.609  34.760  60.855  1.00  0.00    -0.384 OA
HETATM   29  C   UNL     1       3.266  35.029  61.291  1.00  0.00     0.168 C 
HETATM   30  C   UNL     1       2.346  34.209  60.416  1.00  0.00     0.029 C 
HETATM   31  C   UNL     1       3.115  34.155  59.120  1.00  0.00     0.036 C 
ENDBRANCH  26  27
ENDBRANCH  25  26
ENDBRANCH  24  25
ENDBRANCH   1  19
TORSDOF 8
ENDMDL
MODEL 10
REMARK VINA RESULT:      -7.4      3.117      7.992
REMARK  8 active torsions:
REMARK  status: ('A' for Active; 'I' for Inactive)
REMARK    1  A    between atoms: C_3  and  C_4 
REMARK       I    between atoms: C_4  and  N_5 
REMARK    2  A    between atoms: N_5  and  C_6 
REMARK    3  A    between atoms: C_8  and  C_9 
REMARK    4  A    between atoms: C_9  and  C_10 
REMARK    5  A    between atoms: C_10  and  N_11 
REMARK    6  A    between atoms: C_21  and  O_22 
REMARK    7  A    between atoms: O_22  and  C_23 
REMARK    8  A    between atoms: C_23  and  C_24 
ROOT
HETATM    1  C   UNL     1       5.163  29.136  51.231  1.00  0.00     0.259 C 
HETATM    2  N   UNL     1       4.526  28.863  52.429  1.00  0.00    -0.323 N 
HETATM    3  O   UNL     1       5.919  30.084  51.039  1.00  0.00    -0.267 OA
HETATM    4  H   UNL     1       3.899  28.066  52.421  1.00  0.00     0.169 HD
ENDROOT
BRANCH   2   5
HETATM    5  C   UNL     1       4.675  29.554  53.654  1.00  0.00     0.035 A 
HETATM    6  C   UNL     1       5.469  28.963  54.651  1.00  0.00     0.036 A 
HETATM    7  C   UNL     1       5.692  29.599  55.891  1.00  0.00    -0.054 A 
HETATM    8  C   UNL     1       5.116  30.859  56.104  1.00  0.00     0.007 A 
HETATM    9  C   UNL     1       4.315  31.444  55.128  1.00  0.00     0.003 A 
HETATM   10  C   UNL     1       4.095  30.794  53.915  1.00  0.00     0.029 A 
BRANCH   7  11
HETATM   11  C   UNL     1       6.605  28.942  56.905  1.00  0.00     0.066 C 
BRANCH  11  12
HETATM   12  C   UNL     1       7.286  29.914  57.880  1.00  0.00     0.239 C 
BRANCH  12  13
HETATM   13  N   UNL     1       8.699  29.477  58.215  1.00  0.00    -0.071 N 
HETATM   14  H   UNL     1       8.640  28.733  58.924  1.00  0.00     0.279 HD
HETATM   15  C   UNL     1       9.526  30.606  58.814  1.00  0.00     0.235 C 
HETATM   16  C   UNL     1      10.460  31.014  57.695  1.00  0.00     0.029 C 
HETATM   17  C   UNL     1      10.810  29.685  57.060  1.00  0.00     0.029 C 
HETATM   18  C   UNL     1       9.482  28.950  57.018  1.00  0.00     0.235 C 
ENDBRANCH  12  13
ENDBRANCH  11  12
ENDBRANCH   7  11
ENDBRANCH   2   5
BRANCH   1  19
HETATM   19  C   UNL     1       4.912  28.195  50.085  1.00  0.00     0.065 A 
HETATM   20  C   UNL     1       4.747  28.793  48.819  1.00  0.00     0.020 A 
HETATM   21  C   UNL     1       4.512  28.027  47.677  1.00  0.00     0.001 A 
HETATM   22  C   UNL     1       4.425  26.646  47.783  1.00  0.00     0.003 A 
HETATM   23  C   UNL     1       4.583  26.034  49.027  1.00  0.00     0.038 A 
HETATM   24  C   UNL     1       4.855  26.792  50.178  1.00  0.00     0.084 A 
BRANCH  24  25
HETATM   25  O   UNL     1       4.965  26.184  51.404  1.00  0.00    -0.348 OA
BRANCH  25  26
HETATM   26  C   UNL     1       6.243  25.591  51.682  1.00  0.00     0.207 C 
BRANCH  26  27
HETATM   27  C   UNL     1       6.106  24.537  52.790  1.00  0.00     0.145 C 
HETATM   28  O   UNL     1       5.090  24.968  53.715  1.00  0.00    -0.384 OA
HETATM   29  C   UNL     1       5.711  25.287  54.972  1.00  0.00     0.168 C 
HETATM   30  C   UNL     1       7.202  25.338  54.726  1.00  0.00     0.029 C 
HETATM   31  C   UNL     1       7.369  24.330  53.615  1.00  0.00     0.036 C 
ENDBRANCH  26  27
ENDBRANCH  25  26
ENDBRANCH  24  25
ENDBRANCH   1  19
TORSDOF 8
ENDMDL
