MODEL 1
REMARK VINA RESULT:     -10.2      0.000      0.000
REMARK  5 active torsions:
REMARK  status: ('A' for Active; 'I' for Inactive)
REMARK    1  A    between atoms: C_8  and  N_9 
REMARK    2  A    between atoms: C_12  and  N_13 
REMARK    3  A    between atoms: N_13  and  C_15 
REMARK    4  A    between atoms: C_15  and  C_16 
REMARK    5  A    between atoms: C_17  and  C_18 
ROOT
HETATM    1  N   UNL     1       5.279  26.271  54.897  1.00  0.00    -0.067 N 
HETATM    2  H   UNL     1       4.409  26.148  54.365  1.00  0.00     0.280 HD
HETATM    3  C   UNL     1       5.049  27.449  55.821  1.00  0.00     0.270 C 
ENDROOT
BRANCH   1   4
HETATM    4  C   UNL     1       6.460  26.435  53.920  1.00  0.00     0.190 C 
HETATM    5  C   UNL     1       6.426  25.351  52.828  1.00  0.00     0.048 C 
HETATM    6  C   UNL     1       5.394  25.627  51.735  1.00  0.00     0.099 C 
HETATM    7  N   UNL     1       5.616  26.972  51.191  1.00  0.00    -0.268 NA
HETATM    8  C   UNL     1       5.509  28.052  52.176  1.00  0.00     0.099 C 
HETATM    9  C   UNL     1       6.552  27.824  53.268  1.00  0.00     0.048 C 
BRANCH   7  10
HETATM   10  C   UNL     1       4.973  27.215  49.967  1.00  0.00     0.109 A 
HETATM   11  N   UNL     1       4.317  26.214  49.353  1.00  0.00    -0.224 NA
HETATM   12  C   UNL     1       3.769  26.455  48.135  1.00  0.00     0.102 A 
HETATM   13  N   UNL     1       3.859  27.639  47.513  1.00  0.00    -0.348 N 
HETATM   14  C   UNL     1       3.078  25.328  47.438  1.00  0.00     0.091 C 
HETATM   15  C   UNL     1       4.503  28.660  48.099  1.00  0.00     0.009 A 
HETATM   16  H   UNL     1       3.443  27.751  46.590  1.00  0.00     0.167 HD
HETATM   17  C   UNL     1       4.605  29.966  47.380  1.00  0.00     0.068 C 
HETATM   18  C   UNL     1       5.083  28.459  49.354  1.00  0.00     0.069 A 
ENDBRANCH   7  10
ENDBRANCH   1   4
BRANCH   1  19
HETATM   19  C   UNL     1       5.433  24.993  55.742  1.00  0.00     0.277 C 
BRANCH  19  20
HETATM   20  C   UNL     1       6.711  24.914  56.494  1.00  0.00     0.016 A 
HETATM   21  C   UNL     1       7.793  23.998  56.317  1.00  0.00     0.096 A 
HETATM   22  N   UNL     1       8.726  24.178  57.257  1.00  0.00    -0.174 NA
HETATM   23  N   UNL     1       8.333  25.258  57.942  1.00  0.00    -0.288 N 
HETATM   24  H   UNL     1       8.939  25.613  58.680  1.00  0.00     0.188 HD
HETATM   25  C   UNL     1       7.112  25.718  57.546  1.00  0.00     0.120 A 
BRANCH  21  26
HETATM   26  C   UNL     1       7.939  22.929  55.334  1.00  0.00    -0.005 A 
HETATM   27  C   UNL     1       8.402  23.202  54.038  1.00  0.00     0.017 A 
HETATM   28  C   UNL     1       8.535  22.167  53.109  1.00  0.00     0.043 A 
HETATM   29  C   UNL     1       8.218  20.864  53.479  1.00  0.00     0.116 A 
HETATM   30  F   UNL     1       8.335  19.877  52.582  1.00  0.00    -0.206 F 
HETATM   31  C   UNL     1       7.784  20.572  54.766  1.00  0.00     0.043 A 
HETATM   32  C   UNL     1       7.647  21.605  55.696  1.00  0.00     0.017 A 
ENDBRANCH  21  26
ENDBRANCH  19  20
ENDBRANCH   1  19
TORSDOF 5
ENDMDL
MODEL 2
REMARK VINA RESULT:     -10.1      0.525      1.553
REMARK  5 active torsions:
REMARK  status: ('A' for Active; 'I' for Inactive)
REMARK    1  A    between atoms: C_8  and  N_9 
REMARK    2  A    between atoms: C_12  and  N_13 
REMARK    3  A    between atoms: N_13  and  C_15 
REMARK    4  A    between atoms: C_15  and  C_16 
REMARK    5  A    between atoms: C_17  and  C_18 
ROOT
HETATM    1  N   UNL     1       5.291  26.264  54.834  1.00  0.00    -0.067 N 
HETATM    2  H   UNL     1       4.425  26.147  54.294  1.00  0.00     0.280 HD
HETATM    3  C   UNL     1       5.068  27.458  55.740  1.00  0.00     0.270 C 
ENDROOT
BRANCH   1   4
HETATM    4  C   UNL     1       6.485  26.397  53.868  1.00  0.00     0.190 C 
HETATM    5  C   UNL     1       6.423  25.325  52.766  1.00  0.00     0.048 C 
HETATM    6  C   UNL     1       5.410  25.647  51.667  1.00  0.00     0.099 C 
HETATM    7  N   UNL     1       5.683  26.989  51.138  1.00  0.00    -0.268 NA
HETATM    8  C   UNL     1       5.605  28.062  52.133  1.00  0.00     0.099 C 
HETATM    9  C   UNL     1       6.630  27.788  53.231  1.00  0.00     0.048 C 
BRANCH   7  10
HETATM   10  C   UNL     1       5.060  27.265  49.911  1.00  0.00     0.109 A 
HETATM   11  N   UNL     1       5.065  28.522  49.433  1.00  0.00    -0.224 NA
HETATM   12  C   UNL     1       4.391  28.776  48.283  1.00  0.00     0.102 A 
HETATM   13  N   UNL     1       3.716  27.837  47.607  1.00  0.00    -0.348 N 
HETATM   14  C   UNL     1       4.363  30.183  47.778  1.00  0.00     0.091 C 
HETATM   15  C   UNL     1       3.694  26.572  48.054  1.00  0.00     0.009 A 
HETATM   16  H   UNL     1       3.212  28.095  46.760  1.00  0.00     0.167 HD
HETATM   17  C   UNL     1       2.920  25.543  47.293  1.00  0.00     0.068 C 
HETATM   18  C   UNL     1       4.374  26.262  49.234  1.00  0.00     0.069 A 
ENDBRANCH   7  10
ENDBRANCH   1   4
BRANCH   1  19
HETATM   19  C   UNL     1       5.415  24.996  55.697  1.00  0.00     0.277 C 
BRANCH  19  20
HETATM   20  C   UNL     1       6.678  24.913  56.475  1.00  0.00     0.016 A 
HETATM   21  C   UNL     1       7.761  23.994  56.319  1.00  0.00     0.096 A 
HETATM   22  N   UNL     1       8.676  24.172  57.277  1.00  0.00    -0.174 NA
HETATM   23  N   UNL     1       8.272  25.252  57.955  1.00  0.00    -0.288 N 
HETATM   24  H   UNL     1       8.864  25.605  58.704  1.00  0.00     0.188 HD
HETATM   25  C   UNL     1       7.060  25.715  57.534  1.00  0.00     0.120 A 
BRANCH  21  26
HETATM   26  C   UNL     1       7.923  22.925  55.338  1.00  0.00    -0.005 A 
HETATM   27  C   UNL     1       8.373  23.203  54.039  1.00  0.00     0.017 A 
HETATM   28  C   UNL     1       8.522  22.168  53.112  1.00  0.00     0.043 A 
HETATM   29  C   UNL     1       8.235  20.860  53.488  1.00  0.00     0.116 A 
HETATM   30  F   UNL     1       8.367  19.873  52.594  1.00  0.00    -0.206 F 
HETATM   31  C   UNL     1       7.814  20.564  54.779  1.00  0.00     0.043 A 
HETATM   32  C   UNL     1       7.661  21.596  55.706  1.00  0.00     0.017 A 
ENDBRANCH  21  26
ENDBRANCH  19  20
ENDBRANCH   1  19
TORSDOF 5
ENDMDL
MODEL 3
REMARK VINA RESULT:     -10.0      3.373      7.281
REMARK  5 active torsions:
REMARK  status: ('A' for Active; 'I' for Inactive)
REMARK    1  A    between atoms: C_8  and  N_9 
REMARK    2  A    between atoms: C_12  and  N_13 
REMARK    3  A    between atoms: N_13  and  C_15 
REMARK    4  A    between atoms: C_15  and  C_16 
REMARK    5  A    between atoms: C_17  and  C_18 
ROOT
HETATM    1  N   UNL     1       5.484  26.208  55.484  1.00  0.00    -0.067 N 
HETATM    2  H   UNL     1       4.835  26.929  55.145  1.00  0.00     0.280 HD
HETATM    3  C   UNL     1       5.026  25.850  56.883  1.00  0.00     0.270 C 
ENDROOT
BRANCH   1   4
HETATM    4  C   UNL     1       6.930  26.734  55.389  1.00  0.00     0.190 C 
HETATM    5  C   UNL     1       6.951  28.216  54.979  1.00  0.00     0.048 C 
HETATM    6  C   UNL     1       6.609  29.166  56.127  1.00  0.00     0.099 C 
HETATM    7  N   UNL     1       7.489  28.881  57.267  1.00  0.00    -0.268 NA
HETATM    8  C   UNL     1       7.389  27.513  57.785  1.00  0.00     0.099 C 
HETATM    9  C   UNL     1       7.758  26.539  56.670  1.00  0.00     0.048 C 
BRANCH   7  10
HETATM   10  C   UNL     1       7.516  29.889  58.243  1.00  0.00     0.109 A 
HETATM   11  N   UNL     1       8.407  29.815  59.248  1.00  0.00    -0.224 NA
HETATM   12  C   UNL     1       8.362  30.762  60.219  1.00  0.00     0.102 A 
HETATM   13  N   UNL     1       7.470  31.761  60.227  1.00  0.00    -0.348 N 
HETATM   14  C   UNL     1       9.326  30.650  61.357  1.00  0.00     0.091 C 
HETATM   15  C   UNL     1       6.570  31.867  59.237  1.00  0.00     0.009 A 
HETATM   16  H   UNL     1       7.475  32.429  60.996  1.00  0.00     0.167 HD
HETATM   17  C   UNL     1       5.572  32.980  59.276  1.00  0.00     0.068 C 
HETATM   18  C   UNL     1       6.577  30.915  58.215  1.00  0.00     0.069 A 
ENDBRANCH   7  10
ENDBRANCH   1   4
BRANCH   1  19
HETATM   19  C   UNL     1       5.274  24.994  54.561  1.00  0.00     0.277 C 
BRANCH  19  20
HETATM   20  C   UNL     1       6.046  25.056  53.294  1.00  0.00     0.016 A 
HETATM   21  C   UNL     1       7.162  24.260  52.891  1.00  0.00     0.096 A 
HETATM   22  N   UNL     1       7.652  24.686  51.722  1.00  0.00    -0.174 NA
HETATM   23  N   UNL     1       6.806  25.638  51.312  1.00  0.00    -0.288 N 
HETATM   24  H   UNL     1       6.960  26.063  50.399  1.00  0.00     0.188 HD
HETATM   25  C   UNL     1       5.844  25.922  52.235  1.00  0.00     0.120 A 
BRANCH  21  26
HETATM   26  C   UNL     1       7.809  23.162  53.601  1.00  0.00    -0.005 A 
HETATM   27  C   UNL     1       7.839  21.870  53.056  1.00  0.00     0.017 A 
HETATM   28  C   UNL     1       8.463  20.830  53.750  1.00  0.00     0.043 A 
HETATM   29  C   UNL     1       9.065  21.084  54.978  1.00  0.00     0.116 A 
HETATM   30  F   UNL     1       9.650  20.083  55.645  1.00  0.00    -0.206 F 
HETATM   31  C   UNL     1       9.068  22.363  55.520  1.00  0.00     0.043 A 
HETATM   32  C   UNL     1       8.443  23.404  54.830  1.00  0.00     0.017 A 
ENDBRANCH  21  26
ENDBRANCH  19  20
ENDBRANCH   1  19
TORSDOF 5
ENDMDL
MODEL 4
REMARK VINA RESULT:      -9.7      3.168      6.249
REMARK  5 active torsions:
REMARK  status: ('A' for Active; 'I' for Inactive)
REMARK    1  A    between atoms: C_8  and  N_9 
REMARK    2  A    between atoms: C_12  and  N_13 
REMARK    3  A    between atoms: N_13  and  C_15 
REMARK    4  A    between atoms: C_15  and  C_16 
REMARK    5  A    between atoms: C_17  and  C_18 
ROOT
HETATM    1  N   UNL     1       5.941  25.629  54.229  1.00  0.00    -0.067 N 
HETATM    2  H   UNL     1       6.959  25.544  54.122  1.00  0.00     0.280 HD
HETATM    3  C   UNL     1       5.327  24.656  53.244  1.00  0.00     0.270 C 
ENDROOT
BRANCH   1   4
HETATM    4  C   UNL     1       5.525  27.101  54.032  1.00  0.00     0.190 C 
HETATM    5  C   UNL     1       4.924  27.681  55.324  1.00  0.00     0.048 C 
HETATM    6  C   UNL     1       5.977  28.047  56.369  1.00  0.00     0.099 C 
HETATM    7  N   UNL     1       6.973  28.936  55.759  1.00  0.00    -0.268 NA
HETATM    8  C   UNL     1       7.678  28.361  54.610  1.00  0.00     0.099 C 
HETATM    9  C   UNL     1       6.656  28.014  53.531  1.00  0.00     0.048 C 
BRANCH   7  10
HETATM   10  C   UNL     1       7.786  29.614  56.681  1.00  0.00     0.109 A 
HETATM   11  N   UNL     1       9.124  29.541  56.565  1.00  0.00    -0.224 NA
HETATM   12  C   UNL     1       9.886  30.142  57.513  1.00  0.00     0.102 A 
HETATM   13  N   UNL     1       9.369  30.798  58.561  1.00  0.00    -0.348 N 
HETATM   14  C   UNL     1      11.372  30.021  57.404  1.00  0.00     0.091 C 
HETATM   15  C   UNL     1       8.039  30.894  58.705  1.00  0.00     0.009 A 
HETATM   16  H   UNL     1       9.996  31.211  59.250  1.00  0.00     0.167 HD
HETATM   17  C   UNL     1       7.484  31.615  59.891  1.00  0.00     0.068 C 
HETATM   18  C   UNL     1       7.213  30.290  57.753  1.00  0.00     0.069 A 
ENDBRANCH   7  10
ENDBRANCH   1   4
BRANCH   1  19
HETATM   19  C   UNL     1       5.634  25.155  55.661  1.00  0.00     0.277 C 
BRANCH  19  20
HETATM   20  C   UNL     1       6.841  24.893  56.485  1.00  0.00     0.016 A 
HETATM   21  C   UNL     1       7.834  23.880  56.313  1.00  0.00     0.096 A 
HETATM   22  N   UNL     1       8.713  23.901  57.321  1.00  0.00    -0.174 NA
HETATM   23  N   UNL     1       8.384  24.971  58.053  1.00  0.00    -0.288 N 
HETATM   24  H   UNL     1       8.971  25.212  58.850  1.00  0.00     0.188 HD
HETATM   25  C   UNL     1       7.247  25.582  57.613  1.00  0.00     0.120 A 
BRANCH  21  26
HETATM   26  C   UNL     1       7.938  22.865  55.269  1.00  0.00    -0.005 A 
HETATM   27  C   UNL     1       7.647  21.520  55.541  1.00  0.00     0.017 A 
HETATM   28  C   UNL     1       7.752  20.562  54.530  1.00  0.00     0.043 A 
HETATM   29  C   UNL     1       8.135  20.950  53.250  1.00  0.00     0.116 A 
HETATM   30  F   UNL     1       8.247  20.027  52.288  1.00  0.00    -0.206 F 
HETATM   31  C   UNL     1       8.402  22.281  52.957  1.00  0.00     0.043 A 
HETATM   32  C   UNL     1       8.300  23.241  53.966  1.00  0.00     0.017 A 
ENDBRANCH  21  26
ENDBRANCH  19  20
ENDBRANCH   1  19
TORSDOF 5
ENDMDL
MODEL 5
REMARK VINA RESULT:      -9.6      3.447      6.743
REMARK  5 active torsions:
REMARK  status: ('A' for Active; 'I' for Inactive)
REMARK    1  A    between atoms: C_8  and  N_9 
REMARK    2  A    between atoms: C_12  and  N_13 
REMARK    3  A    between atoms: N_13  and  C_15 
REMARK    4  A    between atoms: C_15  and  C_16 
REMARK    5  A    between atoms: C_17  and  C_18 
ROOT
HETATM    1  N   UNL     1       6.250  26.831  54.806  1.00  0.00    -0.067 N 
HETATM    2  H   UNL     1       7.059  27.212  55.313  1.00  0.00     0.280 HD
HETATM    3  C   UNL     1       6.698  26.646  53.370  1.00  0.00     0.270 C 
ENDROOT
BRANCH   1   4
HETATM    4  C   UNL     1       5.040  27.767  54.992  1.00  0.00     0.190 C 
HETATM    5  C   UNL     1       4.522  27.717  56.440  1.00  0.00     0.048 C 
HETATM    6  C   UNL     1       5.381  28.521  57.416  1.00  0.00     0.099 C 
HETATM    7  N   UNL     1       5.526  29.893  56.914  1.00  0.00    -0.268 NA
HETATM    8  C   UNL     1       6.154  29.993  55.593  1.00  0.00     0.099 C 
HETATM    9  C   UNL     1       5.301  29.226  54.586  1.00  0.00     0.048 C 
BRANCH   7  10
HETATM   10  C   UNL     1       5.989  30.812  57.868  1.00  0.00     0.109 A 
HETATM   11  N   UNL     1       7.280  30.786  58.242  1.00  0.00    -0.224 NA
HETATM   12  C   UNL     1       7.685  31.635  59.220  1.00  0.00     0.102 A 
HETATM   13  N   UNL     1       6.858  32.491  59.834  1.00  0.00    -0.348 N 
HETATM   14  C   UNL     1       9.111  31.572  59.663  1.00  0.00     0.091 C 
HETATM   15  C   UNL     1       5.564  32.547  59.482  1.00  0.00     0.009 A 
HETATM   16  H   UNL     1       7.218  33.089  60.576  1.00  0.00     0.167 HD
HETATM   17  C   UNL     1       4.655  33.498  60.193  1.00  0.00     0.068 C 
HETATM   18  C   UNL     1       5.101  31.692  58.479  1.00  0.00     0.069 A 
ENDBRANCH   7  10
ENDBRANCH   1   4
BRANCH   1  19
HETATM   19  C   UNL     1       5.984  25.450  55.431  1.00  0.00     0.277 C 
BRANCH  19  20
HETATM   20  C   UNL     1       7.041  24.994  56.369  1.00  0.00     0.016 A 
HETATM   21  C   UNL     1       7.879  23.841  56.275  1.00  0.00     0.096 A 
HETATM   22  N   UNL     1       8.637  23.714  57.369  1.00  0.00    -0.174 NA
HETATM   23  N   UNL     1       8.400  24.815  58.091  1.00  0.00    -0.288 N 
HETATM   24  H   UNL     1       8.928  24.954  58.951  1.00  0.00     0.188 HD
HETATM   25  C   UNL     1       7.425  25.601  57.551  1.00  0.00     0.120 A 
BRANCH  21  26
HETATM   26  C   UNL     1       7.938  22.833  55.221  1.00  0.00    -0.005 A 
HETATM   27  C   UNL     1       8.021  23.207  53.871  1.00  0.00     0.017 A 
HETATM   28  C   UNL     1       8.075  22.230  52.875  1.00  0.00     0.043 A 
HETATM   29  C   UNL     1       8.060  20.885  53.228  1.00  0.00     0.116 A 
HETATM   30  F   UNL     1       8.100  19.951  52.269  1.00  0.00    -0.206 F 
HETATM   31  C   UNL     1       8.006  20.496  54.561  1.00  0.00     0.043 A 
HETATM   32  C   UNL     1       7.948  21.471  55.559  1.00  0.00     0.017 A 
ENDBRANCH  21  26
ENDBRANCH  19  20
ENDBRANCH   1  19
TORSDOF 5
ENDMDL
MODEL 6
REMARK VINA RESULT:      -9.5      4.529      8.197
REMARK  5 active torsions:
REMARK  status: ('A' for Active; 'I' for Inactive)
REMARK    1  A    between atoms: C_8  and  N_9 
REMARK    2  A    between atoms: C_12  and  N_13 
REMARK    3  A    between atoms: N_13  and  C_15 
REMARK    4  A    between atoms: C_15  and  C_16 
REMARK    5  A    between atoms: C_17  and  C_18 
ROOT
HETATM    1  N   UNL     1       7.263  27.604  56.323  1.00  0.00    -0.067 N 
HETATM    2  H   UNL     1       6.241  27.617  56.427  1.00  0.00     0.280 HD
HETATM    3  C   UNL     1       7.807  26.929  57.566  1.00  0.00     0.270 C 
ENDROOT
BRANCH   1   4
HETATM    4  C   UNL     1       7.774  29.039  56.089  1.00  0.00     0.190 C 
HETATM    5  C   UNL     1       6.609  30.045  56.086  1.00  0.00     0.048 C 
HETATM    6  C   UNL     1       6.099  30.382  57.487  1.00  0.00     0.099 C 
HETATM    7  N   UNL     1       7.226  30.823  58.318  1.00  0.00    -0.268 NA
HETATM    8  C   UNL     1       8.295  29.832  58.468  1.00  0.00     0.099 C 
HETATM    9  C   UNL     1       8.851  29.497  57.086  1.00  0.00     0.048 C 
BRANCH   7  10
HETATM   10  C   UNL     1       6.851  31.482  59.499  1.00  0.00     0.109 A 
HETATM   11  N   UNL     1       5.708  32.189  59.529  1.00  0.00    -0.224 NA
HETATM   12  C   UNL     1       5.407  32.878  60.659  1.00  0.00     0.102 A 
HETATM   13  N   UNL     1       6.198  32.893  61.740  1.00  0.00    -0.348 N 
HETATM   14  C   UNL     1       4.156  33.698  60.673  1.00  0.00     0.091 C 
HETATM   15  C   UNL     1       7.344  32.195  61.745  1.00  0.00     0.009 A 
HETATM   16  H   UNL     1       5.926  33.447  62.551  1.00  0.00     0.167 HD
HETATM   17  C   UNL     1       8.219  32.239  62.957  1.00  0.00     0.068 C 
HETATM   18  C   UNL     1       7.695  31.470  60.605  1.00  0.00     0.069 A 
ENDBRANCH   7  10
ENDBRANCH   1   4
BRANCH   1  19
HETATM   19  C   UNL     1       7.545  26.710  55.102  1.00  0.00     0.277 C 
BRANCH  19  20
HETATM   20  C   UNL     1       6.323  26.195  54.433  1.00  0.00     0.016 A 
HETATM   21  C   UNL     1       6.039  24.864  53.997  1.00  0.00     0.096 A 
HETATM   22  N   UNL     1       4.875  24.817  53.343  1.00  0.00    -0.174 NA
HETATM   23  N   UNL     1       4.353  26.043  53.462  1.00  0.00    -0.288 N 
HETATM   24  H   UNL     1       3.424  26.215  53.081  1.00  0.00     0.188 HD
HETATM   25  C   UNL     1       5.198  26.918  54.079  1.00  0.00     0.120 A 
BRANCH  21  26
HETATM   26  C   UNL     1       6.858  23.663  54.126  1.00  0.00    -0.005 A 
HETATM   27  C   UNL     1       7.105  23.091  55.383  1.00  0.00     0.017 A 
HETATM   28  C   UNL     1       7.891  21.942  55.488  1.00  0.00     0.043 A 
HETATM   29  C   UNL     1       8.418  21.360  54.340  1.00  0.00     0.116 A 
HETATM   30  F   UNL     1       9.181  20.266  54.447  1.00  0.00    -0.206 F 
HETATM   31  C   UNL     1       8.161  21.897  53.085  1.00  0.00     0.043 A 
HETATM   32  C   UNL     1       7.378  23.048  52.977  1.00  0.00     0.017 A 
ENDBRANCH  21  26
ENDBRANCH  19  20
ENDBRANCH   1  19
TORSDOF 5
ENDMDL
MODEL 7
REMARK VINA RESULT:      -9.1      3.953      7.159
REMARK  5 active torsions:
REMARK  status: ('A' for Active; 'I' for Inactive)
REMARK    1  A    between atoms: C_8  and  N_9 
REMARK    2  A    between atoms: C_12  and  N_13 
REMARK    3  A    between atoms: N_13  and  C_15 
REMARK    4  A    between atoms: C_15  and  C_16 
REMARK    5  A    between atoms: C_17  and  C_18 
ROOT
HETATM    1  N   UNL     1       4.980  27.752  54.441  1.00  0.00    -0.067 N 
HETATM    2  H   UNL     1       4.536  26.974  54.943  1.00  0.00     0.280 HD
HETATM    3  C   UNL     1       3.895  28.784  54.211  1.00  0.00     0.270 C 
ENDROOT
BRANCH   1   4
HETATM    4  C   UNL     1       5.652  27.221  53.160  1.00  0.00     0.190 C 
HETATM    5  C   UNL     1       7.169  27.063  53.357  1.00  0.00     0.048 C 
HETATM    6  C   UNL     1       7.549  25.816  54.156  1.00  0.00     0.099 C 
HETATM    7  N   UNL     1       6.934  24.638  53.531  1.00  0.00    -0.268 NA
HETATM    8  C   UNL     1       5.471  24.683  53.458  1.00  0.00     0.099 C 
HETATM    9  C   UNL     1       5.058  25.902  52.636  1.00  0.00     0.048 C 
BRANCH   7  10
HETATM   10  C   UNL     1       7.474  23.412  53.950  1.00  0.00     0.109 A 
HETATM   11  N   UNL     1       7.735  22.457  53.040  1.00  0.00    -0.224 NA
HETATM   12  C   UNL     1       8.186  21.255  53.480  1.00  0.00     0.102 A 
HETATM   13  N   UNL     1       8.375  20.974  54.776  1.00  0.00    -0.348 N 
HETATM   14  C   UNL     1       8.433  20.182  52.468  1.00  0.00     0.091 C 
HETATM   15  C   UNL     1       8.128  21.906  55.710  1.00  0.00     0.009 A 
HETATM   16  H   UNL     1       8.696  20.045  55.044  1.00  0.00     0.167 HD
HETATM   17  C   UNL     1       8.331  21.564  57.151  1.00  0.00     0.068 C 
HETATM   18  C   UNL     1       7.663  23.159  55.304  1.00  0.00     0.069 A 
ENDBRANCH   7  10
ENDBRANCH   1   4
BRANCH   1  19
HETATM   19  C   UNL     1       6.024  28.330  55.414  1.00  0.00     0.277 C 
BRANCH  19  20
HETATM   20  C   UNL     1       6.418  27.400  56.503  1.00  0.00     0.016 A 
HETATM   21  C   UNL     1       7.448  27.558  57.480  1.00  0.00     0.096 A 
HETATM   22  N   UNL     1       7.566  26.456  58.228  1.00  0.00    -0.174 NA
HETATM   23  N   UNL     1       6.563  25.659  57.842  1.00  0.00    -0.288 N 
HETATM   24  H   UNL     1       6.428  24.776  58.332  1.00  0.00     0.188 HD
HETATM   25  C   UNL     1       5.864  26.164  56.785  1.00  0.00     0.120 A 
BRANCH  21  26
HETATM   26  C   UNL     1       8.354  28.683  57.684  1.00  0.00    -0.005 A 
HETATM   27  C   UNL     1       8.086  29.655  58.660  1.00  0.00     0.017 A 
HETATM   28  C   UNL     1       8.964  30.727  58.841  1.00  0.00     0.043 A 
HETATM   29  C   UNL     1      10.111  30.818  58.059  1.00  0.00     0.116 A 
HETATM   30  F   UNL     1      10.943  31.853  58.227  1.00  0.00    -0.206 F 
HETATM   31  C   UNL     1      10.405  29.850  57.107  1.00  0.00     0.043 A 
HETATM   32  C   UNL     1       9.528  28.780  56.921  1.00  0.00     0.017 A 
ENDBRANCH  21  26
ENDBRANCH  19  20
ENDBRANCH   1  19
TORSDOF 5
ENDMDL
MODEL 8
REMARK VINA RESULT:      -9.1      3.075      6.804
REMARK  5 active torsions:
REMARK  status: ('A' for Active; 'I' for Inactive)
REMARK    1  A    between atoms: C_8  and  N_9 
REMARK    2  A    between atoms: C_12  and  N_13 
REMARK    3  A    between atoms: N_13  and  C_15 
REMARK    4  A    between atoms: C_15  and  C_16 
REMARK    5  A    between atoms: C_17  and  C_18 
ROOT
HETATM    1  N   UNL     1       4.705  28.091  53.386  1.00  0.00    -0.067 N 
HETATM    2  H   UNL     1       4.734  27.523  54.242  1.00  0.00     0.280 HD
HETATM    3  C   UNL     1       3.285  28.001  52.865  1.00  0.00     0.270 C 
ENDROOT
BRANCH   1   4
HETATM    4  C   UNL     1       5.788  27.596  52.407  1.00  0.00     0.190 C 
HETATM    5  C   UNL     1       7.153  27.481  53.107  1.00  0.00     0.048 C 
HETATM    6  C   UNL     1       7.280  26.235  53.983  1.00  0.00     0.099 C 
HETATM    7  N   UNL     1       6.951  25.048  53.183  1.00  0.00    -0.268 NA
HETATM    8  C   UNL     1       5.599  25.051  52.619  1.00  0.00     0.099 C 
HETATM    9  C   UNL     1       5.450  26.268  51.710  1.00  0.00     0.048 C 
BRANCH   7  10
HETATM   10  C   UNL     1       7.357  23.834  53.758  1.00  0.00     0.109 A 
HETATM   11  N   UNL     1       7.554  23.761  55.086  1.00  0.00    -0.224 NA
HETATM   12  C   UNL     1       8.019  22.597  55.606  1.00  0.00     0.102 A 
HETATM   13  N   UNL     1       8.298  21.521  54.858  1.00  0.00    -0.348 N 
HETATM   14  C   UNL     1       8.277  22.535  57.077  1.00  0.00     0.091 C 
HETATM   15  C   UNL     1       8.109  21.558  53.530  1.00  0.00     0.009 A 
HETATM   16  H   UNL     1       8.664  20.683  55.306  1.00  0.00     0.167 HD
HETATM   17  C   UNL     1       8.443  20.351  52.713  1.00  0.00     0.068 C 
HETATM   18  C   UNL     1       7.632  22.735  52.949  1.00  0.00     0.069 A 
ENDBRANCH   7  10
ENDBRANCH   1   4
BRANCH   1  19
HETATM   19  C   UNL     1       4.984  29.536  53.837  1.00  0.00     0.277 C 
BRANCH  19  20
HETATM   20  C   UNL     1       4.336  29.906  55.121  1.00  0.00     0.016 A 
HETATM   21  C   UNL     1       4.575  29.374  56.425  1.00  0.00     0.096 A 
HETATM   22  N   UNL     1       3.719  29.891  57.312  1.00  0.00    -0.174 NA
HETATM   23  N   UNL     1       3.035  30.823  56.641  1.00  0.00    -0.288 N 
HETATM   24  H   UNL     1       2.359  31.390  57.150  1.00  0.00     0.188 HD
HETATM   25  C   UNL     1       3.343  30.849  55.312  1.00  0.00     0.120 A 
BRANCH  21  26
HETATM   26  C   UNL     1       5.537  28.358  56.839  1.00  0.00    -0.005 A 
HETATM   27  C   UNL     1       5.166  27.008  56.926  1.00  0.00     0.017 A 
HETATM   28  C   UNL     1       6.100  26.048  57.324  1.00  0.00     0.043 A 
HETATM   29  C   UNL     1       7.402  26.436  57.621  1.00  0.00     0.116 A 
HETATM   30  F   UNL     1       8.290  25.515  58.015  1.00  0.00    -0.206 F 
HETATM   31  C   UNL     1       7.794  27.764  57.515  1.00  0.00     0.043 A 
HETATM   32  C   UNL     1       6.862  28.726  57.120  1.00  0.00     0.017 A 
ENDBRANCH  21  26
ENDBRANCH  19  20
ENDBRANCH   1  19
TORSDOF 5
ENDMDL
MODEL 9
REMARK VINA RESULT:      -8.8      7.421     10.297
REMARK  5 active torsions:
REMARK  status: ('A' for Active; 'I' for Inactive)
REMARK    1  A    between atoms: C_8  and  N_9 
REMARK    2  A    between atoms: C_12  and  N_13 
REMARK    3  A    between atoms: N_13  and  C_15 
REMARK    4  A    between atoms: C_15  and  C_16 
REMARK    5  A    between atoms: C_17  and  C_18 
ROOT
HETATM    1  N   UNL     1       4.899  31.976  59.691  1.00  0.00    -0.067 N 
HETATM    2  H   UNL     1       5.112  30.979  59.821  1.00  0.00     0.280 HD
HETATM    3  C   UNL     1       3.664  32.258  60.522  1.00  0.00     0.270 C 
ENDROOT
BRANCH   1   4
HETATM    4  C   UNL     1       4.751  32.277  58.186  1.00  0.00     0.190 C 
HETATM    5  C   UNL     1       6.002  31.831  57.410  1.00  0.00     0.048 C 
HETATM    6  C   UNL     1       6.060  30.322  57.172  1.00  0.00     0.099 C 
HETATM    7  N   UNL     1       4.811  29.887  56.533  1.00  0.00    -0.268 NA
HETATM    8  C   UNL     1       3.601  30.161  57.313  1.00  0.00     0.099 C 
HETATM    9  C   UNL     1       3.496  31.667  57.541  1.00  0.00     0.048 C 
BRANCH   7  10
HETATM   10  C   UNL     1       4.872  28.610  55.954  1.00  0.00     0.109 A 
HETATM   11  N   UNL     1       5.114  27.540  56.732  1.00  0.00    -0.224 NA
HETATM   12  C   UNL     1       5.243  26.327  56.136  1.00  0.00     0.102 A 
HETATM   13  N   UNL     1       5.148  26.148  54.812  1.00  0.00    -0.348 N 
HETATM   14  C   UNL     1       5.555  25.148  57.000  1.00  0.00     0.091 C 
HETATM   15  C   UNL     1       4.903  27.193  54.007  1.00  0.00     0.009 A 
HETATM   16  H   UNL     1       5.275  25.215  54.424  1.00  0.00     0.167 HD
HETATM   17  C   UNL     1       4.819  26.973  52.531  1.00  0.00     0.068 C 
HETATM   18  C   UNL     1       4.763  28.462  54.575  1.00  0.00     0.069 A 
ENDBRANCH   7  10
ENDBRANCH   1   4
BRANCH   1  19
HETATM   19  C   UNL     1       6.094  32.736  60.293  1.00  0.00     0.277 C 
BRANCH  19  20
HETATM   20  C   UNL     1       7.090  31.865  60.968  1.00  0.00     0.016 A 
HETATM   21  C   UNL     1       7.423  31.801  62.356  1.00  0.00     0.096 A 
HETATM   22  N   UNL     1       8.445  30.964  62.561  1.00  0.00    -0.174 NA
HETATM   23  N   UNL     1       8.684  30.401  61.371  1.00  0.00    -0.288 N 
HETATM   24  H   UNL     1       9.396  29.676  61.311  1.00  0.00     0.188 HD
HETATM   25  C   UNL     1       7.920  30.932  60.373  1.00  0.00     0.120 A 
BRANCH  21  26
HETATM   26  C   UNL     1       6.850  32.547  63.471  1.00  0.00    -0.005 A 
HETATM   27  C   UNL     1       5.462  32.588  63.673  1.00  0.00     0.017 A 
HETATM   28  C   UNL     1       4.930  33.307  64.746  1.00  0.00     0.043 A 
HETATM   29  C   UNL     1       5.783  33.972  65.620  1.00  0.00     0.116 A 
HETATM   30  F   UNL     1       5.269  34.671  66.639  1.00  0.00    -0.206 F 
HETATM   31  C   UNL     1       7.161  33.920  65.451  1.00  0.00     0.043 A 
HETATM   32  C   UNL     1       7.696  33.205  64.378  1.00  0.00     0.017 A 
ENDBRANCH  21  26
ENDBRANCH  19  20
ENDBRANCH   1  19
TORSDOF 5
ENDMDL
MODEL 10
REMARK VINA RESULT:      -8.7      4.980      7.756
REMARK  5 active torsions:
REMARK  status: ('A' for Active; 'I' for Inactive)
REMARK    1  A    between atoms: C_8  and  N_9 
REMARK    2  A    between atoms: C_12  and  N_13 
REMARK    3  A    between atoms: N_13  and  C_15 
REMARK    4  A    between atoms: C_15  and  C_16 
REMARK    5  A    between atoms: C_17  and  C_18 
ROOT
HETATM    1  N   UNL     1       4.590  31.304  58.503  1.00  0.00    -0.067 N 
HETATM    2  H   UNL     1       4.999  30.399  58.769  1.00  0.00     0.280 HD
HETATM    3  C   UNL     1       3.404  31.519  59.421  1.00  0.00     0.270 C 
ENDROOT
BRANCH   1   4
HETATM    4  C   UNL     1       4.253  31.292  56.999  1.00  0.00     0.190 C 
HETATM    5  C   UNL     1       5.532  31.199  56.149  1.00  0.00     0.048 C 
HETATM    6  C   UNL     1       6.122  29.790  56.097  1.00  0.00     0.099 C 
HETATM    7  N   UNL     1       5.083  28.848  55.663  1.00  0.00    -0.268 NA
HETATM    8  C   UNL     1       3.905  28.798  56.533  1.00  0.00     0.099 C 
HETATM    9  C   UNL     1       3.271  30.186  56.580  1.00  0.00     0.048 C 
BRANCH   7  10
HETATM   10  C   UNL     1       5.571  27.600  55.245  1.00  0.00     0.109 A 
HETATM   11  N   UNL     1       5.031  27.003  54.168  1.00  0.00    -0.224 NA
HETATM   12  C   UNL     1       5.469  25.764  53.831  1.00  0.00     0.102 A 
HETATM   13  N   UNL     1       6.408  25.105  54.524  1.00  0.00    -0.348 N 
HETATM   14  C   UNL     1       4.835  25.086  52.659  1.00  0.00     0.091 C 
HETATM   15  C   UNL     1       6.971  25.674  55.601  1.00  0.00     0.009 A 
HETATM   16  H   UNL     1       6.680  24.168  54.232  1.00  0.00     0.167 HD
HETATM   17  C   UNL     1       8.005  24.914  56.370  1.00  0.00     0.068 C 
HETATM   18  C   UNL     1       6.552  26.949  55.987  1.00  0.00     0.069 A 
ENDBRANCH   7  10
ENDBRANCH   1   4
BRANCH   1  19
HETATM   19  C   UNL     1       5.668  32.355  58.821  1.00  0.00     0.277 C 
BRANCH  19  20
HETATM   20  C   UNL     1       6.416  32.096  60.078  1.00  0.00     0.016 A 
HETATM   21  C   UNL     1       7.675  31.442  60.247  1.00  0.00     0.096 A 
HETATM   22  N   UNL     1       7.969  31.309  61.544  1.00  0.00    -0.174 NA
HETATM   23  N   UNL     1       7.005  31.968  62.195  1.00  0.00    -0.288 N 
HETATM   24  H   UNL     1       7.067  32.045  63.209  1.00  0.00     0.188 HD
HETATM   25  C   UNL     1       6.028  32.431  61.363  1.00  0.00     0.120 A 
BRANCH  21  26
HETATM   26  C   UNL     1       8.566  30.892  59.232  1.00  0.00    -0.005 A 
HETATM   27  C   UNL     1       8.316  29.636  58.659  1.00  0.00     0.017 A 
HETATM   28  C   UNL     1       9.180  29.123  57.688  1.00  0.00     0.043 A 
HETATM   29  C   UNL     1      10.281  29.870  57.283  1.00  0.00     0.116 A 
HETATM   30  F   UNL     1      11.113  29.370  56.361  1.00  0.00    -0.206 F 
HETATM   31  C   UNL     1      10.529  31.127  57.820  1.00  0.00     0.043 A 
HETATM   32  C   UNL     1       9.669  31.640  58.793  1.00  0.00     0.017 A 
ENDBRANCH  21  26
ENDBRANCH  19  20
ENDBRANCH   1  19
TORSDOF 5
ENDMDL
