MODEL 1
REMARK VINA RESULT:      -8.6      0.000      0.000
REMARK  10 active torsions:
REMARK  status: ('A' for Active; 'I' for Inactive)
REMARK    1  A    between atoms: C_2  and  C_3 
REMARK    2  A    between atoms: C_3  and  N_4 
REMARK    3  A    between atoms: C_10  and  C_11 
REMARK    4  A    between atoms: C_11  and  C_12 
REMARK    5  A    between atoms: C_12  and  S_13 
REMARK    6  A    between atoms: S_13  and  C_14 
REMARK    7  A    between atoms: N_15  and  C_16 
REMARK    8  A    between atoms: C_23  and  C_24 
REMARK    9  A    between atoms: C_24  and  N_25 
REMARK   10  A    between atoms: C_33  and  N_34 
ROOT
HETATM    1  S   UNL     1       6.565  26.864  56.722  1.00  0.00    -0.082 SA
ENDROOT
BRANCH   1   2
HETATM    2  C   UNL     1       7.634  27.766  57.886  1.00  0.00     0.166 C 
BRANCH   2   3
HETATM    3  C   UNL     1       7.759  29.229  57.475  1.00  0.00     0.177 C 
HETATM    4  O   UNL     1       8.248  29.570  56.390  1.00  0.00    -0.291 OA
BRANCH   3   5
HETATM    5  C   UNL     1       7.215  30.269  58.407  1.00  0.00     0.117 A 
HETATM    6  C   UNL     1       5.825  30.736  58.257  1.00  0.00     0.266 A 
HETATM    7  N   UNL     1       5.438  31.758  59.058  1.00  0.00    -0.274 N 
HETATM    8  O   UNL     1       5.056  30.214  57.455  1.00  0.00    -0.267 OA
HETATM    9  C   UNL     1       6.199  32.336  60.028  1.00  0.00     0.330 A 
HETATM   10  H   UNL     1       4.493  32.100  58.969  1.00  0.00     0.173 HD
HETATM   11  N   UNL     1       7.488  31.829  60.180  1.00  0.00    -0.289 N 
HETATM   12  O   UNL     1       5.719  33.248  60.698  1.00  0.00    -0.246 OA
HETATM   13  C   UNL     1       7.999  30.803  59.376  1.00  0.00     0.103 A 
BRANCH  11  14
HETATM   14  C   UNL     1       8.329  32.492  61.190  1.00  0.00     0.135 C 
BRANCH  14  15
HETATM   15  C   UNL     1       8.287  31.825  62.571  1.00  0.00     0.016 C 
HETATM   16  C   UNL     1       7.859  32.770  63.683  1.00  0.00     0.006 C 
ENDBRANCH  14  15
ENDBRANCH  11  14
BRANCH  13  17
HETATM   17  N   UNL     1       9.304  30.356  59.572  1.00  0.00    -0.287 NA
HETATM   18  H   UNL     1       9.809  30.244  58.685  1.00  0.00     0.125 HD
HETATM   19  H   UNL     1       9.343  29.482  60.089  1.00  0.00     0.125 HD
ENDBRANCH  13  17
ENDBRANCH   3   5
ENDBRANCH   2   3
ENDBRANCH   1   2
BRANCH   1  20
HETATM   20  C   UNL     1       7.520  25.448  56.436  1.00  0.00     0.196 A 
HETATM   21  N   UNL     1       7.489  24.693  55.278  1.00  0.00    -0.274 N 
HETATM   22  C   UNL     1       8.283  23.584  55.576  1.00  0.00     0.166 A 
HETATM   23  N   UNL     1       8.711  23.683  56.820  1.00  0.00    -0.131 NA
HETATM   24  N   UNL     1       8.236  24.843  57.355  1.00  0.00    -0.122 NA
BRANCH  21  25
HETATM   25  C   UNL     1       6.841  24.989  54.052  1.00  0.00     0.043 A 
HETATM   26  C   UNL     1       5.465  24.757  53.918  1.00  0.00     0.032 A 
HETATM   27  C   UNL     1       4.818  25.061  52.718  1.00  0.00     0.026 A 
HETATM   28  C   UNL     1       5.544  25.590  51.654  1.00  0.00     0.034 A 
HETATM   29 CL   UNL     1       4.747  25.965  50.178  1.00  0.00    -0.084 Cl
HETATM   30  C   UNL     1       6.915  25.813  51.778  1.00  0.00     0.026 A 
HETATM   31  C   UNL     1       7.570  25.514  52.976  1.00  0.00     0.032 A 
ENDBRANCH  21  25
BRANCH  22  32
HETATM   32  C   UNL     1       8.695  22.502  54.622  1.00  0.00     0.254 C 
HETATM   33  C   UNL     1      10.052  21.892  54.988  1.00  0.00     0.049 C 
BRANCH  32  34
HETATM   34  N   UNL     1       7.670  21.353  54.452  1.00  0.00    -0.068 N 
HETATM   35  H   UNL     1       6.750  21.803  54.398  1.00  0.00     0.279 HD
HETATM   36  C   UNL     1       7.806  20.537  53.188  1.00  0.00     0.270 C 
HETATM   37  C   UNL     1       7.618  20.449  55.659  1.00  0.00     0.270 C 
ENDBRANCH  32  34
ENDBRANCH  22  32
ENDBRANCH   1  20
TORSDOF 10
ENDMDL
MODEL 2
REMARK VINA RESULT:      -8.4      1.510      2.250
REMARK  10 active torsions:
REMARK  status: ('A' for Active; 'I' for Inactive)
REMARK    1  A    between atoms: C_2  and  C_3 
REMARK    2  A    between atoms: C_3  and  N_4 
REMARK    3  A    between atoms: C_10  and  C_11 
REMARK    4  A    between atoms: C_11  and  C_12 
REMARK    5  A    between atoms: C_12  and  S_13 
REMARK    6  A    between atoms: S_13  and  C_14 
REMARK    7  A    between atoms: N_15  and  C_16 
REMARK    8  A    between atoms: C_23  and  C_24 
REMARK    9  A    between atoms: C_24  and  N_25 
REMARK   10  A    between atoms: C_33  and  N_34 
ROOT
HETATM    1  S   UNL     1       7.299  26.555  57.404  1.00  0.00    -0.082 SA
ENDROOT
BRANCH   1   2
HETATM    2  C   UNL     1       8.699  27.593  56.876  1.00  0.00     0.166 C 
BRANCH   2   3
HETATM    3  C   UNL     1       8.240  29.027  56.634  1.00  0.00     0.177 C 
HETATM    4  O   UNL     1       7.502  29.333  55.688  1.00  0.00    -0.291 OA
BRANCH   3   5
HETATM    5  C   UNL     1       8.665  30.075  57.617  1.00  0.00     0.117 A 
HETATM    6  C   UNL     1      10.051  30.577  57.602  1.00  0.00     0.266 A 
HETATM    7  N   UNL     1      10.396  31.438  58.591  1.00  0.00    -0.274 N 
HETATM    8  O   UNL     1      10.846  30.242  56.729  1.00  0.00    -0.267 OA
HETATM    9  C   UNL     1       9.556  31.923  59.547  1.00  0.00     0.330 A 
HETATM   10  H   UNL     1      11.341  31.790  58.607  1.00  0.00     0.173 HD
HETATM   11  N   UNL     1       8.239  31.470  59.494  1.00  0.00    -0.289 N 
HETATM   12  O   UNL     1       9.995  32.713  60.380  1.00  0.00    -0.246 OA
HETATM   13  C   UNL     1       7.792  30.551  58.539  1.00  0.00     0.103 A 
BRANCH  11  14
HETATM   14  C   UNL     1       7.347  31.952  60.561  1.00  0.00     0.135 C 
BRANCH  14  15
HETATM   15  C   UNL     1       7.580  31.280  61.919  1.00  0.00     0.016 C 
HETATM   16  C   UNL     1       7.916  32.266  63.028  1.00  0.00     0.006 C 
ENDBRANCH  14  15
ENDBRANCH  11  14
BRANCH  13  17
HETATM   17  N   UNL     1       6.464  30.128  58.555  1.00  0.00    -0.287 NA
HETATM   18  H   UNL     1       5.946  30.518  59.351  1.00  0.00     0.125 HD
HETATM   19  H   UNL     1       6.377  29.115  58.566  1.00  0.00     0.125 HD
ENDBRANCH  13  17
ENDBRANCH   3   5
ENDBRANCH   2   3
ENDBRANCH   1   2
BRANCH   1  20
HETATM   20  C   UNL     1       7.743  25.034  56.704  1.00  0.00     0.196 A 
HETATM   21  N   UNL     1       7.350  24.595  55.453  1.00  0.00    -0.274 N 
HETATM   22  C   UNL     1       7.801  23.275  55.402  1.00  0.00     0.166 A 
HETATM   23  N   UNL     1       8.383  22.974  56.547  1.00  0.00    -0.131 NA
HETATM   24  N   UNL     1       8.346  24.069  57.357  1.00  0.00    -0.122 NA
BRANCH  21  25
HETATM   25  C   UNL     1       6.682  25.321  54.435  1.00  0.00     0.043 A 
HETATM   26  C   UNL     1       5.349  25.016  54.123  1.00  0.00     0.032 A 
HETATM   27  C   UNL     1       4.681  25.738  53.132  1.00  0.00     0.026 A 
HETATM   28  C   UNL     1       5.342  26.757  52.452  1.00  0.00     0.034 A 
HETATM   29 CL   UNL     1       4.519  27.646  51.233  1.00  0.00    -0.084 Cl
HETATM   30  C   UNL     1       6.671  27.058  52.750  1.00  0.00     0.026 A 
HETATM   31  C   UNL     1       7.346  26.341  53.743  1.00  0.00     0.032 A 
ENDBRANCH  21  25
BRANCH  22  32
HETATM   32  C   UNL     1       7.753  22.363  54.211  1.00  0.00     0.254 C 
HETATM   33  C   UNL     1       8.265  23.045  52.939  1.00  0.00     0.049 C 
BRANCH  32  34
HETATM   34  N   UNL     1       8.503  21.019  54.384  1.00  0.00    -0.068 N 
HETATM   35  H   UNL     1       9.445  21.263  54.710  1.00  0.00     0.279 HD
HETATM   36  C   UNL     1       7.936  20.082  55.423  1.00  0.00     0.270 C 
HETATM   37  C   UNL     1       8.695  20.297  53.073  1.00  0.00     0.270 C 
ENDBRANCH  32  34
ENDBRANCH  22  32
ENDBRANCH   1  20
TORSDOF 10
ENDMDL
MODEL 3
REMARK VINA RESULT:      -8.4      3.162      4.939
REMARK  10 active torsions:
REMARK  status: ('A' for Active; 'I' for Inactive)
REMARK    1  A    between atoms: C_2  and  C_3 
REMARK    2  A    between atoms: C_3  and  N_4 
REMARK    3  A    between atoms: C_10  and  C_11 
REMARK    4  A    between atoms: C_11  and  C_12 
REMARK    5  A    between atoms: C_12  and  S_13 
REMARK    6  A    between atoms: S_13  and  C_14 
REMARK    7  A    between atoms: N_15  and  C_16 
REMARK    8  A    between atoms: C_23  and  C_24 
REMARK    9  A    between atoms: C_24  and  N_25 
REMARK   10  A    between atoms: C_33  and  N_34 
ROOT
HETATM    1  S   UNL     1       5.204  31.043  55.762  1.00  0.00    -0.082 SA
ENDROOT
BRANCH   1   2
HETATM    2  C   UNL     1       4.332  31.291  57.340  1.00  0.00     0.166 C 
BRANCH   2   3
HETATM    3  C   UNL     1       4.942  32.458  58.111  1.00  0.00     0.177 C 
HETATM    4  O   UNL     1       5.298  33.503  57.552  1.00  0.00    -0.291 OA
BRANCH   3   5
HETATM    5  C   UNL     1       5.055  32.332  59.600  1.00  0.00     0.117 A 
HETATM    6  C   UNL     1       3.836  32.247  60.424  1.00  0.00     0.266 A 
HETATM    7  N   UNL     1       4.010  32.251  61.769  1.00  0.00    -0.274 N 
HETATM    8  O   UNL     1       2.722  32.162  59.916  1.00  0.00    -0.267 OA
HETATM    9  C   UNL     1       5.211  32.260  62.411  1.00  0.00     0.330 A 
HETATM   10  H   UNL     1       3.191  32.202  62.355  1.00  0.00     0.173 HD
HETATM   11  N   UNL     1       6.342  32.282  61.598  1.00  0.00    -0.289 N 
HETATM   12  O   UNL     1       5.229  32.247  63.640  1.00  0.00    -0.246 OA
HETATM   13  C   UNL     1       6.270  32.320  60.200  1.00  0.00     0.103 A 
BRANCH  11  14
HETATM   14  C   UNL     1       7.637  32.348  62.293  1.00  0.00     0.135 C 
BRANCH  14  15
HETATM   15  C   UNL     1       8.230  30.976  62.638  1.00  0.00     0.016 C 
HETATM   16  C   UNL     1       9.364  30.561  61.713  1.00  0.00     0.006 C 
ENDBRANCH  14  15
ENDBRANCH  11  14
BRANCH  13  17
HETATM   17  N   UNL     1       7.443  32.358  59.448  1.00  0.00    -0.287 NA
HETATM   18  H   UNL     1       7.279  32.715  58.499  1.00  0.00     0.125 HD
HETATM   19  H   UNL     1       7.897  31.451  59.388  1.00  0.00     0.125 HD
ENDBRANCH  13  17
ENDBRANCH   3   5
ENDBRANCH   2   3
ENDBRANCH   1   2
BRANCH   1  20
HETATM   20  C   UNL     1       5.239  29.313  55.681  1.00  0.00     0.196 A 
HETATM   21  N   UNL     1       6.371  28.537  55.853  1.00  0.00    -0.274 N 
HETATM   22  C   UNL     1       5.945  27.246  55.535  1.00  0.00     0.166 A 
HETATM   23  N   UNL     1       4.675  27.286  55.182  1.00  0.00    -0.131 NA
HETATM   24  N   UNL     1       4.236  28.573  55.272  1.00  0.00    -0.122 NA
BRANCH  21  25
HETATM   25  C   UNL     1       7.657  28.941  56.291  1.00  0.00     0.043 A 
HETATM   26  C   UNL     1       8.692  29.102  55.359  1.00  0.00     0.032 A 
HETATM   27  C   UNL     1       9.957  29.515  55.783  1.00  0.00     0.026 A 
HETATM   28  C   UNL     1      10.189  29.761  57.133  1.00  0.00     0.034 A 
HETATM   29 CL   UNL     1      11.746  30.270  57.654  1.00  0.00    -0.084 Cl
HETATM   30  C   UNL     1       9.167  29.592  58.067  1.00  0.00     0.026 A 
HETATM   31  C   UNL     1       7.897  29.181  57.650  1.00  0.00     0.032 A 
ENDBRANCH  21  25
BRANCH  22  32
HETATM   32  C   UNL     1       6.746  25.985  55.678  1.00  0.00     0.254 C 
HETATM   33  C   UNL     1       6.088  24.987  56.636  1.00  0.00     0.049 C 
BRANCH  32  34
HETATM   34  N   UNL     1       7.061  25.254  54.348  1.00  0.00    -0.068 N 
HETATM   35  H   UNL     1       6.169  24.864  54.024  1.00  0.00     0.279 HD
HETATM   36  C   UNL     1       7.561  26.129  53.224  1.00  0.00     0.270 C 
HETATM   37  C   UNL     1       7.981  24.075  54.547  1.00  0.00     0.270 C 
ENDBRANCH  32  34
ENDBRANCH  22  32
ENDBRANCH   1  20
TORSDOF 10
ENDMDL
MODEL 4
REMARK VINA RESULT:      -8.3      4.953      8.432
REMARK  10 active torsions:
REMARK  status: ('A' for Active; 'I' for Inactive)
REMARK    1  A    between atoms: C_2  and  C_3 
REMARK    2  A    between atoms: C_3  and  N_4 
REMARK    3  A    between atoms: C_10  and  C_11 
REMARK    4  A    between atoms: C_11  and  C_12 
REMARK    5  A    between atoms: C_12  and  S_13 
REMARK    6  A    between atoms: S_13  and  C_14 
REMARK    7  A    between atoms: N_15  and  C_16 
REMARK    8  A    between atoms: C_23  and  C_24 
REMARK    9  A    between atoms: C_24  and  N_25 
REMARK   10  A    between atoms: C_33  and  N_34 
ROOT
HETATM    1  S   UNL     1       5.420  28.503  53.557  1.00  0.00    -0.082 SA
ENDROOT
BRANCH   1   2
HETATM    2  C   UNL     1       5.572  27.117  54.727  1.00  0.00     0.166 C 
BRANCH   2   3
HETATM    3  C   UNL     1       7.038  26.847  55.049  1.00  0.00     0.177 C 
HETATM    4  O   UNL     1       7.908  27.721  54.945  1.00  0.00    -0.291 OA
BRANCH   3   5
HETATM    5  C   UNL     1       7.405  25.486  55.557  1.00  0.00     0.117 A 
HETATM    6  C   UNL     1       7.299  25.185  56.997  1.00  0.00     0.266 A 
HETATM    7  N   UNL     1       7.756  23.975  57.400  1.00  0.00    -0.274 N 
HETATM    8  O   UNL     1       6.807  25.988  57.785  1.00  0.00    -0.267 OA
HETATM    9  C   UNL     1       8.238  22.998  56.584  1.00  0.00     0.330 A 
HETATM   10  H   UNL     1       7.701  23.749  58.382  1.00  0.00     0.173 HD
HETATM   11  N   UNL     1       8.269  23.296  55.222  1.00  0.00    -0.289 N 
HETATM   12  O   UNL     1       8.607  21.935  57.078  1.00  0.00    -0.246 OA
HETATM   13  C   UNL     1       7.859  24.531  54.707  1.00  0.00     0.103 A 
BRANCH  11  14
HETATM   14  C   UNL     1       8.842  22.261  54.347  1.00  0.00     0.135 C 
BRANCH  14  15
HETATM   15  C   UNL     1       7.830  21.204  53.888  1.00  0.00     0.016 C 
HETATM   16  C   UNL     1       8.289  20.424  52.665  1.00  0.00     0.006 C 
ENDBRANCH  14  15
ENDBRANCH  11  14
BRANCH  13  17
HETATM   17  N   UNL     1       7.933  24.768  53.336  1.00  0.00    -0.287 NA
HETATM   18  H   UNL     1       8.473  25.615  53.121  1.00  0.00     0.125 HD
HETATM   19  H   UNL     1       7.017  24.839  52.902  1.00  0.00     0.125 HD
ENDBRANCH  13  17
ENDBRANCH   3   5
ENDBRANCH   2   3
ENDBRANCH   1   2
BRANCH   1  20
HETATM   20  C   UNL     1       5.185  27.645  52.070  1.00  0.00     0.196 A 
HETATM   21  N   UNL     1       4.503  28.138  50.973  1.00  0.00    -0.274 N 
HETATM   22  C   UNL     1       4.431  27.048  50.103  1.00  0.00     0.166 A 
HETATM   23  N   UNL     1       5.004  26.005  50.672  1.00  0.00    -0.131 NA
HETATM   24  N   UNL     1       5.472  26.377  51.896  1.00  0.00    -0.122 NA
BRANCH  21  25
HETATM   25  C   UNL     1       4.022  29.454  50.754  1.00  0.00     0.043 A 
HETATM   26  C   UNL     1       4.882  30.431  50.233  1.00  0.00     0.032 A 
HETATM   27  C   UNL     1       4.410  31.725  50.001  1.00  0.00     0.026 A 
HETATM   28  C   UNL     1       3.086  32.043  50.292  1.00  0.00     0.034 A 
HETATM   29 CL   UNL     1       2.506  33.635  50.005  1.00  0.00    -0.084 Cl
HETATM   30  C   UNL     1       2.229  31.078  50.821  1.00  0.00     0.026 A 
HETATM   31  C   UNL     1       2.693  29.779  51.054  1.00  0.00     0.032 A 
ENDBRANCH  21  25
BRANCH  22  32
HETATM   32  C   UNL     1       3.902  27.064  48.699  1.00  0.00     0.254 C 
HETATM   33  C   UNL     1       4.971  26.674  47.673  1.00  0.00     0.049 C 
BRANCH  32  34
HETATM   34  N   UNL     1       2.649  26.185  48.461  1.00  0.00    -0.068 N 
HETATM   35  H   UNL     1       2.295  25.943  49.394  1.00  0.00     0.279 HD
HETATM   36  C   UNL     1       1.503  26.860  47.747  1.00  0.00     0.270 C 
HETATM   37  C   UNL     1       2.987  24.874  47.794  1.00  0.00     0.270 C 
ENDBRANCH  32  34
ENDBRANCH  22  32
ENDBRANCH   1  20
TORSDOF 10
ENDMDL
MODEL 5
REMARK VINA RESULT:      -8.2      4.932      9.005
REMARK  10 active torsions:
REMARK  status: ('A' for Active; 'I' for Inactive)
REMARK    1  A    between atoms: C_2  and  C_3 
REMARK    2  A    between atoms: C_3  and  N_4 
REMARK    3  A    between atoms: C_10  and  C_11 
REMARK    4  A    between atoms: C_11  and  C_12 
REMARK    5  A    between atoms: C_12  and  S_13 
REMARK    6  A    between atoms: S_13  and  C_14 
REMARK    7  A    between atoms: N_15  and  C_16 
REMARK    8  A    between atoms: C_23  and  C_24 
REMARK    9  A    between atoms: C_24  and  N_25 
REMARK   10  A    between atoms: C_33  and  N_34 
ROOT
HETATM    1  S   UNL     1       4.337  28.691  54.390  1.00  0.00    -0.082 SA
ENDROOT
BRANCH   1   2
HETATM    2  C   UNL     1       3.213  28.676  52.958  1.00  0.00     0.166 C 
BRANCH   2   3
HETATM    3  C   UNL     1       3.871  29.345  51.755  1.00  0.00     0.177 C 
HETATM    4  O   UNL     1       4.320  30.498  51.804  1.00  0.00    -0.291 OA
BRANCH   3   5
HETATM    5  C   UNL     1       4.016  28.542  50.498  1.00  0.00     0.117 A 
HETATM    6  C   UNL     1       5.176  27.649  50.327  1.00  0.00     0.266 A 
HETATM    7  N   UNL     1       5.304  27.042  49.121  1.00  0.00    -0.274 N 
HETATM    8  O   UNL     1       5.977  27.455  51.237  1.00  0.00    -0.267 OA
HETATM    9  C   UNL     1       4.420  27.137  48.090  1.00  0.00     0.330 A 
HETATM   10  H   UNL     1       6.094  26.432  48.977  1.00  0.00     0.173 HD
HETATM   11  N   UNL     1       3.305  27.944  48.310  1.00  0.00    -0.289 N 
HETATM   12  O   UNL     1       4.647  26.521  47.052  1.00  0.00    -0.246 OA
HETATM   13  C   UNL     1       3.101  28.646  49.503  1.00  0.00     0.103 A 
BRANCH  11  14
HETATM   14  C   UNL     1       2.379  28.090  47.175  1.00  0.00     0.135 C 
BRANCH  14  15
HETATM   15  C   UNL     1       1.165  27.155  47.238  1.00  0.00     0.016 C 
HETATM   16  C   UNL     1       0.091  27.495  46.215  1.00  0.00     0.006 C 
ENDBRANCH  14  15
ENDBRANCH  11  14
BRANCH  13  17
HETATM   17  N   UNL     1       1.971  29.449  49.649  1.00  0.00    -0.287 NA
HETATM   18  H   UNL     1       2.034  30.055  50.476  1.00  0.00     0.125 HD
HETATM   19  H   UNL     1       1.112  28.909  49.698  1.00  0.00     0.125 HD
ENDBRANCH  13  17
ENDBRANCH   3   5
ENDBRANCH   2   3
ENDBRANCH   1   2
BRANCH   1  20
HETATM   20  C   UNL     1       5.002  27.095  54.295  1.00  0.00     0.196 A 
HETATM   21  N   UNL     1       6.282  26.747  54.686  1.00  0.00    -0.274 N 
HETATM   22  C   UNL     1       6.414  25.421  54.270  1.00  0.00     0.166 A 
HETATM   23  N   UNL     1       5.304  25.048  53.662  1.00  0.00    -0.131 NA
HETATM   24  N   UNL     1       4.426  26.090  53.677  1.00  0.00    -0.122 NA
BRANCH  21  25
HETATM   25  C   UNL     1       7.232  27.533  55.387  1.00  0.00     0.043 A 
HETATM   26  C   UNL     1       7.285  27.477  56.787  1.00  0.00     0.032 A 
HETATM   27  C   UNL     1       8.228  28.238  57.481  1.00  0.00     0.026 A 
HETATM   28  C   UNL     1       9.112  29.054  56.781  1.00  0.00     0.034 A 
HETATM   29 CL   UNL     1      10.274  29.989  57.636  1.00  0.00    -0.084 Cl
HETATM   30  C   UNL     1       9.057  29.122  55.389  1.00  0.00     0.026 A 
HETATM   31  C   UNL     1       8.117  28.362  54.686  1.00  0.00     0.032 A 
ENDBRANCH  21  25
BRANCH  22  32
HETATM   32  C   UNL     1       7.570  24.508  54.558  1.00  0.00     0.254 C 
HETATM   33  C   UNL     1       7.193  23.388  55.532  1.00  0.00     0.049 C 
BRANCH  32  34
HETATM   34  N   UNL     1       8.230  23.873  53.310  1.00  0.00    -0.068 N 
HETATM   35  H   UNL     1       9.235  23.829  53.515  1.00  0.00     0.279 HD
HETATM   36  C   UNL     1       7.811  22.456  52.998  1.00  0.00     0.270 C 
HETATM   37  C   UNL     1       8.096  24.743  52.085  1.00  0.00     0.270 C 
ENDBRANCH  32  34
ENDBRANCH  22  32
ENDBRANCH   1  20
TORSDOF 10
ENDMDL
MODEL 6
REMARK VINA RESULT:      -8.2      2.762      4.672
REMARK  10 active torsions:
REMARK  status: ('A' for Active; 'I' for Inactive)
REMARK    1  A    between atoms: C_2  and  C_3 
REMARK    2  A    between atoms: C_3  and  N_4 
REMARK    3  A    between atoms: C_10  and  C_11 
REMARK    4  A    between atoms: C_11  and  C_12 
REMARK    5  A    between atoms: C_12  and  S_13 
REMARK    6  A    between atoms: S_13  and  C_14 
REMARK    7  A    between atoms: N_15  and  C_16 
REMARK    8  A    between atoms: C_23  and  C_24 
REMARK    9  A    between atoms: C_24  and  N_25 
REMARK   10  A    between atoms: C_33  and  N_34 
ROOT
HETATM    1  S   UNL     1       8.139  27.766  56.585  1.00  0.00    -0.082 SA
ENDROOT
BRANCH   1   2
HETATM    2  C   UNL     1       7.615  28.562  58.136  1.00  0.00     0.166 C 
BRANCH   2   3
HETATM    3  C   UNL     1       8.295  29.917  58.298  1.00  0.00     0.177 C 
HETATM    4  O   UNL     1       9.273  30.250  57.617  1.00  0.00    -0.291 OA
BRANCH   3   5
HETATM    5  C   UNL     1       7.709  30.882  59.283  1.00  0.00     0.117 A 
HETATM    6  C   UNL     1       8.192  30.894  60.676  1.00  0.00     0.266 A 
HETATM    7  N   UNL     1       7.539  31.711  61.538  1.00  0.00    -0.274 N 
HETATM    8  O   UNL     1       9.146  30.208  61.030  1.00  0.00    -0.267 OA
HETATM    9  C   UNL     1       6.528  32.563  61.211  1.00  0.00     0.330 A 
HETATM   10  H   UNL     1       7.846  31.731  62.499  1.00  0.00     0.173 HD
HETATM   11  N   UNL     1       6.138  32.566  59.873  1.00  0.00    -0.289 N 
HETATM   12  O   UNL     1       6.031  33.263  62.089  1.00  0.00    -0.246 OA
HETATM   13  C   UNL     1       6.720  31.732  58.911  1.00  0.00     0.103 A 
BRANCH  11  14
HETATM   14  C   UNL     1       5.009  33.446  59.531  1.00  0.00     0.135 C 
BRANCH  14  15
HETATM   15  C   UNL     1       3.633  32.798  59.728  1.00  0.00     0.016 C 
HETATM   16  C   UNL     1       2.753  33.543  60.721  1.00  0.00     0.006 C 
ENDBRANCH  14  15
ENDBRANCH  11  14
BRANCH  13  17
HETATM   17  N   UNL     1       6.268  31.775  57.594  1.00  0.00    -0.287 NA
HETATM   18  H   UNL     1       5.805  30.901  57.317  1.00  0.00     0.125 HD
HETATM   19  H   UNL     1       7.013  31.980  56.933  1.00  0.00     0.125 HD
ENDBRANCH  13  17
ENDBRANCH   3   5
ENDBRANCH   2   3
ENDBRANCH   1   2
BRANCH   1  20
HETATM   20  C   UNL     1       6.806  28.161  55.552  1.00  0.00     0.196 A 
HETATM   21  N   UNL     1       6.383  27.397  54.479  1.00  0.00    -0.274 N 
HETATM   22  C   UNL     1       5.411  28.188  53.864  1.00  0.00     0.166 A 
HETATM   23  N   UNL     1       5.307  29.328  54.520  1.00  0.00    -0.131 NA
HETATM   24  N   UNL     1       6.175  29.311  55.569  1.00  0.00    -0.122 NA
BRANCH  21  25
HETATM   25  C   UNL     1       6.803  26.095  54.107  1.00  0.00     0.043 A 
HETATM   26  C   UNL     1       6.385  24.988  54.859  1.00  0.00     0.032 A 
HETATM   27  C   UNL     1       6.782  23.701  54.489  1.00  0.00     0.026 A 
HETATM   28  C   UNL     1       7.597  23.521  53.375  1.00  0.00     0.034 A 
HETATM   29 CL   UNL     1       8.085  21.937  52.918  1.00  0.00    -0.084 Cl
HETATM   30  C   UNL     1       8.025  24.619  52.629  1.00  0.00     0.026 A 
HETATM   31  C   UNL     1       7.630  25.911  52.992  1.00  0.00     0.032 A 
ENDBRANCH  21  25
BRANCH  22  32
HETATM   32  C   UNL     1       4.530  27.785  52.718  1.00  0.00     0.254 C 
HETATM   33  C   UNL     1       3.234  28.599  52.671  1.00  0.00     0.049 C 
BRANCH  32  34
HETATM   34  N   UNL     1       5.201  27.847  51.323  1.00  0.00    -0.068 N 
HETATM   35  H   UNL     1       6.212  27.832  51.497  1.00  0.00     0.279 HD
HETATM   36  C   UNL     1       4.920  26.679  50.410  1.00  0.00     0.270 C 
HETATM   37  C   UNL     1       4.924  29.150  50.613  1.00  0.00     0.270 C 
ENDBRANCH  32  34
ENDBRANCH  22  32
ENDBRANCH   1  20
TORSDOF 10
ENDMDL
MODEL 7
REMARK VINA RESULT:      -8.2      5.257     12.099
REMARK  10 active torsions:
REMARK  status: ('A' for Active; 'I' for Inactive)
REMARK    1  A    between atoms: C_2  and  C_3 
REMARK    2  A    between atoms: C_3  and  N_4 
REMARK    3  A    between atoms: C_10  and  C_11 
REMARK    4  A    between atoms: C_11  and  C_12 
REMARK    5  A    between atoms: C_12  and  S_13 
REMARK    6  A    between atoms: S_13  and  C_14 
REMARK    7  A    between atoms: N_15  and  C_16 
REMARK    8  A    between atoms: C_23  and  C_24 
REMARK    9  A    between atoms: C_24  and  N_25 
REMARK   10  A    between atoms: C_33  and  N_34 
ROOT
HETATM    1  S   UNL     1       4.684  33.482  60.873  1.00  0.00    -0.082 SA
ENDROOT
BRANCH   1   2
HETATM    2  C   UNL     1       5.999  32.275  60.516  1.00  0.00     0.166 C 
BRANCH   2   3
HETATM    3  C   UNL     1       6.305  32.244  59.022  1.00  0.00     0.177 C 
HETATM    4  O   UNL     1       5.795  33.044  58.227  1.00  0.00    -0.291 OA
BRANCH   3   5
HETATM    5  C   UNL     1       7.301  31.237  58.531  1.00  0.00     0.117 A 
HETATM    6  C   UNL     1       8.744  31.498  58.680  1.00  0.00     0.266 A 
HETATM    7  N   UNL     1       9.585  30.601  58.111  1.00  0.00    -0.274 N 
HETATM    8  O   UNL     1       9.159  32.472  59.301  1.00  0.00    -0.267 OA
HETATM    9  C   UNL     1       9.211  29.455  57.478  1.00  0.00     0.330 A 
HETATM   10  H   UNL     1      10.578  30.762  58.192  1.00  0.00     0.173 HD
HETATM   11  N   UNL     1       7.840  29.213  57.408  1.00  0.00    -0.289 N 
HETATM   12  O   UNL     1      10.079  28.717  57.018  1.00  0.00    -0.246 OA
HETATM   13  C   UNL     1       6.887  30.096  57.927  1.00  0.00     0.103 A 
BRANCH  11  14
HETATM   14  C   UNL     1       7.434  28.002  56.675  1.00  0.00     0.135 C 
BRANCH  14  15
HETATM   15  C   UNL     1       7.218  28.226  55.174  1.00  0.00     0.016 C 
HETATM   16  C   UNL     1       7.421  26.968  54.343  1.00  0.00     0.006 C 
ENDBRANCH  14  15
ENDBRANCH  11  14
BRANCH  13  17
HETATM   17  N   UNL     1       5.531  29.799  57.807  1.00  0.00    -0.287 NA
HETATM   18  H   UNL     1       4.949  30.645  57.823  1.00  0.00     0.125 HD
HETATM   19  H   UNL     1       5.206  29.159  58.526  1.00  0.00     0.125 HD
ENDBRANCH  13  17
ENDBRANCH   3   5
ENDBRANCH   2   3
ENDBRANCH   1   2
BRANCH   1  20
HETATM   20  C   UNL     1       4.669  33.440  62.605  1.00  0.00     0.196 A 
HETATM   21  N   UNL     1       4.792  34.547  63.424  1.00  0.00    -0.274 N 
HETATM   22  C   UNL     1       4.893  34.008  64.708  1.00  0.00     0.166 A 
HETATM   23  N   UNL     1       4.858  32.692  64.625  1.00  0.00    -0.131 NA
HETATM   24  N   UNL     1       4.720  32.339  63.317  1.00  0.00    -0.122 NA
BRANCH  21  25
HETATM   25  C   UNL     1       4.777  35.917  63.059  1.00  0.00     0.043 A 
HETATM   26  C   UNL     1       5.976  36.643  63.031  1.00  0.00     0.032 A 
HETATM   27  C   UNL     1       5.969  37.989  62.659  1.00  0.00     0.026 A 
HETATM   28  C   UNL     1       4.769  38.609  62.320  1.00  0.00     0.034 A 
HETATM   29 CL   UNL     1       4.761  40.265  61.860  1.00  0.00    -0.084 Cl
HETATM   30  C   UNL     1       3.572  37.895  62.356  1.00  0.00     0.026 A 
HETATM   31  C   UNL     1       3.570  36.546  62.726  1.00  0.00     0.032 A 
ENDBRANCH  21  25
BRANCH  22  32
HETATM   32  C   UNL     1       4.917  34.776  65.996  1.00  0.00     0.254 C 
HETATM   33  C   UNL     1       3.540  35.338  66.362  1.00  0.00     0.049 C 
BRANCH  32  34
HETATM   34  N   UNL     1       5.468  33.994  67.215  1.00  0.00    -0.068 N 
HETATM   35  H   UNL     1       5.681  33.051  66.870  1.00  0.00     0.279 HD
HETATM   36  C   UNL     1       6.755  34.520  67.802  1.00  0.00     0.270 C 
HETATM   37  C   UNL     1       4.431  33.814  68.296  1.00  0.00     0.270 C 
ENDBRANCH  32  34
ENDBRANCH  22  32
ENDBRANCH   1  20
TORSDOF 10
ENDMDL
MODEL 8
REMARK VINA RESULT:      -8.0      5.113      9.696
REMARK  10 active torsions:
REMARK  status: ('A' for Active; 'I' for Inactive)
REMARK    1  A    between atoms: C_2  and  C_3 
REMARK    2  A    between atoms: C_3  and  N_4 
REMARK    3  A    between atoms: C_10  and  C_11 
REMARK    4  A    between atoms: C_11  and  C_12 
REMARK    5  A    between atoms: C_12  and  S_13 
REMARK    6  A    between atoms: S_13  and  C_14 
REMARK    7  A    between atoms: N_15  and  C_16 
REMARK    8  A    between atoms: C_23  and  C_24 
REMARK    9  A    between atoms: C_24  and  N_25 
REMARK   10  A    between atoms: C_33  and  N_34 
ROOT
HETATM    1  S   UNL     1       3.920  27.806  53.537  1.00  0.00    -0.082 SA
ENDROOT
BRANCH   1   2
HETATM    2  C   UNL     1       3.525  29.057  52.275  1.00  0.00     0.166 C 
BRANCH   2   3
HETATM    3  C   UNL     1       4.463  28.927  51.080  1.00  0.00     0.177 C 
HETATM    4  O   UNL     1       5.574  29.473  51.051  1.00  0.00    -0.291 OA
BRANCH   3   5
HETATM    5  C   UNL     1       4.027  28.062  49.936  1.00  0.00     0.117 A 
HETATM    6  C   UNL     1       4.619  26.724  49.761  1.00  0.00     0.266 A 
HETATM    7  N   UNL     1       4.265  26.044  48.643  1.00  0.00    -0.274 N 
HETATM    8  O   UNL     1       5.384  26.246  50.594  1.00  0.00    -0.267 OA
HETATM    9  C   UNL     1       3.363  26.465  47.713  1.00  0.00     0.330 A 
HETATM   10  H   UNL     1       4.663  25.129  48.496  1.00  0.00     0.173 HD
HETATM   11  N   UNL     1       2.780  27.711  47.943  1.00  0.00    -0.289 N 
HETATM   12  O   UNL     1       3.119  25.743  46.750  1.00  0.00    -0.246 OA
HETATM   13  C   UNL     1       3.109  28.509  49.045  1.00  0.00     0.103 A 
BRANCH  11  14
HETATM   14  C   UNL     1       1.849  28.189  46.909  1.00  0.00     0.135 C 
BRANCH  14  15
HETATM   15  C   UNL     1       0.431  27.618  47.037  1.00  0.00     0.016 C 
HETATM   16  C   UNL     1      -0.367  27.696  45.744  1.00  0.00     0.006 C 
ENDBRANCH  14  15
ENDBRANCH  11  14
BRANCH  13  17
HETATM   17  N   UNL     1       2.499  29.752  49.204  1.00  0.00    -0.287 NA
HETATM   18  H   UNL     1       2.610  30.343  48.371  1.00  0.00     0.125 HD
HETATM   19  H   UNL     1       2.844  30.254  50.017  1.00  0.00     0.125 HD
ENDBRANCH  13  17
ENDBRANCH   3   5
ENDBRANCH   2   3
ENDBRANCH   1   2
BRANCH   1  20
HETATM   20  C   UNL     1       5.184  28.611  54.404  1.00  0.00     0.196 A 
HETATM   21  N   UNL     1       6.368  28.020  54.807  1.00  0.00    -0.274 N 
HETATM   22  C   UNL     1       6.979  28.993  55.601  1.00  0.00     0.166 A 
HETATM   23  N   UNL     1       6.191  30.049  55.669  1.00  0.00    -0.131 NA
HETATM   24  N   UNL     1       5.075  29.811  54.925  1.00  0.00    -0.122 NA
BRANCH  21  25
HETATM   25  C   UNL     1       6.873  26.741  54.464  1.00  0.00     0.043 A 
HETATM   26  C   UNL     1       7.498  26.548  53.223  1.00  0.00     0.032 A 
HETATM   27  C   UNL     1       8.011  25.294  52.886  1.00  0.00     0.026 A 
HETATM   28  C   UNL     1       7.897  24.235  53.781  1.00  0.00     0.034 A 
HETATM   29 CL   UNL     1       8.529  22.691  53.366  1.00  0.00    -0.084 Cl
HETATM   30  C   UNL     1       7.267  24.417  55.013  1.00  0.00     0.026 A 
HETATM   31  C   UNL     1       6.753  25.670  55.359  1.00  0.00     0.032 A 
ENDBRANCH  21  25
BRANCH  22  32
HETATM   32  C   UNL     1       8.356  28.923  56.193  1.00  0.00     0.254 C 
HETATM   33  C   UNL     1       9.449  29.136  55.141  1.00  0.00     0.049 C 
BRANCH  32  34
HETATM   34  N   UNL     1       8.613  29.894  57.372  1.00  0.00    -0.068 N 
HETATM   35  H   UNL     1       8.158  30.777  57.112  1.00  0.00     0.279 HD
HETATM   36  C   UNL     1       8.007  29.491  58.694  1.00  0.00     0.270 C 
HETATM   37  C   UNL     1      10.077  30.217  57.539  1.00  0.00     0.270 C 
ENDBRANCH  32  34
ENDBRANCH  22  32
ENDBRANCH   1  20
TORSDOF 10
ENDMDL
MODEL 9
REMARK VINA RESULT:      -7.7      3.767     10.327
REMARK  10 active torsions:
REMARK  status: ('A' for Active; 'I' for Inactive)
REMARK    1  A    between atoms: C_2  and  C_3 
REMARK    2  A    between atoms: C_3  and  N_4 
REMARK    3  A    between atoms: C_10  and  C_11 
REMARK    4  A    between atoms: C_11  and  C_12 
REMARK    5  A    between atoms: C_12  and  S_13 
REMARK    6  A    between atoms: S_13  and  C_14 
REMARK    7  A    between atoms: N_15  and  C_16 
REMARK    8  A    between atoms: C_23  and  C_24 
REMARK    9  A    between atoms: C_24  and  N_25 
REMARK   10  A    between atoms: C_33  and  N_34 
ROOT
HETATM    1  S   UNL     1       6.730  29.146  57.740  1.00  0.00    -0.082 SA
ENDROOT
BRANCH   1   2
HETATM    2  C   UNL     1       6.127  27.970  56.489  1.00  0.00     0.166 C 
BRANCH   2   3
HETATM    3  C   UNL     1       7.297  27.286  55.790  1.00  0.00     0.177 C 
HETATM    4  O   UNL     1       8.095  27.908  55.076  1.00  0.00    -0.291 OA
BRANCH   3   5
HETATM    5  C   UNL     1       7.500  25.821  56.032  1.00  0.00     0.117 A 
HETATM    6  C   UNL     1       7.959  25.350  57.351  1.00  0.00     0.266 A 
HETATM    7  N   UNL     1       8.231  24.028  57.464  1.00  0.00    -0.274 N 
HETATM    8  O   UNL     1       8.073  26.118  58.302  1.00  0.00    -0.267 OA
HETATM    9  C   UNL     1       8.052  23.096  56.487  1.00  0.00     0.330 A 
HETATM   10  H   UNL     1       8.554  23.683  58.356  1.00  0.00     0.173 HD
HETATM   11  N   UNL     1       7.562  23.569  55.271  1.00  0.00    -0.289 N 
HETATM   12  O   UNL     1       8.325  21.922  56.725  1.00  0.00    -0.246 OA
HETATM   13  C   UNL     1       7.288  24.922  55.039  1.00  0.00     0.103 A 
BRANCH  11  14
HETATM   14  C   UNL     1       7.423  22.571  54.198  1.00  0.00     0.135 C 
BRANCH  14  15
HETATM   15  C   UNL     1       8.758  22.079  53.627  1.00  0.00     0.016 C 
HETATM   16  C   UNL     1       8.709  20.640  53.136  1.00  0.00     0.006 C 
ENDBRANCH  14  15
ENDBRANCH  11  14
BRANCH  13  17
HETATM   17  N   UNL     1       6.816  25.328  53.792  1.00  0.00    -0.287 NA
HETATM   18  H   UNL     1       6.850  24.568  53.102  1.00  0.00     0.125 HD
HETATM   19  H   UNL     1       7.319  26.131  53.427  1.00  0.00     0.125 HD
ENDBRANCH  13  17
ENDBRANCH   3   5
ENDBRANCH   2   3
ENDBRANCH   1   2
BRANCH   1  20
HETATM   20  C   UNL     1       6.008  30.616  57.176  1.00  0.00     0.196 A 
HETATM   21  N   UNL     1       5.821  31.750  57.945  1.00  0.00    -0.274 N 
HETATM   22  C   UNL     1       5.066  32.592  57.126  1.00  0.00     0.166 A 
HETATM   23  N   UNL     1       4.816  31.974  55.987  1.00  0.00    -0.131 NA
HETATM   24  N   UNL     1       5.402  30.744  56.019  1.00  0.00    -0.122 NA
BRANCH  21  25
HETATM   25  C   UNL     1       6.315  32.023  59.245  1.00  0.00     0.043 A 
HETATM   26  C   UNL     1       7.696  32.135  59.457  1.00  0.00     0.032 A 
HETATM   27  C   UNL     1       8.188  32.419  60.733  1.00  0.00     0.026 A 
HETATM   28  C   UNL     1       7.303  32.585  61.795  1.00  0.00     0.034 A 
HETATM   29 CL   UNL     1       7.908  32.935  63.365  1.00  0.00    -0.084 Cl
HETATM   30  C   UNL     1       5.928  32.464  61.593  1.00  0.00     0.026 A 
HETATM   31  C   UNL     1       5.428  32.182  60.318  1.00  0.00     0.032 A 
ENDBRANCH  21  25
BRANCH  22  32
HETATM   32  C   UNL     1       4.688  34.014  57.419  1.00  0.00     0.254 C 
HETATM   33  C   UNL     1       4.997  34.949  56.245  1.00  0.00     0.049 C 
BRANCH  32  34
HETATM   34  N   UNL     1       3.212  34.227  57.839  1.00  0.00    -0.068 N 
HETATM   35  H   UNL     1       2.759  33.310  57.746  1.00  0.00     0.279 HD
HETATM   36  C   UNL     1       2.995  34.650  59.272  1.00  0.00     0.270 C 
HETATM   37  C   UNL     1       2.476  35.149  56.900  1.00  0.00     0.270 C 
ENDBRANCH  32  34
ENDBRANCH  22  32
ENDBRANCH   1  20
TORSDOF 10
ENDMDL
MODEL 10
REMARK VINA RESULT:      -7.7      4.312      7.841
REMARK  10 active torsions:
REMARK  status: ('A' for Active; 'I' for Inactive)
REMARK    1  A    between atoms: C_2  and  C_3 
REMARK    2  A    between atoms: C_3  and  N_4 
REMARK    3  A    between atoms: C_10  and  C_11 
REMARK    4  A    between atoms: C_11  and  C_12 
REMARK    5  A    between atoms: C_12  and  S_13 
REMARK    6  A    between atoms: S_13  and  C_14 
REMARK    7  A    between atoms: N_15  and  C_16 
REMARK    8  A    between atoms: C_23  and  C_24 
REMARK    9  A    between atoms: C_24  and  N_25 
REMARK   10  A    between atoms: C_33  and  N_34 
ROOT
HETATM    1  S   UNL     1       6.780  28.208  53.372  1.00  0.00    -0.082 SA
ENDROOT
BRANCH   1   2
HETATM    2  C   UNL     1       5.395  28.897  54.331  1.00  0.00     0.166 C 
BRANCH   2   3
HETATM    3  C   UNL     1       5.033  27.972  55.489  1.00  0.00     0.177 C 
HETATM    4  O   UNL     1       3.902  27.956  55.992  1.00  0.00    -0.291 OA
BRANCH   3   5
HETATM    5  C   UNL     1       6.081  27.022  55.982  1.00  0.00     0.117 A 
HETATM    6  C   UNL     1       7.109  27.488  56.930  1.00  0.00     0.266 A 
HETATM    7  N   UNL     1       8.091  26.609  57.244  1.00  0.00    -0.274 N 
HETATM    8  O   UNL     1       7.066  28.613  57.420  1.00  0.00    -0.267 OA
HETATM    9  C   UNL     1       8.167  25.320  56.811  1.00  0.00     0.330 A 
HETATM   10  H   UNL     1       8.810  26.908  57.885  1.00  0.00     0.173 HD
HETATM   11  N   UNL     1       7.146  24.896  55.961  1.00  0.00    -0.289 N 
HETATM   12  O   UNL     1       9.106  24.620  57.184  1.00  0.00    -0.246 OA
HETATM   13  C   UNL     1       6.109  25.738  55.545  1.00  0.00     0.103 A 
BRANCH  11  14
HETATM   14  C   UNL     1       7.260  23.521  55.450  1.00  0.00     0.135 C 
BRANCH  14  15
HETATM   15  C   UNL     1       8.097  23.399  54.171  1.00  0.00     0.016 C 
HETATM   16  C   UNL     1       7.714  22.203  53.313  1.00  0.00     0.006 C 
ENDBRANCH  14  15
ENDBRANCH  11  14
BRANCH  13  17
HETATM   17  N   UNL     1       5.130  25.253  54.680  1.00  0.00    -0.287 NA
HETATM   18  H   UNL     1       5.105  25.775  53.796  1.00  0.00     0.125 HD
HETATM   19  H   UNL     1       4.203  25.261  55.097  1.00  0.00     0.125 HD
ENDBRANCH  13  17
ENDBRANCH   3   5
ENDBRANCH   2   3
ENDBRANCH   1   2
BRANCH   1  20
HETATM   20  C   UNL     1       5.931  27.511  52.033  1.00  0.00     0.196 A 
HETATM   21  N   UNL     1       5.269  28.231  51.055  1.00  0.00    -0.274 N 
HETATM   22  C   UNL     1       4.610  27.255  50.306  1.00  0.00     0.166 A 
HETATM   23  N   UNL     1       4.854  26.070  50.832  1.00  0.00    -0.131 NA
HETATM   24  N   UNL     1       5.675  26.230  51.907  1.00  0.00    -0.122 NA
BRANCH  21  25
HETATM   25  C   UNL     1       5.284  29.631  50.831  1.00  0.00     0.043 A 
HETATM   26  C   UNL     1       6.122  30.168  49.844  1.00  0.00     0.032 A 
HETATM   27  C   UNL     1       6.131  31.545  49.609  1.00  0.00     0.026 A 
HETATM   28  C   UNL     1       5.310  32.382  50.359  1.00  0.00     0.034 A 
HETATM   29 CL   UNL     1       5.320  34.076  50.069  1.00  0.00    -0.084 Cl
HETATM   30  C   UNL     1       4.482  31.854  51.350  1.00  0.00     0.026 A 
HETATM   31  C   UNL     1       4.466  30.477  51.591  1.00  0.00     0.032 A 
ENDBRANCH  21  25
BRANCH  22  32
HETATM   32  C   UNL     1       3.841  27.476  49.036  1.00  0.00     0.254 C 
HETATM   33  C   UNL     1       4.201  26.451  47.955  1.00  0.00     0.049 C 
BRANCH  32  34
HETATM   34  N   UNL     1       2.301  27.499  49.197  1.00  0.00    -0.068 N 
HETATM   35  H   UNL     1       2.083  26.788  49.905  1.00  0.00     0.279 HD
HETATM   36  C   UNL     1       1.717  28.791  49.715  1.00  0.00     0.270 C 
HETATM   37  C   UNL     1       1.587  27.064  47.941  1.00  0.00     0.270 C 
ENDBRANCH  32  34
ENDBRANCH  22  32
ENDBRANCH   1  20
TORSDOF 10
ENDMDL
