MODEL 1
REMARK VINA RESULT:     -10.1      0.000      0.000
REMARK  7 active torsions:
REMARK  status: ('A' for Active; 'I' for Inactive)
REMARK    1  A    between atoms: C_2  and  O_3 
REMARK    2  A    between atoms: O_3  and  C_4 
REMARK    3  A    between atoms: C_7  and  N_8 
REMARK       I    between atoms: N_8  and  C_9 
REMARK    4  A    between atoms: C_9  and  C_10 
REMARK    5  A    between atoms: C_13  and  N_14 
REMARK       I    between atoms: N_14  and  C_15 
REMARK    6  A    between atoms: C_15  and  C_16 
REMARK    7  A    between atoms: C_16  and  N_17 
ROOT
HETATM    1  C   UNL     1       8.892  30.192  57.927  1.00  0.00     0.032 A 
HETATM    2  C   UNL     1       7.535  30.480  57.766  1.00  0.00     0.019 A 
HETATM    3  C   UNL     1       6.712  29.594  57.049  1.00  0.00     0.030 A 
HETATM    4  C   UNL     1       7.245  28.435  56.475  1.00  0.00     0.034 A 
HETATM    5  C   UNL     1       8.601  28.143  56.672  1.00  0.00     0.030 A 
HETATM    6  C   UNL     1       9.423  29.021  57.381  1.00  0.00     0.019 A 
ENDROOT
BRANCH   4   7
HETATM    7  N   UNL     1       6.530  27.546  55.646  1.00  0.00    -0.326 N 
HETATM    8  C   UNL     1       6.563  27.452  54.260  1.00  0.00     0.240 C 
HETATM    9  O   UNL     1       7.132  28.225  53.495  1.00  0.00    -0.271 OA
HETATM   10  H   UNL     1       6.040  26.807  56.137  1.00  0.00     0.169 HD
BRANCH   8  11
HETATM   11  C   UNL     1       5.766  26.243  53.748  1.00  0.00     0.240 C 
BRANCH  11  12
HETATM   12  N   UNL     1       6.576  25.050  53.793  1.00  0.00    -0.259 N 
HETATM   13  C   UNL     1       7.383  24.657  52.772  1.00  0.00     0.326 A 
HETATM   14  O   UNL     1       7.561  25.239  51.715  1.00  0.00    -0.247 OA
HETATM   15  N   UNL     1       8.011  23.491  53.134  1.00  0.00    -0.324 N 
HETATM   16  C   UNL     1       7.732  23.114  54.503  1.00  0.00     0.116 A 
HETATM   17  H   UNL     1       8.686  23.055  52.518  1.00  0.00     0.165 HD
HETATM   18  C   UNL     1       8.987  23.248  55.373  1.00  0.00     0.041 C 
HETATM   19  C   UNL     1       7.094  21.730  54.604  1.00  0.00     0.041 C 
HETATM   20  C   UNL     1       6.713  24.216  54.865  1.00  0.00     0.256 A 
HETATM   21  C   UNL     1       9.989  22.121  55.112  1.00  0.00     0.007 C 
HETATM   22  C   UNL     1       9.365  20.723  55.227  1.00  0.00    -0.019 C 
HETATM   23  C   UNL     1       9.082  20.352  56.686  1.00  0.00     0.010 C 
HETATM   24  C   UNL     1       8.106  20.608  54.357  1.00  0.00     0.007 C 
HETATM   25  O   UNL     1       6.174  24.349  55.955  1.00  0.00    -0.270 OA
ENDBRANCH  11  12
ENDBRANCH   8  11
ENDBRANCH   4   7
BRANCH   1  26
HETATM   26  C   UNL     1       9.848  31.190  58.434  1.00  0.00     0.256 C 
HETATM   27  N   UNL     1       9.662  31.963  59.548  1.00  0.00    -0.323 N 
HETATM   28  H   UNL     1      10.406  32.651  59.595  1.00  0.00     0.169 HD
HETATM   29  O   UNL     1      10.882  31.356  57.781  1.00  0.00    -0.267 OA
BRANCH  27  30
HETATM   30  C   UNL     1       8.804  31.936  60.656  1.00  0.00     0.035 A 
HETATM   31  C   UNL     1       9.012  31.234  61.840  1.00  0.00     0.032 A 
HETATM   32  C   UNL     1       8.084  31.323  62.896  1.00  0.00     0.039 A 
HETATM   33  C   UNL     1       6.949  32.125  62.781  1.00  0.00     0.068 A 
HETATM   34  C   UNL     1       6.754  32.846  61.607  1.00  0.00     0.039 A 
HETATM   35  C   UNL     1       7.667  32.751  60.556  1.00  0.00     0.032 A 
BRANCH  33  36
HETATM   36  O   UNL     1       5.977  32.319  63.718  1.00  0.00    -0.352 OA
BRANCH  36  37
HETATM   37  C   UNL     1       5.915  33.559  64.418  1.00  0.00     0.171 C 
HETATM   38  C   UNL     1       7.189  33.786  65.211  1.00  0.00     0.034 C 
ENDBRANCH  36  37
ENDBRANCH  33  36
ENDBRANCH  27  30
ENDBRANCH   1  26
TORSDOF 7
ENDMDL
MODEL 2
REMARK VINA RESULT:      -9.8      2.086     10.580
REMARK  7 active torsions:
REMARK  status: ('A' for Active; 'I' for Inactive)
REMARK    1  A    between atoms: C_2  and  O_3 
REMARK    2  A    between atoms: O_3  and  C_4 
REMARK    3  A    between atoms: C_7  and  N_8 
REMARK       I    between atoms: N_8  and  C_9 
REMARK    4  A    between atoms: C_9  and  C_10 
REMARK    5  A    between atoms: C_13  and  N_14 
REMARK       I    between atoms: N_14  and  C_15 
REMARK    6  A    between atoms: C_15  and  C_16 
REMARK    7  A    between atoms: C_16  and  N_17 
ROOT
HETATM    1  C   UNL     1       5.795  27.836  53.904  1.00  0.00     0.032 A 
HETATM    2  C   UNL     1       5.001  28.559  54.798  1.00  0.00     0.019 A 
HETATM    3  C   UNL     1       5.606  29.330  55.805  1.00  0.00     0.030 A 
HETATM    4  C   UNL     1       6.999  29.364  55.935  1.00  0.00     0.034 A 
HETATM    5  C   UNL     1       7.783  28.659  55.012  1.00  0.00     0.030 A 
HETATM    6  C   UNL     1       7.187  27.890  54.011  1.00  0.00     0.019 A 
ENDROOT
BRANCH   4   7
HETATM    7  N   UNL     1       7.695  30.012  56.977  1.00  0.00    -0.326 N 
HETATM    8  C   UNL     1       8.217  29.453  58.137  1.00  0.00     0.240 C 
HETATM    9  O   UNL     1       8.049  28.301  58.525  1.00  0.00    -0.271 OA
HETATM   10  H   UNL     1       7.952  30.972  56.782  1.00  0.00     0.169 HD
BRANCH   8  11
HETATM   11  C   UNL     1       9.049  30.466  58.938  1.00  0.00     0.240 C 
BRANCH  11  12
HETATM   12  N   UNL     1       8.315  30.918  60.095  1.00  0.00    -0.259 N 
HETATM   13  C   UNL     1       8.620  30.541  61.365  1.00  0.00     0.326 A 
HETATM   14  O   UNL     1       9.535  29.814  61.712  1.00  0.00    -0.247 OA
HETATM   15  N   UNL     1       7.736  31.145  62.225  1.00  0.00    -0.324 N 
HETATM   16  C   UNL     1       6.856  32.076  61.550  1.00  0.00     0.116 A 
HETATM   17  H   UNL     1       7.819  31.017  63.226  1.00  0.00     0.165 HD
HETATM   18  C   UNL     1       7.171  33.519  61.961  1.00  0.00     0.041 C 
HETATM   19  C   UNL     1       5.383  31.720  61.740  1.00  0.00     0.041 C 
HETATM   20  C   UNL     1       7.298  31.828  60.093  1.00  0.00     0.256 A 
HETATM   21  C   UNL     1       6.668  33.837  63.371  1.00  0.00     0.007 C 
HETATM   22  C   UNL     1       5.183  33.500  63.570  1.00  0.00    -0.019 C 
HETATM   23  C   UNL     1       4.278  34.502  62.847  1.00  0.00     0.010 C 
HETATM   24  C   UNL     1       4.884  32.055  63.148  1.00  0.00     0.007 C 
HETATM   25  O   UNL     1       6.850  32.406  59.111  1.00  0.00    -0.270 OA
ENDBRANCH  11  12
ENDBRANCH   8  11
ENDBRANCH   4   7
BRANCH   1  26
HETATM   26  C   UNL     1       5.230  26.818  53.004  1.00  0.00     0.256 C 
HETATM   27  N   UNL     1       5.698  25.539  52.871  1.00  0.00    -0.323 N 
HETATM   28  H   UNL     1       5.216  25.094  52.097  1.00  0.00     0.169 HD
HETATM   29  O   UNL     1       4.279  27.162  52.297  1.00  0.00    -0.267 OA
BRANCH  27  30
HETATM   30  C   UNL     1       6.545  24.699  53.607  1.00  0.00     0.035 A 
HETATM   31  C   UNL     1       6.496  24.480  54.980  1.00  0.00     0.032 A 
HETATM   32  C   UNL     1       7.387  23.577  55.592  1.00  0.00     0.039 A 
HETATM   33  C   UNL     1       8.323  22.876  54.834  1.00  0.00     0.068 A 
HETATM   34  C   UNL     1       8.356  23.076  53.457  1.00  0.00     0.039 A 
HETATM   35  C   UNL     1       7.481  23.978  52.851  1.00  0.00     0.032 A 
BRANCH  33  36
HETATM   36  O   UNL     1       9.234  21.965  55.284  1.00  0.00    -0.352 OA
BRANCH  36  37
HETATM   37  C   UNL     1       8.880  21.087  56.348  1.00  0.00     0.171 C 
HETATM   38  C   UNL     1       7.973  19.979  55.845  1.00  0.00     0.034 C 
ENDBRANCH  36  37
ENDBRANCH  33  36
ENDBRANCH  27  30
ENDBRANCH   1  26
TORSDOF 7
ENDMDL
MODEL 3
REMARK VINA RESULT:      -9.8      1.623      2.377
REMARK  7 active torsions:
REMARK  status: ('A' for Active; 'I' for Inactive)
REMARK    1  A    between atoms: C_2  and  O_3 
REMARK    2  A    between atoms: O_3  and  C_4 
REMARK    3  A    between atoms: C_7  and  N_8 
REMARK       I    between atoms: N_8  and  C_9 
REMARK    4  A    between atoms: C_9  and  C_10 
REMARK    5  A    between atoms: C_13  and  N_14 
REMARK       I    between atoms: N_14  and  C_15 
REMARK    6  A    between atoms: C_15  and  C_16 
REMARK    7  A    between atoms: C_16  and  N_17 
ROOT
HETATM    1  C   UNL     1       8.227  31.396  59.372  1.00  0.00     0.032 A 
HETATM    2  C   UNL     1       7.068  31.873  58.754  1.00  0.00     0.019 A 
HETATM    3  C   UNL     1       6.436  31.103  57.762  1.00  0.00     0.030 A 
HETATM    4  C   UNL     1       6.969  29.870  57.372  1.00  0.00     0.034 A 
HETATM    5  C   UNL     1       8.114  29.390  58.022  1.00  0.00     0.030 A 
HETATM    6  C   UNL     1       8.747  30.152  59.006  1.00  0.00     0.019 A 
ENDROOT
BRANCH   4   7
HETATM    7  N   UNL     1       6.476  29.079  56.313  1.00  0.00    -0.326 N 
HETATM    8  C   UNL     1       5.408  28.190  56.332  1.00  0.00     0.240 C 
HETATM    9  O   UNL     1       4.778  27.837  57.324  1.00  0.00    -0.271 OA
HETATM   10  H   UNL     1       6.871  29.291  55.405  1.00  0.00     0.169 HD
BRANCH   8  11
HETATM   11  C   UNL     1       5.087  27.650  54.930  1.00  0.00     0.240 C 
BRANCH  11  12
HETATM   12  N   UNL     1       6.006  26.596  54.574  1.00  0.00    -0.259 N 
HETATM   13  C   UNL     1       7.201  26.823  53.966  1.00  0.00     0.326 A 
HETATM   14  O   UNL     1       7.673  27.906  53.662  1.00  0.00    -0.247 OA
HETATM   15  N   UNL     1       7.828  25.618  53.769  1.00  0.00    -0.324 N 
HETATM   16  C   UNL     1       7.107  24.515  54.368  1.00  0.00     0.116 A 
HETATM   17  H   UNL     1       8.752  25.577  53.358  1.00  0.00     0.165 HD
HETATM   18  C   UNL     1       7.883  23.938  55.558  1.00  0.00     0.041 C 
HETATM   19  C   UNL     1       6.726  23.447  53.344  1.00  0.00     0.041 C 
HETATM   20  C   UNL     1       5.856  25.271  54.864  1.00  0.00     0.256 A 
HETATM   21  C   UNL     1       9.084  23.102  55.109  1.00  0.00     0.007 C 
HETATM   22  C   UNL     1       8.712  22.013  54.093  1.00  0.00    -0.019 C 
HETATM   23  C   UNL     1       7.953  20.861  54.756  1.00  0.00     0.010 C 
HETATM   24  C   UNL     1       7.930  22.606  52.912  1.00  0.00     0.007 C 
HETATM   25  O   UNL     1       4.921  24.768  55.473  1.00  0.00    -0.270 OA
ENDBRANCH  11  12
ENDBRANCH   8  11
ENDBRANCH   4   7
BRANCH   1  26
HETATM   26  C   UNL     1       9.071  32.254  60.218  1.00  0.00     0.256 C 
HETATM   27  N   UNL     1       8.624  33.009  61.268  1.00  0.00    -0.323 N 
HETATM   28  H   UNL     1       9.383  33.600  61.591  1.00  0.00     0.169 HD
HETATM   29  O   UNL     1      10.270  32.314  59.932  1.00  0.00    -0.267 OA
BRANCH  27  30
HETATM   30  C   UNL     1       7.461  33.052  62.049  1.00  0.00     0.035 A 
HETATM   31  C   UNL     1       6.154  33.093  61.577  1.00  0.00     0.032 A 
HETATM   32  C   UNL     1       5.069  33.095  62.475  1.00  0.00     0.039 A 
HETATM   33  C   UNL     1       5.284  33.042  63.852  1.00  0.00     0.068 A 
HETATM   34  C   UNL     1       6.591  32.977  64.324  1.00  0.00     0.039 A 
HETATM   35  C   UNL     1       7.667  32.985  63.435  1.00  0.00     0.032 A 
BRANCH  33  36
HETATM   36  O   UNL     1       4.338  33.025  64.835  1.00  0.00    -0.352 OA
BRANCH  36  37
HETATM   37  C   UNL     1       4.518  33.833  65.995  1.00  0.00     0.171 C 
HETATM   38  C   UNL     1       3.661  35.083  65.912  1.00  0.00     0.034 C 
ENDBRANCH  36  37
ENDBRANCH  33  36
ENDBRANCH  27  30
ENDBRANCH   1  26
TORSDOF 7
ENDMDL
MODEL 4
REMARK VINA RESULT:      -9.6      2.350     11.090
REMARK  7 active torsions:
REMARK  status: ('A' for Active; 'I' for Inactive)
REMARK    1  A    between atoms: C_2  and  O_3 
REMARK    2  A    between atoms: O_3  and  C_4 
REMARK    3  A    between atoms: C_7  and  N_8 
REMARK       I    between atoms: N_8  and  C_9 
REMARK    4  A    between atoms: C_9  and  C_10 
REMARK    5  A    between atoms: C_13  and  N_14 
REMARK       I    between atoms: N_14  and  C_15 
REMARK    6  A    between atoms: C_15  and  C_16 
REMARK    7  A    between atoms: C_16  and  N_17 
ROOT
HETATM    1  C   UNL     1       7.359  25.089  56.848  1.00  0.00     0.032 A 
HETATM    2  C   UNL     1       8.479  25.907  57.014  1.00  0.00     0.019 A 
HETATM    3  C   UNL     1       8.313  27.256  57.372  1.00  0.00     0.030 A 
HETATM    4  C   UNL     1       7.033  27.794  57.543  1.00  0.00     0.034 A 
HETATM    5  C   UNL     1       5.920  26.954  57.403  1.00  0.00     0.030 A 
HETATM    6  C   UNL     1       6.079  25.614  57.046  1.00  0.00     0.019 A 
ENDROOT
BRANCH   4   7
HETATM    7  N   UNL     1       6.758  29.156  57.790  1.00  0.00    -0.326 N 
HETATM    8  C   UNL     1       7.449  30.033  58.618  1.00  0.00     0.240 C 
HETATM    9  O   UNL     1       8.356  29.738  59.390  1.00  0.00    -0.271 OA
HETATM   10  H   UNL     1       6.054  29.563  57.187  1.00  0.00     0.169 HD
BRANCH   8  11
HETATM   11  C   UNL     1       6.932  31.474  58.483  1.00  0.00     0.240 C 
BRANCH  11  12
HETATM   12  N   UNL     1       6.889  32.116  59.775  1.00  0.00    -0.259 N 
HETATM   13  C   UNL     1       7.973  32.692  60.357  1.00  0.00     0.326 A 
HETATM   14  O   UNL     1       9.097  32.776  59.890  1.00  0.00    -0.247 OA
HETATM   15  N   UNL     1       7.595  33.211  61.571  1.00  0.00    -0.324 N 
HETATM   16  C   UNL     1       6.169  33.103  61.798  1.00  0.00     0.116 A 
HETATM   17  H   UNL     1       8.257  33.716  62.147  1.00  0.00     0.165 HD
HETATM   18  C   UNL     1       5.509  34.487  61.782  1.00  0.00     0.041 C 
HETATM   19  C   UNL     1       5.842  32.312  63.063  1.00  0.00     0.041 C 
HETATM   20  C   UNL     1       5.772  32.309  60.536  1.00  0.00     0.256 A 
HETATM   21  C   UNL     1       5.802  35.277  63.060  1.00  0.00     0.007 C 
HETATM   22  C   UNL     1       5.461  34.500  64.339  1.00  0.00    -0.019 C 
HETATM   23  C   UNL     1       3.948  34.405  64.553  1.00  0.00     0.010 C 
HETATM   24  C   UNL     1       6.123  33.115  64.335  1.00  0.00     0.007 C 
HETATM   25  O   UNL     1       4.633  31.971  60.242  1.00  0.00    -0.270 OA
ENDBRANCH  11  12
ENDBRANCH   8  11
ENDBRANCH   4   7
BRANCH   1  26
HETATM   26  C   UNL     1       7.449  23.757  56.228  1.00  0.00     0.256 C 
HETATM   27  N   UNL     1       7.075  23.459  54.946  1.00  0.00    -0.323 N 
HETATM   28  H   UNL     1       7.117  22.454  54.819  1.00  0.00     0.169 HD
HETATM   29  O   UNL     1       7.868  22.838  56.936  1.00  0.00    -0.267 OA
BRANCH  27  30
HETATM   30  C   UNL     1       6.796  24.195  53.785  1.00  0.00     0.035 A 
HETATM   31  C   UNL     1       7.679  24.449  52.740  1.00  0.00     0.032 A 
HETATM   32  C   UNL     1       7.258  25.174  51.609  1.00  0.00     0.039 A 
HETATM   33  C   UNL     1       5.947  25.638  51.508  1.00  0.00     0.068 A 
HETATM   34  C   UNL     1       5.057  25.363  52.542  1.00  0.00     0.039 A 
HETATM   35  C   UNL     1       5.476  24.654  53.668  1.00  0.00     0.032 A 
BRANCH  33  36
HETATM   36  O   UNL     1       5.397  26.338  50.474  1.00  0.00    -0.352 OA
BRANCH  36  37
HETATM   37  C   UNL     1       4.665  27.530  50.746  1.00  0.00     0.171 C 
HETATM   38  C   UNL     1       4.654  28.438  49.530  1.00  0.00     0.034 C 
ENDBRANCH  36  37
ENDBRANCH  33  36
ENDBRANCH  27  30
ENDBRANCH   1  26
TORSDOF 7
ENDMDL
MODEL 5
REMARK VINA RESULT:      -9.4      2.224     11.380
REMARK  7 active torsions:
REMARK  status: ('A' for Active; 'I' for Inactive)
REMARK    1  A    between atoms: C_2  and  O_3 
REMARK    2  A    between atoms: O_3  and  C_4 
REMARK    3  A    between atoms: C_7  and  N_8 
REMARK       I    between atoms: N_8  and  C_9 
REMARK    4  A    between atoms: C_9  and  C_10 
REMARK    5  A    between atoms: C_13  and  N_14 
REMARK       I    between atoms: N_14  and  C_15 
REMARK    6  A    between atoms: C_15  and  C_16 
REMARK    7  A    between atoms: C_16  and  N_17 
ROOT
HETATM    1  C   UNL     1       7.431  28.161  55.360  1.00  0.00     0.032 A 
HETATM    2  C   UNL     1       8.716  28.485  55.803  1.00  0.00     0.019 A 
HETATM    3  C   UNL     1       8.906  28.961  57.112  1.00  0.00     0.030 A 
HETATM    4  C   UNL     1       7.816  29.135  57.970  1.00  0.00     0.034 A 
HETATM    5  C   UNL     1       6.537  28.777  57.524  1.00  0.00     0.030 A 
HETATM    6  C   UNL     1       6.342  28.305  56.224  1.00  0.00     0.019 A 
ENDROOT
BRANCH   4   7
HETATM    7  N   UNL     1       7.888  29.711  59.256  1.00  0.00    -0.326 N 
HETATM    8  C   UNL     1       8.167  31.031  59.590  1.00  0.00     0.240 C 
HETATM    9  O   UNL     1       8.532  31.911  58.817  1.00  0.00    -0.271 OA
HETATM   10  H   UNL     1       7.567  29.113  60.008  1.00  0.00     0.169 HD
BRANCH   8  11
HETATM   11  C   UNL     1       7.986  31.292  61.093  1.00  0.00     0.240 C 
BRANCH  11  12
HETATM   12  N   UNL     1       6.942  32.263  61.313  1.00  0.00    -0.259 N 
HETATM   13  C   UNL     1       5.865  32.399  60.494  1.00  0.00     0.326 A 
HETATM   14  O   UNL     1       5.612  31.734  59.503  1.00  0.00    -0.247 OA
HETATM   15  N   UNL     1       5.066  33.403  60.983  1.00  0.00    -0.324 N 
HETATM   16  C   UNL     1       5.532  33.909  62.257  1.00  0.00     0.116 A 
HETATM   17  H   UNL     1       4.191  33.635  60.530  1.00  0.00     0.165 HD
HETATM   18  C   UNL     1       4.561  33.532  63.382  1.00  0.00     0.041 C 
HETATM   19  C   UNL     1       5.824  35.408  62.212  1.00  0.00     0.041 C 
HETATM   20  C   UNL     1       6.839  33.099  62.388  1.00  0.00     0.256 A 
HETATM   21  C   UNL     1       3.286  34.377  63.346  1.00  0.00     0.007 C 
HETATM   22  C   UNL     1       3.564  35.886  63.318  1.00  0.00    -0.019 C 
HETATM   23  C   UNL     1       4.053  36.392  64.678  1.00  0.00     0.010 C 
HETATM   24  C   UNL     1       4.543  36.246  62.192  1.00  0.00     0.007 C 
HETATM   25  O   UNL     1       7.615  33.156  63.333  1.00  0.00    -0.270 OA
ENDBRANCH  11  12
ENDBRANCH   8  11
ENDBRANCH   4   7
BRANCH   1  26
HETATM   26  C   UNL     1       7.133  27.909  53.942  1.00  0.00     0.256 C 
HETATM   27  N   UNL     1       7.253  26.699  53.315  1.00  0.00    -0.323 N 
HETATM   28  H   UNL     1       7.113  26.831  52.319  1.00  0.00     0.169 HD
HETATM   29  O   UNL     1       6.777  28.877  53.265  1.00  0.00    -0.267 OA
BRANCH  27  30
HETATM   30  C   UNL     1       7.379  25.364  53.726  1.00  0.00     0.035 A 
HETATM   31  C   UNL     1       7.089  24.862  54.990  1.00  0.00     0.032 A 
HETATM   32  C   UNL     1       7.224  23.487  55.262  1.00  0.00     0.039 A 
HETATM   33  C   UNL     1       7.637  22.602  54.267  1.00  0.00     0.068 A 
HETATM   34  C   UNL     1       7.904  23.100  52.995  1.00  0.00     0.039 A 
HETATM   35  C   UNL     1       7.780  24.464  52.728  1.00  0.00     0.032 A 
BRANCH  33  36
HETATM   36  O   UNL     1       7.799  21.251  54.378  1.00  0.00    -0.352 OA
BRANCH  36  37
HETATM   37  C   UNL     1       7.704  20.638  55.661  1.00  0.00     0.171 C 
HETATM   38  C   UNL     1       9.083  20.468  56.273  1.00  0.00     0.034 C 
ENDBRANCH  36  37
ENDBRANCH  33  36
ENDBRANCH  27  30
ENDBRANCH   1  26
TORSDOF 7
ENDMDL
MODEL 6
REMARK VINA RESULT:      -9.3      3.567      7.125
REMARK  7 active torsions:
REMARK  status: ('A' for Active; 'I' for Inactive)
REMARK    1  A    between atoms: C_2  and  O_3 
REMARK    2  A    between atoms: O_3  and  C_4 
REMARK    3  A    between atoms: C_7  and  N_8 
REMARK       I    between atoms: N_8  and  C_9 
REMARK    4  A    between atoms: C_9  and  C_10 
REMARK    5  A    between atoms: C_13  and  N_14 
REMARK       I    between atoms: N_14  and  C_15 
REMARK    6  A    between atoms: C_15  and  C_16 
REMARK    7  A    between atoms: C_16  and  N_17 
ROOT
HETATM    1  C   UNL     1       5.758  33.320  63.505  1.00  0.00     0.032 A 
HETATM    2  C   UNL     1       5.200  33.126  62.239  1.00  0.00     0.019 A 
HETATM    3  C   UNL     1       6.031  32.810  61.150  1.00  0.00     0.030 A 
HETATM    4  C   UNL     1       7.416  32.709  61.317  1.00  0.00     0.034 A 
HETATM    5  C   UNL     1       7.958  32.876  62.598  1.00  0.00     0.030 A 
HETATM    6  C   UNL     1       7.138  33.191  63.683  1.00  0.00     0.019 A 
ENDROOT
BRANCH   4   7
HETATM    7  N   UNL     1       8.341  32.510  60.271  1.00  0.00    -0.326 N 
HETATM    8  C   UNL     1       9.187  31.426  60.069  1.00  0.00     0.240 C 
HETATM    9  O   UNL     1       9.372  30.497  60.850  1.00  0.00    -0.271 OA
HETATM   10  H   UNL     1       8.276  33.180  59.514  1.00  0.00     0.169 HD
BRANCH   8  11
HETATM   11  C   UNL     1       9.919  31.513  58.722  1.00  0.00     0.240 C 
BRANCH  11  12
HETATM   12  N   UNL     1       9.551  30.404  57.875  1.00  0.00    -0.259 N 
HETATM   13  C   UNL     1      10.455  29.665  57.180  1.00  0.00     0.326 A 
HETATM   14  O   UNL     1      11.667  29.799  57.183  1.00  0.00    -0.247 OA
HETATM   15  N   UNL     1       9.782  28.693  56.481  1.00  0.00    -0.324 N 
HETATM   16  C   UNL     1       8.367  28.671  56.789  1.00  0.00     0.116 A 
HETATM   17  H   UNL     1      10.285  28.013  55.926  1.00  0.00     0.165 HD
HETATM   18  C   UNL     1       7.997  27.397  57.559  1.00  0.00     0.041 C 
HETATM   19  C   UNL     1       7.501  28.878  55.548  1.00  0.00     0.041 C 
HETATM   20  C   UNL     1       8.293  29.898  57.722  1.00  0.00     0.256 A 
HETATM   21  C   UNL     1       7.969  26.166  56.651  1.00  0.00     0.007 C 
HETATM   22  C   UNL     1       7.088  26.354  55.408  1.00  0.00    -0.019 C 
HETATM   23  C   UNL     1       5.600  26.324  55.764  1.00  0.00     0.010 C 
HETATM   24  C   UNL     1       7.467  27.636  54.653  1.00  0.00     0.007 C 
HETATM   25  O   UNL     1       7.280  30.302  58.279  1.00  0.00    -0.270 OA
ENDBRANCH  11  12
ENDBRANCH   8  11
ENDBRANCH   4   7
BRANCH   1  26
HETATM   26  C   UNL     1       4.989  33.901  64.617  1.00  0.00     0.256 C 
HETATM   27  N   UNL     1       4.688  35.228  64.757  1.00  0.00    -0.323 N 
HETATM   28  H   UNL     1       4.268  35.373  65.669  1.00  0.00     0.169 HD
HETATM   29  O   UNL     1       4.616  33.128  65.504  1.00  0.00    -0.267 OA
BRANCH  27  30
HETATM   30  C   UNL     1       4.697  36.353  63.920  1.00  0.00     0.035 A 
HETATM   31  C   UNL     1       5.750  37.246  63.754  1.00  0.00     0.032 A 
HETATM   32  C   UNL     1       5.641  38.319  62.848  1.00  0.00     0.039 A 
HETATM   33  C   UNL     1       4.484  38.498  62.091  1.00  0.00     0.068 A 
HETATM   34  C   UNL     1       3.439  37.590  62.239  1.00  0.00     0.039 A 
HETATM   35  C   UNL     1       3.542  36.533  63.144  1.00  0.00     0.032 A 
BRANCH  33  36
HETATM   36  O   UNL     1       4.241  39.476  61.172  1.00  0.00    -0.352 OA
BRANCH  36  37
HETATM   37  C   UNL     1       3.673  39.128  59.912  1.00  0.00     0.171 C 
HETATM   38  C   UNL     1       4.759  38.737  58.927  1.00  0.00     0.034 C 
ENDBRANCH  36  37
ENDBRANCH  33  36
ENDBRANCH  27  30
ENDBRANCH   1  26
TORSDOF 7
ENDMDL
MODEL 7
REMARK VINA RESULT:      -9.1      3.065     11.487
REMARK  7 active torsions:
REMARK  status: ('A' for Active; 'I' for Inactive)
REMARK    1  A    between atoms: C_2  and  O_3 
REMARK    2  A    between atoms: O_3  and  C_4 
REMARK    3  A    between atoms: C_7  and  N_8 
REMARK       I    between atoms: N_8  and  C_9 
REMARK    4  A    between atoms: C_9  and  C_10 
REMARK    5  A    between atoms: C_13  and  N_14 
REMARK       I    between atoms: N_14  and  C_15 
REMARK    6  A    between atoms: C_15  and  C_16 
REMARK    7  A    between atoms: C_16  and  N_17 
ROOT
HETATM    1  C   UNL     1       6.081  28.129  54.707  1.00  0.00     0.032 A 
HETATM    2  C   UNL     1       6.867  28.604  55.759  1.00  0.00     0.019 A 
HETATM    3  C   UNL     1       6.254  29.087  56.928  1.00  0.00     0.030 A 
HETATM    4  C   UNL     1       4.860  29.119  57.039  1.00  0.00     0.034 A 
HETATM    5  C   UNL     1       4.085  28.611  55.988  1.00  0.00     0.030 A 
HETATM    6  C   UNL     1       4.688  28.131  54.824  1.00  0.00     0.019 A 
ENDROOT
BRANCH   4   7
HETATM    7  N   UNL     1       4.151  29.687  58.118  1.00  0.00    -0.326 N 
HETATM    8  C   UNL     1       4.147  31.012  58.539  1.00  0.00     0.240 C 
HETATM    9  O   UNL     1       4.872  31.907  58.116  1.00  0.00    -0.271 OA
HETATM   10  H   UNL     1       3.467  29.075  58.546  1.00  0.00     0.169 HD
BRANCH   8  11
HETATM   11  C   UNL     1       3.115  31.257  59.649  1.00  0.00     0.240 C 
BRANCH  11  12
HETATM   12  N   UNL     1       3.454  32.443  60.399  1.00  0.00    -0.259 N 
HETATM   13  C   UNL     1       3.188  33.702  59.962  1.00  0.00     0.326 A 
HETATM   14  O   UNL     1       2.623  34.014  58.927  1.00  0.00    -0.247 OA
HETATM   15  N   UNL     1       3.633  34.596  60.906  1.00  0.00    -0.324 N 
HETATM   16  C   UNL     1       4.118  33.941  62.102  1.00  0.00     0.116 A 
HETATM   17  H   UNL     1       3.494  35.590  60.782  1.00  0.00     0.165 HD
HETATM   18  C   UNL     1       3.187  34.213  63.289  1.00  0.00     0.041 C 
HETATM   19  C   UNL     1       5.573  34.295  62.405  1.00  0.00     0.041 C 
HETATM   20  C   UNL     1       3.993  32.470  61.652  1.00  0.00     0.256 A 
HETATM   21  C   UNL     1       3.344  35.637  63.827  1.00  0.00     0.007 C 
HETATM   22  C   UNL     1       4.800  36.000  64.153  1.00  0.00    -0.019 C 
HETATM   23  C   UNL     1       5.284  35.294  65.423  1.00  0.00     0.010 C 
HETATM   24  C   UNL     1       5.719  35.715  62.957  1.00  0.00     0.007 C 
HETATM   25  O   UNL     1       4.272  31.495  62.338  1.00  0.00    -0.270 OA
ENDBRANCH  11  12
ENDBRANCH   8  11
ENDBRANCH   4   7
BRANCH   1  26
HETATM   26  C   UNL     1       6.641  27.856  53.374  1.00  0.00     0.256 C 
HETATM   27  N   UNL     1       7.279  26.701  53.009  1.00  0.00    -0.323 N 
HETATM   28  H   UNL     1       7.678  26.827  52.085  1.00  0.00     0.169 HD
HETATM   29  O   UNL     1       6.550  28.755  52.534  1.00  0.00    -0.267 OA
BRANCH  27  30
HETATM   30  C   UNL     1       7.383  25.405  53.532  1.00  0.00     0.035 A 
HETATM   31  C   UNL     1       7.116  25.023  54.843  1.00  0.00     0.032 A 
HETATM   32  C   UNL     1       7.225  23.673  55.230  1.00  0.00     0.039 A 
HETATM   33  C   UNL     1       7.589  22.694  54.306  1.00  0.00     0.068 A 
HETATM   34  C   UNL     1       7.833  23.073  52.989  1.00  0.00     0.039 A 
HETATM   35  C   UNL     1       7.735  24.411  52.607  1.00  0.00     0.032 A 
BRANCH  33  36
HETATM   36  O   UNL     1       7.722  21.355  54.532  1.00  0.00    -0.352 OA
BRANCH  36  37
HETATM   37  C   UNL     1       7.717  20.866  55.870  1.00  0.00     0.171 C 
HETATM   38  C   UNL     1       9.104  20.399  56.272  1.00  0.00     0.034 C 
ENDBRANCH  36  37
ENDBRANCH  33  36
ENDBRANCH  27  30
ENDBRANCH   1  26
TORSDOF 7
ENDMDL
MODEL 8
REMARK VINA RESULT:      -9.0      3.281     11.385
REMARK  7 active torsions:
REMARK  status: ('A' for Active; 'I' for Inactive)
REMARK    1  A    between atoms: C_2  and  O_3 
REMARK    2  A    between atoms: O_3  and  C_4 
REMARK    3  A    between atoms: C_7  and  N_8 
REMARK       I    between atoms: N_8  and  C_9 
REMARK    4  A    between atoms: C_9  and  C_10 
REMARK    5  A    between atoms: C_13  and  N_14 
REMARK       I    between atoms: N_14  and  C_15 
REMARK    6  A    between atoms: C_15  and  C_16 
REMARK    7  A    between atoms: C_16  and  N_17 
ROOT
HETATM    1  C   UNL     1       6.669  27.919  57.069  1.00  0.00     0.032 A 
HETATM    2  C   UNL     1       5.399  28.139  56.532  1.00  0.00     0.019 A 
HETATM    3  C   UNL     1       4.770  29.384  56.708  1.00  0.00     0.030 A 
HETATM    4  C   UNL     1       5.397  30.400  57.437  1.00  0.00     0.034 A 
HETATM    5  C   UNL     1       6.684  30.176  57.944  1.00  0.00     0.030 A 
HETATM    6  C   UNL     1       7.312  28.941  57.774  1.00  0.00     0.019 A 
ENDROOT
BRANCH   4   7
HETATM    7  N   UNL     1       4.806  31.638  57.765  1.00  0.00    -0.326 N 
HETATM    8  C   UNL     1       3.735  31.878  58.618  1.00  0.00     0.240 C 
HETATM    9  O   UNL     1       3.024  31.027  59.144  1.00  0.00    -0.271 OA
HETATM   10  H   UNL     1       5.313  32.451  57.437  1.00  0.00     0.169 HD
BRANCH   8  11
HETATM   11  C   UNL     1       3.501  33.380  58.837  1.00  0.00     0.240 C 
BRANCH  11  12
HETATM   12  N   UNL     1       3.810  33.745  60.198  1.00  0.00    -0.259 N 
HETATM   13  C   UNL     1       2.891  34.255  61.060  1.00  0.00     0.326 A 
HETATM   14  O   UNL     1       1.708  34.452  60.836  1.00  0.00    -0.247 OA
HETATM   15  N   UNL     1       3.504  34.492  62.265  1.00  0.00    -0.324 N 
HETATM   16  C   UNL     1       4.872  34.018  62.292  1.00  0.00     0.116 A 
HETATM   17  H   UNL     1       2.976  34.841  63.055  1.00  0.00     0.165 HD
HETATM   18  C   UNL     1       5.017  32.821  63.239  1.00  0.00     0.041 C 
HETATM   19  C   UNL     1       5.865  35.136  62.604  1.00  0.00     0.041 C 
HETATM   20  C   UNL     1       5.007  33.557  60.825  1.00  0.00     0.256 A 
HETATM   21  C   UNL     1       4.979  33.245  64.709  1.00  0.00     0.007 C 
HETATM   22  C   UNL     1       5.986  34.356  65.041  1.00  0.00    -0.019 C 
HETATM   23  C   UNL     1       7.422  33.825  65.063  1.00  0.00     0.010 C 
HETATM   24  C   UNL     1       5.832  35.543  64.079  1.00  0.00     0.007 C 
HETATM   25  O   UNL     1       6.006  33.048  60.334  1.00  0.00    -0.270 OA
ENDBRANCH  11  12
ENDBRANCH   8  11
ENDBRANCH   4   7
BRANCH   1  26
HETATM   26  C   UNL     1       7.263  26.575  57.145  1.00  0.00     0.256 C 
HETATM   27  N   UNL     1       7.084  25.582  56.220  1.00  0.00    -0.323 N 
HETATM   28  H   UNL     1       7.493  24.726  56.578  1.00  0.00     0.169 HD
HETATM   29  O   UNL     1       7.952  26.323  58.138  1.00  0.00    -0.267 OA
BRANCH  27  30
HETATM   30  C   UNL     1       6.615  25.513  54.901  1.00  0.00     0.035 A 
HETATM   31  C   UNL     1       5.363  25.061  54.496  1.00  0.00     0.032 A 
HETATM   32  C   UNL     1       5.003  25.078  53.135  1.00  0.00     0.039 A 
HETATM   33  C   UNL     1       5.887  25.560  52.170  1.00  0.00     0.068 A 
HETATM   34  C   UNL     1       7.130  26.034  52.577  1.00  0.00     0.039 A 
HETATM   35  C   UNL     1       7.492  26.008  53.925  1.00  0.00     0.032 A 
BRANCH  33  36
HETATM   36  O   UNL     1       5.673  25.649  50.826  1.00  0.00    -0.352 OA
BRANCH  36  37
HETATM   37  C   UNL     1       4.848  26.693  50.316  1.00  0.00     0.171 C 
HETATM   38  C   UNL     1       4.449  26.403  48.880  1.00  0.00     0.034 C 
ENDBRANCH  36  37
ENDBRANCH  33  36
ENDBRANCH  27  30
ENDBRANCH   1  26
TORSDOF 7
ENDMDL
MODEL 9
REMARK VINA RESULT:      -8.9      2.509     11.165
REMARK  7 active torsions:
REMARK  status: ('A' for Active; 'I' for Inactive)
REMARK    1  A    between atoms: C_2  and  O_3 
REMARK    2  A    between atoms: O_3  and  C_4 
REMARK    3  A    between atoms: C_7  and  N_8 
REMARK       I    between atoms: N_8  and  C_9 
REMARK    4  A    between atoms: C_9  and  C_10 
REMARK    5  A    between atoms: C_13  and  N_14 
REMARK       I    between atoms: N_14  and  C_15 
REMARK    6  A    between atoms: C_15  and  C_16 
REMARK    7  A    between atoms: C_16  and  N_17 
ROOT
HETATM    1  C   UNL     1       7.112  28.251  55.464  1.00  0.00     0.032 A 
HETATM    2  C   UNL     1       8.431  28.570  55.796  1.00  0.00     0.019 A 
HETATM    3  C   UNL     1       8.735  29.036  57.087  1.00  0.00     0.030 A 
HETATM    4  C   UNL     1       7.724  29.205  58.038  1.00  0.00     0.034 A 
HETATM    5  C   UNL     1       6.410  28.852  57.702  1.00  0.00     0.030 A 
HETATM    6  C   UNL     1       6.102  28.390  56.421  1.00  0.00     0.019 A 
ENDROOT
BRANCH   4   7
HETATM    7  N   UNL     1       7.908  29.772  59.317  1.00  0.00    -0.326 N 
HETATM    8  C   UNL     1       8.105  31.108  59.642  1.00  0.00     0.240 C 
HETATM    9  O   UNL     1       8.284  32.028  58.849  1.00  0.00    -0.271 OA
HETATM   10  H   UNL     1       7.744  29.138  60.090  1.00  0.00     0.169 HD
BRANCH   8  11
HETATM   11  C   UNL     1       8.097  31.336  61.162  1.00  0.00     0.240 C 
BRANCH  11  12
HETATM   12  N   UNL     1       6.976  32.161  61.542  1.00  0.00    -0.259 N 
HETATM   13  C   UNL     1       6.987  32.978  62.628  1.00  0.00     0.326 A 
HETATM   14  O   UNL     1       7.913  33.154  63.402  1.00  0.00    -0.247 OA
HETATM   15  N   UNL     1       5.775  33.620  62.705  1.00  0.00    -0.324 N 
HETATM   16  C   UNL     1       4.927  33.338  61.566  1.00  0.00     0.116 A 
HETATM   17  H   UNL     1       5.597  34.303  63.430  1.00  0.00     0.165 HD
HETATM   18  C   UNL     1       4.751  34.587  60.694  1.00  0.00     0.041 C 
HETATM   19  C   UNL     1       3.593  32.718  61.978  1.00  0.00     0.041 C 
HETATM   20  C   UNL     1       5.814  32.303  60.841  1.00  0.00     0.256 A 
HETATM   21  C   UNL     1       3.804  35.605  61.335  1.00  0.00     0.007 C 
HETATM   22  C   UNL     1       2.452  34.998  61.737  1.00  0.00    -0.019 C 
HETATM   23  C   UNL     1       1.578  34.713  60.514  1.00  0.00     0.010 C 
HETATM   24  C   UNL     1       2.647  33.745  62.603  1.00  0.00     0.007 C 
HETATM   25  O   UNL     1       5.539  31.756  59.781  1.00  0.00    -0.270 OA
ENDBRANCH  11  12
ENDBRANCH   8  11
ENDBRANCH   4   7
BRANCH   1  26
HETATM   26  C   UNL     1       6.691  28.010  54.075  1.00  0.00     0.256 C 
HETATM   27  N   UNL     1       6.861  26.835  53.394  1.00  0.00    -0.323 N 
HETATM   28  H   UNL     1       6.605  26.981  52.423  1.00  0.00     0.169 HD
HETATM   29  O   UNL     1       6.173  28.955  53.476  1.00  0.00    -0.267 OA
BRANCH  27  30
HETATM   30  C   UNL     1       7.159  25.509  53.738  1.00  0.00     0.035 A 
HETATM   31  C   UNL     1       6.934  24.910  54.973  1.00  0.00     0.032 A 
HETATM   32  C   UNL     1       7.248  23.552  55.176  1.00  0.00     0.039 A 
HETATM   33  C   UNL     1       7.775  22.780  54.142  1.00  0.00     0.068 A 
HETATM   34  C   UNL     1       7.977  23.373  52.899  1.00  0.00     0.039 A 
HETATM   35  C   UNL     1       7.677  24.721  52.700  1.00  0.00     0.032 A 
BRANCH  33  36
HETATM   36  O   UNL     1       8.112  21.459  54.187  1.00  0.00    -0.352 OA
BRANCH  36  37
HETATM   37  C   UNL     1       7.762  20.686  55.332  1.00  0.00     0.171 C 
HETATM   38  C   UNL     1       8.993  20.383  56.166  1.00  0.00     0.034 C 
ENDBRANCH  36  37
ENDBRANCH  33  36
ENDBRANCH  27  30
ENDBRANCH   1  26
TORSDOF 7
ENDMDL
MODEL 10
REMARK VINA RESULT:      -8.9      4.408      8.447
REMARK  7 active torsions:
REMARK  status: ('A' for Active; 'I' for Inactive)
REMARK    1  A    between atoms: C_2  and  O_3 
REMARK    2  A    between atoms: O_3  and  C_4 
REMARK    3  A    between atoms: C_7  and  N_8 
REMARK       I    between atoms: N_8  and  C_9 
REMARK    4  A    between atoms: C_9  and  C_10 
REMARK    5  A    between atoms: C_13  and  N_14 
REMARK       I    between atoms: N_14  and  C_15 
REMARK    6  A    between atoms: C_15  and  C_16 
REMARK    7  A    between atoms: C_16  and  N_17 
ROOT
HETATM    1  C   UNL     1       6.595  24.342  53.925  1.00  0.00     0.032 A 
HETATM    2  C   UNL     1       5.291  24.798  53.717  1.00  0.00     0.019 A 
HETATM    3  C   UNL     1       4.976  25.508  52.546  1.00  0.00     0.030 A 
HETATM    4  C   UNL     1       5.962  25.783  51.593  1.00  0.00     0.034 A 
HETATM    5  C   UNL     1       7.259  25.293  51.800  1.00  0.00     0.030 A 
HETATM    6  C   UNL     1       7.578  24.589  52.962  1.00  0.00     0.019 A 
ENDROOT
BRANCH   4   7
HETATM    7  N   UNL     1       5.773  26.581  50.446  1.00  0.00    -0.326 N 
HETATM    8  C   UNL     1       4.781  26.471  49.478  1.00  0.00     0.240 C 
HETATM    9  O   UNL     1       3.960  25.564  49.384  1.00  0.00    -0.271 OA
HETATM   10  H   UNL     1       6.356  27.409  50.404  1.00  0.00     0.169 HD
BRANCH   8  11
HETATM   11  C   UNL     1       4.825  27.636  48.478  1.00  0.00     0.240 C 
BRANCH  11  12
HETATM   12  N   UNL     1       4.242  28.821  49.059  1.00  0.00    -0.259 N 
HETATM   13  C   UNL     1       2.909  29.087  49.031  1.00  0.00     0.326 A 
HETATM   14  O   UNL     1       2.033  28.385  48.554  1.00  0.00    -0.247 OA
HETATM   15  N   UNL     1       2.688  30.283  49.668  1.00  0.00    -0.324 N 
HETATM   16  C   UNL     1       3.890  30.818  50.273  1.00  0.00     0.116 A 
HETATM   17  H   UNL     1       1.748  30.641  49.785  1.00  0.00     0.165 HD
HETATM   18  C   UNL     1       3.795  30.778  51.803  1.00  0.00     0.041 C 
HETATM   19  C   UNL     1       4.234  32.209  49.743  1.00  0.00     0.041 C 
HETATM   20  C   UNL     1       4.909  29.773  49.774  1.00  0.00     0.256 A 
HETATM   21  C   UNL     1       2.861  31.861  52.348  1.00  0.00     0.007 C 
HETATM   22  C   UNL     1       3.207  33.267  51.837  1.00  0.00    -0.019 C 
HETATM   23  C   UNL     1       4.480  33.806  52.495  1.00  0.00     0.010 C 
HETATM   24  C   UNL     1       3.305  33.288  50.305  1.00  0.00     0.007 C 
HETATM   25  O   UNL     1       6.105  29.770  50.037  1.00  0.00    -0.270 OA
ENDBRANCH  11  12
ENDBRANCH   8  11
ENDBRANCH   4   7
BRANCH   1  26
HETATM   26  C   UNL     1       7.046  23.829  55.228  1.00  0.00     0.256 C 
HETATM   27  N   UNL     1       7.342  24.601  56.318  1.00  0.00    -0.323 N 
HETATM   28  H   UNL     1       7.750  24.011  57.035  1.00  0.00     0.169 HD
HETATM   29  O   UNL     1       7.195  22.608  55.327  1.00  0.00    -0.267 OA
BRANCH  27  30
HETATM   30  C   UNL     1       7.095  25.925  56.707  1.00  0.00     0.035 A 
HETATM   31  C   UNL     1       5.850  26.543  56.778  1.00  0.00     0.032 A 
HETATM   32  C   UNL     1       5.738  27.875  57.222  1.00  0.00     0.039 A 
HETATM   33  C   UNL     1       6.867  28.594  57.611  1.00  0.00     0.068 A 
HETATM   34  C   UNL     1       8.109  27.968  57.563  1.00  0.00     0.039 A 
HETATM   35  C   UNL     1       8.223  26.652  57.113  1.00  0.00     0.032 A 
BRANCH  33  36
HETATM   36  O   UNL     1       6.910  29.877  58.072  1.00  0.00    -0.352 OA
BRANCH  36  37
HETATM   37  C   UNL     1       8.061  30.328  58.782  1.00  0.00     0.171 C 
HETATM   38  C   UNL     1       7.694  31.456  59.729  1.00  0.00     0.034 C 
ENDBRANCH  36  37
ENDBRANCH  33  36
ENDBRANCH  27  30
ENDBRANCH   1  26
TORSDOF 7
ENDMDL
