MODEL 1
REMARK VINA RESULT:     -11.4      0.000      0.000
REMARK  6 active torsions:
REMARK  status: ('A' for Active; 'I' for Inactive)
REMARK    1  A    between atoms: C_4  and  C_5 
REMARK    2  A    between atoms: N_7  and  C_8 
REMARK    3  A    between atoms: C_8  and  C_9 
REMARK    4  A    between atoms: C_9  and  C_10 
REMARK       I    between atoms: C_10  and  N_11 
REMARK    5  A    between atoms: N_11  and  N_12 
REMARK    6  A    between atoms: C_24  and  C_25 
ROOT
HETATM    1  C   UNL     1       6.856  27.588  55.015  1.00  0.00     0.161 C 
ENDROOT
BRANCH   1   2
HETATM    2  N   UNL     1       6.713  26.355  54.257  1.00  0.00    -0.268 N 
HETATM    3  N   UNL     1       7.335  25.256  54.717  1.00  0.00    -0.172 NA
HETATM    4  C   UNL     1       6.965  24.266  53.890  1.00  0.00     0.089 A 
HETATM    5  C   UNL     1       6.081  24.770  52.903  1.00  0.00     0.066 A 
HETATM    6  C   UNL     1       5.923  26.120  53.158  1.00  0.00     0.065 A 
BRANCH   4   7
HETATM    7  C   UNL     1       7.436  22.887  54.078  1.00  0.00    -0.006 A 
HETATM    8  C   UNL     1       7.500  22.327  55.364  1.00  0.00     0.014 A 
HETATM    9  C   UNL     1       7.946  21.015  55.555  1.00  0.00     0.001 A 
HETATM   10  C   UNL     1       8.333  20.244  54.463  1.00  0.00     0.000 A 
HETATM   11  C   UNL     1       8.273  20.782  53.179  1.00  0.00     0.001 A 
HETATM   12  C   UNL     1       7.827  22.095  52.988  1.00  0.00     0.014 A 
ENDBRANCH   4   7
BRANCH   6  13
HETATM   13  C   UNL     1       5.048  27.085  52.500  1.00  0.00    -0.008 A 
HETATM   14  C   UNL     1       4.028  27.742  53.198  1.00  0.00     0.014 A 
HETATM   15  C   UNL     1       3.197  28.654  52.543  1.00  0.00     0.001 A 
HETATM   16  C   UNL     1       3.388  28.927  51.189  1.00  0.00     0.000 A 
HETATM   17  C   UNL     1       4.413  28.294  50.491  1.00  0.00     0.001 A 
HETATM   18  C   UNL     1       5.240  27.378  51.144  1.00  0.00     0.014 A 
ENDBRANCH   6  13
ENDBRANCH   1   2
BRANCH   1  19
HETATM   19  C   UNL     1       8.084  28.385  54.611  1.00  0.00     0.126 C 
BRANCH  19  20
HETATM   20  C   UNL     1       8.747  29.020  55.811  1.00  0.00     0.239 C 
HETATM   21  N   UNL     1       8.137  28.715  57.014  1.00  0.00    -0.246 N 
HETATM   22  H   UNL     1       7.409  27.997  57.068  1.00  0.00     0.192 HD
HETATM   23  O   UNL     1       9.725  29.752  55.671  1.00  0.00    -0.272 OA
BRANCH  21  24
HETATM   24  N   UNL     1       8.616  29.252  58.173  1.00  0.00    -0.166 NA
HETATM   25  C   UNL     1       7.877  30.142  58.750  1.00  0.00     0.157 A 
HETATM   26  C   UNL     1       6.537  30.728  58.290  1.00  0.00     0.277 A 
HETATM   27  C   UNL     1       8.196  30.818  60.002  1.00  0.00     0.027 A 
HETATM   28  O   UNL     1       5.977  30.463  57.246  1.00  0.00    -0.266 OA
HETATM   29  N   UNL     1       6.170  31.626  59.269  1.00  0.00    -0.321 N 
HETATM   30  C   UNL     1       7.142  31.691  60.264  1.00  0.00     0.048 A 
HETATM   31  H   UNL     1       5.323  32.172  59.229  1.00  0.00     0.169 HD
HETATM   32  C   UNL     1       7.146  32.500  61.380  1.00  0.00     0.030 A 
HETATM   33  C   UNL     1       8.252  32.408  62.236  1.00  0.00     0.002 A 
HETATM   34  C   UNL     1       9.314  31.521  61.964  1.00  0.00     0.001 A 
HETATM   35  C   UNL     1       9.294  30.707  60.828  1.00  0.00     0.016 A 
ENDBRANCH  21  24
ENDBRANCH  19  20
ENDBRANCH   1  19
TORSDOF 6
ENDMDL
MODEL 2
REMARK VINA RESULT:     -11.0      1.155      4.991
REMARK  6 active torsions:
REMARK  status: ('A' for Active; 'I' for Inactive)
REMARK    1  A    between atoms: C_4  and  C_5 
REMARK    2  A    between atoms: N_7  and  C_8 
REMARK    3  A    between atoms: C_8  and  C_9 
REMARK    4  A    between atoms: C_9  and  C_10 
REMARK       I    between atoms: C_10  and  N_11 
REMARK    5  A    between atoms: N_11  and  N_12 
REMARK    6  A    between atoms: C_24  and  C_25 
ROOT
HETATM    1  C   UNL     1       7.389  25.728  55.691  1.00  0.00     0.161 C 
ENDROOT
BRANCH   1   2
HETATM    2  N   UNL     1       6.740  25.408  54.429  1.00  0.00    -0.268 N 
HETATM    3  N   UNL     1       6.162  26.411  53.745  1.00  0.00    -0.172 NA
HETATM    4  C   UNL     1       5.729  25.858  52.602  1.00  0.00     0.089 A 
HETATM    5  C   UNL     1       6.062  24.479  52.578  1.00  0.00     0.066 A 
HETATM    6  C   UNL     1       6.721  24.207  53.763  1.00  0.00     0.065 A 
BRANCH   4   7
HETATM    7  C   UNL     1       5.046  26.651  51.570  1.00  0.00    -0.006 A 
HETATM    8  C   UNL     1       4.522  27.916  51.878  1.00  0.00     0.014 A 
HETATM    9  C   UNL     1       3.870  28.680  50.905  1.00  0.00     0.001 A 
HETATM   10  C   UNL     1       3.734  28.190  49.609  1.00  0.00     0.000 A 
HETATM   11  C   UNL     1       4.252  26.938  49.285  1.00  0.00     0.001 A 
HETATM   12  C   UNL     1       4.903  26.173  50.259  1.00  0.00     0.014 A 
ENDBRANCH   4   7
BRANCH   6  13
HETATM   13  C   UNL     1       7.356  22.968  54.199  1.00  0.00    -0.008 A 
HETATM   14  C   UNL     1       7.416  22.612  55.551  1.00  0.00     0.014 A 
HETATM   15  C   UNL     1       8.040  21.425  55.943  1.00  0.00     0.001 A 
HETATM   16  C   UNL     1       8.594  20.577  54.985  1.00  0.00     0.000 A 
HETATM   17  C   UNL     1       8.521  20.911  53.636  1.00  0.00     0.001 A 
HETATM   18  C   UNL     1       7.903  22.100  53.244  1.00  0.00     0.014 A 
ENDBRANCH   6  13
ENDBRANCH   1   2
BRANCH   1  19
HETATM   19  C   UNL     1       7.761  27.196  55.803  1.00  0.00     0.126 C 
BRANCH  19  20
HETATM   20  C   UNL     1       7.971  27.601  57.243  1.00  0.00     0.239 C 
HETATM   21  N   UNL     1       8.399  28.906  57.401  1.00  0.00    -0.246 N 
HETATM   22  H   UNL     1       8.407  29.557  56.611  1.00  0.00     0.192 HD
HETATM   23  O   UNL     1       7.785  26.795  58.153  1.00  0.00    -0.272 OA
BRANCH  21  24
HETATM   24  N   UNL     1       8.658  29.389  58.650  1.00  0.00    -0.166 NA
HETATM   25  C   UNL     1       7.914  30.363  59.063  1.00  0.00     0.157 A 
HETATM   26  C   UNL     1       6.793  31.100  58.322  1.00  0.00     0.277 A 
HETATM   27  C   UNL     1       8.013  31.003  60.369  1.00  0.00     0.027 A 
HETATM   28  O   UNL     1       6.460  30.897  57.172  1.00  0.00    -0.266 OA
HETATM   29  N   UNL     1       6.317  32.039  59.211  1.00  0.00    -0.321 N 
HETATM   30  C   UNL     1       7.035  31.995  60.403  1.00  0.00     0.048 A 
HETATM   31  H   UNL     1       5.570  32.681  58.990  1.00  0.00     0.169 HD
HETATM   32  C   UNL     1       6.877  32.803  61.508  1.00  0.00     0.030 A 
HETATM   33  C   UNL     1       7.739  32.586  62.592  1.00  0.00     0.002 A 
HETATM   34  C   UNL     1       8.726  31.579  62.550  1.00  0.00     0.001 A 
HETATM   35  C   UNL     1       8.872  30.768  61.422  1.00  0.00     0.016 A 
ENDBRANCH  21  24
ENDBRANCH  19  20
ENDBRANCH   1  19
TORSDOF 6
ENDMDL
MODEL 3
REMARK VINA RESULT:     -10.8      2.592      9.764
REMARK  6 active torsions:
REMARK  status: ('A' for Active; 'I' for Inactive)
REMARK    1  A    between atoms: C_4  and  C_5 
REMARK    2  A    between atoms: N_7  and  C_8 
REMARK    3  A    between atoms: C_8  and  C_9 
REMARK    4  A    between atoms: C_9  and  C_10 
REMARK       I    between atoms: C_10  and  N_11 
REMARK    5  A    between atoms: N_11  and  N_12 
REMARK    6  A    between atoms: C_24  and  C_25 
ROOT
HETATM    1  C   UNL     1       6.064  31.282  57.849  1.00  0.00     0.161 C 
ENDROOT
BRANCH   1   2
HETATM    2  N   UNL     1       6.826  31.536  59.062  1.00  0.00    -0.268 N 
HETATM    3  N   UNL     1       6.176  32.054  60.118  1.00  0.00    -0.172 NA
HETATM    4  C   UNL     1       7.083  32.099  61.106  1.00  0.00     0.089 A 
HETATM    5  C   UNL     1       8.322  31.582  60.646  1.00  0.00     0.066 A 
HETATM    6  C   UNL     1       8.136  31.217  59.325  1.00  0.00     0.065 A 
BRANCH   4   7
HETATM    7  C   UNL     1       6.742  32.600  62.445  1.00  0.00    -0.006 A 
HETATM    8  C   UNL     1       7.749  32.830  63.395  1.00  0.00     0.014 A 
HETATM    9  C   UNL     1       7.438  33.306  64.673  1.00  0.00     0.001 A 
HETATM   10  C   UNL     1       6.113  33.559  65.017  1.00  0.00     0.000 A 
HETATM   11  C   UNL     1       5.100  33.340  64.086  1.00  0.00     0.001 A 
HETATM   12  C   UNL     1       5.413  32.863  62.808  1.00  0.00     0.014 A 
ENDBRANCH   4   7
BRANCH   6  13
HETATM   13  C   UNL     1       9.062  30.547  58.417  1.00  0.00    -0.008 A 
HETATM   14  C   UNL     1      10.308  31.100  58.104  1.00  0.00     0.014 A 
HETATM   15  C   UNL     1      11.172  30.444  57.224  1.00  0.00     0.001 A 
HETATM   16  C   UNL     1      10.803  29.222  56.662  1.00  0.00     0.000 A 
HETATM   17  C   UNL     1       9.574  28.653  56.984  1.00  0.00     0.001 A 
HETATM   18  C   UNL     1       8.708  29.311  57.859  1.00  0.00     0.014 A 
ENDBRANCH   6  13
ENDBRANCH   1   2
BRANCH   1  19
HETATM   19  C   UNL     1       5.194  30.042  57.953  1.00  0.00     0.126 C 
BRANCH  19  20
HETATM   20  C   UNL     1       5.295  29.194  56.707  1.00  0.00     0.239 C 
HETATM   21  N   UNL     1       5.825  27.936  56.926  1.00  0.00    -0.246 N 
HETATM   22  H   UNL     1       5.974  27.586  57.877  1.00  0.00     0.192 HD
HETATM   23  O   UNL     1       4.943  29.640  55.616  1.00  0.00    -0.272 OA
BRANCH  21  24
HETATM   24  N   UNL     1       6.001  27.082  55.878  1.00  0.00    -0.166 NA
HETATM   25  C   UNL     1       6.673  26.002  56.115  1.00  0.00     0.157 A 
HETATM   26  C   UNL     1       7.354  25.556  57.413  1.00  0.00     0.277 A 
HETATM   27  C   UNL     1       6.953  24.954  55.141  1.00  0.00     0.027 A 
HETATM   28  O   UNL     1       7.402  26.204  58.438  1.00  0.00    -0.266 OA
HETATM   29  N   UNL     1       7.918  24.330  57.134  1.00  0.00    -0.321 N 
HETATM   30  C   UNL     1       7.698  23.981  55.804  1.00  0.00     0.048 A 
HETATM   31  H   UNL     1       8.442  23.796  57.810  1.00  0.00     0.169 HD
HETATM   32  C   UNL     1       8.141  22.852  55.149  1.00  0.00     0.030 A 
HETATM   33  C   UNL     1       7.813  22.726  53.792  1.00  0.00     0.002 A 
HETATM   34  C   UNL     1       7.058  23.715  53.128  1.00  0.00     0.001 A 
HETATM   35  C   UNL     1       6.615  24.853  53.807  1.00  0.00     0.016 A 
ENDBRANCH  21  24
ENDBRANCH  19  20
ENDBRANCH   1  19
TORSDOF 6
ENDMDL
MODEL 4
REMARK VINA RESULT:     -10.7      1.850      2.726
REMARK  6 active torsions:
REMARK  status: ('A' for Active; 'I' for Inactive)
REMARK    1  A    between atoms: C_4  and  C_5 
REMARK    2  A    between atoms: N_7  and  C_8 
REMARK    3  A    between atoms: C_8  and  C_9 
REMARK    4  A    between atoms: C_9  and  C_10 
REMARK       I    between atoms: C_10  and  N_11 
REMARK    5  A    between atoms: N_11  and  N_12 
REMARK    6  A    between atoms: C_24  and  C_25 
ROOT
HETATM    1  C   UNL     1       7.704  29.410  55.921  1.00  0.00     0.161 C 
ENDROOT
BRANCH   1   2
HETATM    2  N   UNL     1       6.998  28.272  55.354  1.00  0.00    -0.268 N 
HETATM    3  N   UNL     1       7.678  27.123  55.195  1.00  0.00    -0.172 NA
HETATM    4  C   UNL     1       6.777  26.236  54.746  1.00  0.00     0.089 A 
HETATM    5  C   UNL     1       5.505  26.855  54.639  1.00  0.00     0.066 A 
HETATM    6  C   UNL     1       5.664  28.168  55.041  1.00  0.00     0.065 A 
BRANCH   4   7
HETATM    7  C   UNL     1       7.142  24.840  54.463  1.00  0.00    -0.006 A 
HETATM    8  C   UNL     1       7.445  24.437  53.154  1.00  0.00     0.014 A 
HETATM    9  C   UNL     1       7.793  23.112  52.872  1.00  0.00     0.001 A 
HETATM   10  C   UNL     1       7.844  22.172  53.898  1.00  0.00     0.000 A 
HETATM   11  C   UNL     1       7.549  22.555  55.204  1.00  0.00     0.001 A 
HETATM   12  C   UNL     1       7.200  23.881  55.485  1.00  0.00     0.014 A 
ENDBRANCH   4   7
BRANCH   6  13
HETATM   13  C   UNL     1       4.654  29.207  55.210  1.00  0.00    -0.008 A 
HETATM   14  C   UNL     1       4.069  29.463  56.456  1.00  0.00     0.014 A 
HETATM   15  C   UNL     1       3.097  30.457  56.589  1.00  0.00     0.001 A 
HETATM   16  C   UNL     1       2.712  31.213  55.482  1.00  0.00     0.000 A 
HETATM   17  C   UNL     1       3.303  30.981  54.243  1.00  0.00     0.001 A 
HETATM   18  C   UNL     1       4.271  29.983  54.108  1.00  0.00     0.014 A 
ENDBRANCH   6  13
ENDBRANCH   1   2
BRANCH   1  19
HETATM   19  C   UNL     1       9.105  29.056  56.389  1.00  0.00     0.126 C 
BRANCH  19  20
HETATM   20  C   UNL     1       9.401  29.663  57.741  1.00  0.00     0.239 C 
HETATM   21  N   UNL     1       8.317  29.676  58.599  1.00  0.00    -0.246 N 
HETATM   22  H   UNL     1       7.458  29.170  58.369  1.00  0.00     0.192 HD
HETATM   23  O   UNL     1      10.519  30.109  57.994  1.00  0.00    -0.272 OA
BRANCH  21  24
HETATM   24  N   UNL     1       8.442  30.227  59.841  1.00  0.00    -0.166 NA
HETATM   25  C   UNL     1       7.626  31.186  60.135  1.00  0.00     0.157 A 
HETATM   26  C   UNL     1       6.550  31.839  59.260  1.00  0.00     0.277 A 
HETATM   27  C   UNL     1       7.579  31.891  61.410  1.00  0.00     0.027 A 
HETATM   28  O   UNL     1       6.333  31.568  58.096  1.00  0.00    -0.266 OA
HETATM   29  N   UNL     1       5.958  32.798  60.053  1.00  0.00    -0.321 N 
HETATM   30  C   UNL     1       6.565  32.840  61.306  1.00  0.00     0.048 A 
HETATM   31  H   UNL     1       5.211  33.396  59.734  1.00  0.00     0.169 HD
HETATM   32  C   UNL     1       6.275  33.692  62.350  1.00  0.00     0.030 A 
HETATM   33  C   UNL     1       7.041  33.563  63.516  1.00  0.00     0.002 A 
HETATM   34  C   UNL     1       8.065  32.599  63.615  1.00  0.00     0.001 A 
HETATM   35  C   UNL     1       8.346  31.742  62.547  1.00  0.00     0.016 A 
ENDBRANCH  21  24
ENDBRANCH  19  20
ENDBRANCH   1  19
TORSDOF 6
ENDMDL
MODEL 5
REMARK VINA RESULT:     -10.7      2.593      8.204
REMARK  6 active torsions:
REMARK  status: ('A' for Active; 'I' for Inactive)
REMARK    1  A    between atoms: C_4  and  C_5 
REMARK    2  A    between atoms: N_7  and  C_8 
REMARK    3  A    between atoms: C_8  and  C_9 
REMARK    4  A    between atoms: C_9  and  C_10 
REMARK       I    between atoms: C_10  and  N_11 
REMARK    5  A    between atoms: N_11  and  N_12 
REMARK    6  A    between atoms: C_24  and  C_25 
ROOT
HETATM    1  C   UNL     1       7.231  28.114  54.437  1.00  0.00     0.161 C 
ENDROOT
BRANCH   1   2
HETATM    2  N   UNL     1       7.590  27.036  55.344  1.00  0.00    -0.268 N 
HETATM    3  N   UNL     1       7.452  25.772  54.908  1.00  0.00    -0.172 NA
HETATM    4  C   UNL     1       7.931  25.001  55.896  1.00  0.00     0.089 A 
HETATM    5  C   UNL     1       8.389  25.816  56.963  1.00  0.00     0.066 A 
HETATM    6  C   UNL     1       8.168  27.128  56.588  1.00  0.00     0.065 A 
BRANCH   4   7
HETATM    7  C   UNL     1       7.964  23.535  55.786  1.00  0.00    -0.006 A 
HETATM    8  C   UNL     1       8.323  22.748  56.890  1.00  0.00     0.014 A 
HETATM    9  C   UNL     1       8.358  21.353  56.798  1.00  0.00     0.001 A 
HETATM   10  C   UNL     1       8.033  20.726  55.598  1.00  0.00     0.000 A 
HETATM   11  C   UNL     1       7.670  21.492  54.492  1.00  0.00     0.001 A 
HETATM   12  C   UNL     1       7.636  22.888  54.585  1.00  0.00     0.014 A 
ENDBRANCH   4   7
BRANCH   6  13
HETATM   13  C   UNL     1       8.542  28.358  57.277  1.00  0.00    -0.008 A 
HETATM   14  C   UNL     1       9.760  28.998  57.022  1.00  0.00     0.014 A 
HETATM   15  C   UNL     1      10.099  30.170  57.703  1.00  0.00     0.001 A 
HETATM   16  C   UNL     1       9.218  30.718  58.634  1.00  0.00     0.000 A 
HETATM   17  C   UNL     1       7.995  30.101  58.880  1.00  0.00     0.001 A 
HETATM   18  C   UNL     1       7.657  28.927  58.203  1.00  0.00     0.014 A 
ENDBRANCH   6  13
ENDBRANCH   1   2
BRANCH   1  19
HETATM   19  C   UNL     1       5.939  28.806  54.833  1.00  0.00     0.126 C 
BRANCH  19  20
HETATM   20  C   UNL     1       5.013  28.961  53.649  1.00  0.00     0.239 C 
HETATM   21  N   UNL     1       5.659  28.939  52.426  1.00  0.00    -0.246 N 
HETATM   22  H   UNL     1       6.646  28.680  52.358  1.00  0.00     0.192 HD
HETATM   23  O   UNL     1       3.804  29.111  53.815  1.00  0.00    -0.272 OA
BRANCH  21  24
HETATM   24  N   UNL     1       4.942  29.101  51.277  1.00  0.00    -0.166 NA
HETATM   25  C   UNL     1       4.650  28.028  50.618  1.00  0.00     0.157 A 
HETATM   26  C   UNL     1       5.039  26.576  50.919  1.00  0.00     0.277 A 
HETATM   27  C   UNL     1       3.876  27.982  49.383  1.00  0.00     0.027 A 
HETATM   28  O   UNL     1       5.749  26.216  51.835  1.00  0.00    -0.266 OA
HETATM   29  N   UNL     1       4.465  25.823  49.917  1.00  0.00    -0.321 N 
HETATM   30  C   UNL     1       3.796  26.642  49.011  1.00  0.00     0.048 A 
HETATM   31  H   UNL     1       4.560  24.821  49.855  1.00  0.00     0.169 HD
HETATM   32  C   UNL     1       3.136  26.259  47.863  1.00  0.00     0.030 A 
HETATM   33  C   UNL     1       2.553  27.271  47.089  1.00  0.00     0.002 A 
HETATM   34  C   UNL     1       2.637  28.625  47.473  1.00  0.00     0.001 A 
HETATM   35  C   UNL     1       3.309  28.997  48.640  1.00  0.00     0.016 A 
ENDBRANCH  21  24
ENDBRANCH  19  20
ENDBRANCH   1  19
TORSDOF 6
ENDMDL
MODEL 6
REMARK VINA RESULT:     -10.4      3.223      8.659
REMARK  6 active torsions:
REMARK  status: ('A' for Active; 'I' for Inactive)
REMARK    1  A    between atoms: C_4  and  C_5 
REMARK    2  A    between atoms: N_7  and  C_8 
REMARK    3  A    between atoms: C_8  and  C_9 
REMARK    4  A    between atoms: C_9  and  C_10 
REMARK       I    between atoms: C_10  and  N_11 
REMARK    5  A    between atoms: N_11  and  N_12 
REMARK    6  A    between atoms: C_24  and  C_25 
ROOT
HETATM    1  C   UNL     1       6.840  27.235  53.931  1.00  0.00     0.161 C 
ENDROOT
BRANCH   1   2
HETATM    2  N   UNL     1       7.233  26.251  54.927  1.00  0.00    -0.268 N 
HETATM    3  N   UNL     1       7.285  24.961  54.552  1.00  0.00    -0.172 NA
HETATM    4  C   UNL     1       7.753  24.299  55.622  1.00  0.00     0.089 A 
HETATM    5  C   UNL     1       8.009  25.212  56.678  1.00  0.00     0.066 A 
HETATM    6  C   UNL     1       7.674  26.469  56.210  1.00  0.00     0.065 A 
BRANCH   4   7
HETATM    7  C   UNL     1       7.966  22.845  55.598  1.00  0.00    -0.006 A 
HETATM    8  C   UNL     1       7.777  22.119  54.412  1.00  0.00     0.014 A 
HETATM    9  C   UNL     1       7.977  20.735  54.377  1.00  0.00     0.001 A 
HETATM   10  C   UNL     1       8.370  20.058  55.528  1.00  0.00     0.000 A 
HETATM   11  C   UNL     1       8.566  20.764  56.713  1.00  0.00     0.001 A 
HETATM   12  C   UNL     1       8.365  22.148  56.748  1.00  0.00     0.014 A 
ENDBRANCH   4   7
BRANCH   6  13
HETATM   13  C   UNL     1       7.835  27.765  56.860  1.00  0.00    -0.008 A 
HETATM   14  C   UNL     1       9.094  28.357  57.011  1.00  0.00     0.014 A 
HETATM   15  C   UNL     1       9.222  29.595  57.646  1.00  0.00     0.001 A 
HETATM   16  C   UNL     1       8.092  30.257  58.121  1.00  0.00     0.000 A 
HETATM   17  C   UNL     1       6.832  29.687  57.958  1.00  0.00     0.001 A 
HETATM   18  C   UNL     1       6.704  28.447  57.328  1.00  0.00     0.014 A 
ENDBRANCH   6  13
ENDBRANCH   1   2
BRANCH   1  19
HETATM   19  C   UNL     1       6.961  26.712  52.511  1.00  0.00     0.126 C 
BRANCH  19  20
HETATM   20  C   UNL     1       5.607  26.592  51.852  1.00  0.00     0.239 C 
HETATM   21  N   UNL     1       5.656  26.566  50.471  1.00  0.00    -0.246 N 
HETATM   22  H   UNL     1       6.548  26.476  49.978  1.00  0.00     0.192 HD
HETATM   23  O   UNL     1       4.582  26.546  52.531  1.00  0.00    -0.272 OA
BRANCH  21  24
HETATM   24  N   UNL     1       4.499  26.494  49.752  1.00  0.00    -0.166 NA
HETATM   25  C   UNL     1       4.167  27.546  49.077  1.00  0.00     0.157 A 
HETATM   26  C   UNL     1       4.872  28.905  49.002  1.00  0.00     0.277 A 
HETATM   27  C   UNL     1       2.986  27.666  48.230  1.00  0.00     0.027 A 
HETATM   28  O   UNL     1       5.862  29.217  49.632  1.00  0.00    -0.266 OA
HETATM   29  N   UNL     1       4.118  29.666  48.136  1.00  0.00    -0.321 N 
HETATM   30  C   UNL     1       3.008  28.951  47.693  1.00  0.00     0.048 A 
HETATM   31  H   UNL     1       4.343  30.620  47.898  1.00  0.00     0.169 HD
HETATM   32  C   UNL     1       2.008  29.390  46.853  1.00  0.00     0.030 A 
HETATM   33  C   UNL     1       0.971  28.492  46.564  1.00  0.00     0.002 A 
HETATM   34  C   UNL     1       0.957  27.192  47.111  1.00  0.00     0.001 A 
HETATM   35  C   UNL     1       1.979  26.763  47.961  1.00  0.00     0.016 A 
ENDBRANCH  21  24
ENDBRANCH  19  20
ENDBRANCH   1  19
TORSDOF 6
ENDMDL
MODEL 7
REMARK VINA RESULT:     -10.4      2.717      9.951
REMARK  6 active torsions:
REMARK  status: ('A' for Active; 'I' for Inactive)
REMARK    1  A    between atoms: C_4  and  C_5 
REMARK    2  A    between atoms: N_7  and  C_8 
REMARK    3  A    between atoms: C_8  and  C_9 
REMARK    4  A    between atoms: C_9  and  C_10 
REMARK       I    between atoms: C_10  and  N_11 
REMARK    5  A    between atoms: N_11  and  N_12 
REMARK    6  A    between atoms: C_24  and  C_25 
ROOT
HETATM    1  C   UNL     1       5.953  31.953  58.037  1.00  0.00     0.161 C 
ENDROOT
BRANCH   1   2
HETATM    2  N   UNL     1       6.684  31.986  59.293  1.00  0.00    -0.268 N 
HETATM    3  N   UNL     1       6.074  32.523  60.364  1.00  0.00    -0.172 NA
HETATM    4  C   UNL     1       6.926  32.344  61.385  1.00  0.00     0.089 A 
HETATM    5  C   UNL     1       8.086  31.665  60.930  1.00  0.00     0.066 A 
HETATM    6  C   UNL     1       7.911  31.436  59.578  1.00  0.00     0.065 A 
BRANCH   4   7
HETATM    7  C   UNL     1       6.604  32.791  62.747  1.00  0.00    -0.006 A 
HETATM    8  C   UNL     1       7.629  33.058  63.668  1.00  0.00     0.014 A 
HETATM    9  C   UNL     1       7.335  33.484  64.968  1.00  0.00     0.001 A 
HETATM   10  C   UNL     1       6.010  33.651  65.363  1.00  0.00     0.000 A 
HETATM   11  C   UNL     1       4.980  33.394  64.461  1.00  0.00     0.001 A 
HETATM   12  C   UNL     1       5.275  32.966  63.162  1.00  0.00     0.014 A 
ENDBRANCH   4   7
BRANCH   6  13
HETATM   13  C   UNL     1       8.760  30.693  58.653  1.00  0.00    -0.008 A 
HETATM   14  C   UNL     1       8.380  29.443  58.154  1.00  0.00     0.014 A 
HETATM   15  C   UNL     1       9.216  28.747  57.277  1.00  0.00     0.001 A 
HETATM   16  C   UNL     1      10.431  29.302  56.881  1.00  0.00     0.000 A 
HETATM   17  C   UNL     1      10.810  30.555  57.355  1.00  0.00     0.001 A 
HETATM   18  C   UNL     1       9.978  31.249  58.236  1.00  0.00     0.014 A 
ENDBRANCH   6  13
ENDBRANCH   1   2
BRANCH   1  19
HETATM   19  C   UNL     1       4.745  31.035  58.086  1.00  0.00     0.126 C 
BRANCH  19  20
HETATM   20  C   UNL     1       4.476  30.407  56.738  1.00  0.00     0.239 C 
HETATM   21  N   UNL     1       5.599  29.866  56.139  1.00  0.00    -0.246 N 
HETATM   22  H   UNL     1       6.477  29.772  56.656  1.00  0.00     0.192 HD
HETATM   23  O   UNL     1       3.346  30.424  56.254  1.00  0.00    -0.272 OA
BRANCH  21  24
HETATM   24  N   UNL     1       5.500  29.297  54.903  1.00  0.00    -0.166 NA
HETATM   25  C   UNL     1       5.418  28.007  54.863  1.00  0.00     0.157 A 
HETATM   26  C   UNL     1       5.464  27.001  56.019  1.00  0.00     0.277 A 
HETATM   27  C   UNL     1       5.285  27.209  53.649  1.00  0.00     0.027 A 
HETATM   28  O   UNL     1       5.639  27.283  57.186  1.00  0.00    -0.266 OA
HETATM   29  N   UNL     1       5.322  25.760  55.436  1.00  0.00    -0.321 N 
HETATM   30  C   UNL     1       5.231  25.876  54.051  1.00  0.00     0.048 A 
HETATM   31  H   UNL     1       5.322  24.899  55.961  1.00  0.00     0.169 HD
HETATM   32  C   UNL     1       5.121  24.857  53.129  1.00  0.00     0.030 A 
HETATM   33  C   UNL     1       5.068  25.218  51.776  1.00  0.00     0.002 A 
HETATM   34  C   UNL     1       5.122  26.570  51.378  1.00  0.00     0.001 A 
HETATM   35  C   UNL     1       5.232  27.591  52.325  1.00  0.00     0.016 A 
ENDBRANCH  21  24
ENDBRANCH  19  20
ENDBRANCH   1  19
TORSDOF 6
ENDMDL
MODEL 8
REMARK VINA RESULT:     -10.3      1.409      2.451
REMARK  6 active torsions:
REMARK  status: ('A' for Active; 'I' for Inactive)
REMARK    1  A    between atoms: C_4  and  C_5 
REMARK    2  A    between atoms: N_7  and  C_8 
REMARK    3  A    between atoms: C_8  and  C_9 
REMARK    4  A    between atoms: C_9  and  C_10 
REMARK       I    between atoms: C_10  and  N_11 
REMARK    5  A    between atoms: N_11  and  N_12 
REMARK    6  A    between atoms: C_24  and  C_25 
ROOT
HETATM    1  C   UNL     1       6.301  27.537  54.210  1.00  0.00     0.161 C 
ENDROOT
BRANCH   1   2
HETATM    2  N   UNL     1       6.540  26.256  53.563  1.00  0.00    -0.268 N 
HETATM    3  N   UNL     1       6.998  25.244  54.320  1.00  0.00    -0.172 NA
HETATM    4  C   UNL     1       7.040  24.181  53.502  1.00  0.00     0.089 A 
HETATM    5  C   UNL     1       6.583  24.549  52.210  1.00  0.00     0.066 A 
HETATM    6  C   UNL     1       6.258  25.891  52.269  1.00  0.00     0.065 A 
BRANCH   4   7
HETATM    7  C   UNL     1       7.482  22.861  53.974  1.00  0.00    -0.006 A 
HETATM    8  C   UNL     1       7.890  21.879  53.058  1.00  0.00     0.014 A 
HETATM    9  C   UNL     1       8.312  20.619  53.494  1.00  0.00     0.001 A 
HETATM   10  C   UNL     1       8.333  20.324  54.855  1.00  0.00     0.000 A 
HETATM   11  C   UNL     1       7.935  21.288  55.779  1.00  0.00     0.001 A 
HETATM   12  C   UNL     1       7.512  22.548  55.341  1.00  0.00     0.014 A 
ENDBRANCH   4   7
BRANCH   6  13
HETATM   13  C   UNL     1       5.653  26.737  51.246  1.00  0.00    -0.008 A 
HETATM   14  C   UNL     1       5.845  28.123  51.234  1.00  0.00     0.014 A 
HETATM   15  C   UNL     1       5.246  28.912  50.249  1.00  0.00     0.001 A 
HETATM   16  C   UNL     1       4.463  28.320  49.259  1.00  0.00     0.000 A 
HETATM   17  C   UNL     1       4.282  26.940  49.249  1.00  0.00     0.001 A 
HETATM   18  C   UNL     1       4.876  26.151  50.237  1.00  0.00     0.014 A 
ENDBRANCH   6  13
ENDBRANCH   1   2
BRANCH   1  19
HETATM   19  C   UNL     1       4.889  27.665  54.753  1.00  0.00     0.126 C 
BRANCH  19  20
HETATM   20  C   UNL     1       4.827  28.654  55.893  1.00  0.00     0.239 C 
HETATM   21  N   UNL     1       6.066  29.033  56.374  1.00  0.00    -0.246 N 
HETATM   22  H   UNL     1       6.924  28.776  55.879  1.00  0.00     0.192 HD
HETATM   23  O   UNL     1       3.743  29.039  56.330  1.00  0.00    -0.272 OA
BRANCH  21  24
HETATM   24  N   UNL     1       6.151  29.898  57.426  1.00  0.00    -0.166 NA
HETATM   25  C   UNL     1       7.338  30.160  57.869  1.00  0.00     0.157 A 
HETATM   26  C   UNL     1       8.685  29.595  57.407  1.00  0.00     0.277 A 
HETATM   27  C   UNL     1       7.645  31.070  58.966  1.00  0.00     0.027 A 
HETATM   28  O   UNL     1       8.834  28.746  56.552  1.00  0.00    -0.266 OA
HETATM   29  N   UNL     1       9.634  30.209  58.195  1.00  0.00    -0.321 N 
HETATM   30  C   UNL     1       9.030  31.062  59.116  1.00  0.00     0.048 A 
HETATM   31  H   UNL     1      10.622  30.024  58.117  1.00  0.00     0.169 HD
HETATM   32  C   UNL     1       9.646  31.815  60.091  1.00  0.00     0.030 A 
HETATM   33  C   UNL     1       8.824  32.586  60.924  1.00  0.00     0.002 A 
HETATM   34  C   UNL     1       7.422  32.590  60.765  1.00  0.00     0.001 A 
HETATM   35  C   UNL     1       6.813  31.821  59.770  1.00  0.00     0.016 A 
ENDBRANCH  21  24
ENDBRANCH  19  20
ENDBRANCH   1  19
TORSDOF 6
ENDMDL
MODEL 9
REMARK VINA RESULT:     -10.2      3.755      9.105
REMARK  6 active torsions:
REMARK  status: ('A' for Active; 'I' for Inactive)
REMARK    1  A    between atoms: C_4  and  C_5 
REMARK    2  A    between atoms: N_7  and  C_8 
REMARK    3  A    between atoms: C_8  and  C_9 
REMARK    4  A    between atoms: C_9  and  C_10 
REMARK       I    between atoms: C_10  and  N_11 
REMARK    5  A    between atoms: N_11  and  N_12 
REMARK    6  A    between atoms: C_24  and  C_25 
ROOT
HETATM    1  C   UNL     1       5.521  27.287  53.969  1.00  0.00     0.161 C 
ENDROOT
BRANCH   1   2
HETATM    2  N   UNL     1       6.285  26.257  54.655  1.00  0.00    -0.268 N 
HETATM    3  N   UNL     1       6.356  25.041  54.086  1.00  0.00    -0.172 NA
HETATM    4  C   UNL     1       7.180  24.330  54.870  1.00  0.00     0.089 A 
HETATM    5  C   UNL     1       7.637  25.137  55.944  1.00  0.00     0.066 A 
HETATM    6  C   UNL     1       7.054  26.380  55.786  1.00  0.00     0.065 A 
BRANCH   4   7
HETATM    7  C   UNL     1       7.524  22.934  54.565  1.00  0.00    -0.006 A 
HETATM    8  C   UNL     1       7.764  22.535  53.241  1.00  0.00     0.014 A 
HETATM    9  C   UNL     1       8.092  21.210  52.937  1.00  0.00     0.001 A 
HETATM   10  C   UNL     1       8.185  20.265  53.955  1.00  0.00     0.000 A 
HETATM   11  C   UNL     1       7.954  20.643  55.276  1.00  0.00     0.001 A 
HETATM   12  C   UNL     1       7.625  21.970  55.578  1.00  0.00     0.014 A 
ENDBRANCH   4   7
BRANCH   6  13
HETATM   13  C   UNL     1       7.264  27.600  56.560  1.00  0.00    -0.008 A 
HETATM   14  C   UNL     1       6.189  28.349  57.051  1.00  0.00     0.014 A 
HETATM   15  C   UNL     1       6.416  29.518  57.780  1.00  0.00     0.001 A 
HETATM   16  C   UNL     1       7.720  29.940  58.037  1.00  0.00     0.000 A 
HETATM   17  C   UNL     1       8.797  29.191  57.570  1.00  0.00     0.001 A 
HETATM   18  C   UNL     1       8.570  28.025  56.836  1.00  0.00     0.014 A 
ENDBRANCH   6  13
ENDBRANCH   1   2
BRANCH   1  19
HETATM   19  C   UNL     1       5.470  27.076  52.466  1.00  0.00     0.126 C 
BRANCH  19  20
HETATM   20  C   UNL     1       4.354  27.876  51.836  1.00  0.00     0.239 C 
HETATM   21  N   UNL     1       4.256  27.720  50.466  1.00  0.00    -0.246 N 
HETATM   22  H   UNL     1       4.798  27.001  49.979  1.00  0.00     0.192 HD
HETATM   23  O   UNL     1       3.639  28.603  52.525  1.00  0.00    -0.272 OA
BRANCH  21  24
HETATM   24  N   UNL     1       3.310  28.413  49.769  1.00  0.00    -0.166 NA
HETATM   25  C   UNL     1       2.694  27.771  48.831  1.00  0.00     0.157 A 
HETATM   26  C   UNL     1       2.908  26.333  48.345  1.00  0.00     0.277 A 
HETATM   27  C   UNL     1       1.639  28.321  47.988  1.00  0.00     0.027 A 
HETATM   28  O   UNL     1       3.758  25.572  48.760  1.00  0.00    -0.266 OA
HETATM   29  N   UNL     1       1.989  26.142  47.337  1.00  0.00    -0.321 N 
HETATM   30  C   UNL     1       1.254  27.305  47.116  1.00  0.00     0.048 A 
HETATM   31  H   UNL     1       1.903  25.278  46.823  1.00  0.00     0.169 HD
HETATM   32  C   UNL     1       0.276  27.511  46.167  1.00  0.00     0.030 A 
HETATM   33  C   UNL     1      -0.313  28.782  46.117  1.00  0.00     0.002 A 
HETATM   34  C   UNL     1       0.081  29.805  47.004  1.00  0.00     0.001 A 
HETATM   35  C   UNL     1       1.075  29.579  47.961  1.00  0.00     0.016 A 
ENDBRANCH  21  24
ENDBRANCH  19  20
ENDBRANCH   1  19
TORSDOF 6
ENDMDL
MODEL 10
REMARK VINA RESULT:     -10.1      1.451      2.307
REMARK  6 active torsions:
REMARK  status: ('A' for Active; 'I' for Inactive)
REMARK    1  A    between atoms: C_4  and  C_5 
REMARK    2  A    between atoms: N_7  and  C_8 
REMARK    3  A    between atoms: C_8  and  C_9 
REMARK    4  A    between atoms: C_9  and  C_10 
REMARK       I    between atoms: C_10  and  N_11 
REMARK    5  A    between atoms: N_11  and  N_12 
REMARK    6  A    between atoms: C_24  and  C_25 
ROOT
HETATM    1  C   UNL     1       4.993  27.912  55.440  1.00  0.00     0.161 C 
ENDROOT
BRANCH   1   2
HETATM    2  N   UNL     1       5.535  26.924  54.520  1.00  0.00    -0.268 N 
HETATM    3  N   UNL     1       6.102  25.822  55.040  1.00  0.00    -0.172 NA
HETATM    4  C   UNL     1       6.429  25.059  53.986  1.00  0.00     0.089 A 
HETATM    5  C   UNL     1       6.039  25.706  52.785  1.00  0.00     0.066 A 
HETATM    6  C   UNL     1       5.457  26.906  53.148  1.00  0.00     0.065 A 
BRANCH   4   7
HETATM    7  C   UNL     1       7.067  23.745  54.152  1.00  0.00    -0.006 A 
HETATM    8  C   UNL     1       7.528  23.033  53.034  1.00  0.00     0.014 A 
HETATM    9  C   UNL     1       8.136  21.782  53.178  1.00  0.00     0.001 A 
HETATM   10  C   UNL     1       8.294  21.227  54.445  1.00  0.00     0.000 A 
HETATM   11  C   UNL     1       7.846  21.921  55.567  1.00  0.00     0.001 A 
HETATM   12  C   UNL     1       7.236  23.172  55.421  1.00  0.00     0.014 A 
ENDBRANCH   4   7
BRANCH   6  13
HETATM   13  C   UNL     1       4.805  27.904  52.307  1.00  0.00    -0.008 A 
HETATM   14  C   UNL     1       3.500  28.338  52.565  1.00  0.00     0.014 A 
HETATM   15  C   UNL     1       2.894  29.287  51.738  1.00  0.00     0.001 A 
HETATM   16  C   UNL     1       3.593  29.821  50.657  1.00  0.00     0.000 A 
HETATM   17  C   UNL     1       4.899  29.412  50.403  1.00  0.00     0.001 A 
HETATM   18  C   UNL     1       5.503  28.459  51.226  1.00  0.00     0.014 A 
ENDBRANCH   6  13
ENDBRANCH   1   2
BRANCH   1  19
HETATM   19  C   UNL     1       5.831  29.176  55.502  1.00  0.00     0.126 C 
BRANCH  19  20
HETATM   20  C   UNL     1       5.476  30.011  56.710  1.00  0.00     0.239 C 
HETATM   21  N   UNL     1       6.549  30.691  57.256  1.00  0.00    -0.246 N 
HETATM   22  H   UNL     1       7.449  30.732  56.769  1.00  0.00     0.192 HD
HETATM   23  O   UNL     1       4.324  30.032  57.140  1.00  0.00    -0.272 OA
BRANCH  21  24
HETATM   24  N   UNL     1       6.371  31.456  58.371  1.00  0.00    -0.166 NA
HETATM   25  C   UNL     1       7.168  31.228  59.364  1.00  0.00     0.157 A 
HETATM   26  C   UNL     1       8.272  30.173  59.492  1.00  0.00     0.277 A 
HETATM   27  C   UNL     1       7.158  31.947  60.633  1.00  0.00     0.027 A 
HETATM   28  O   UNL     1       8.537  29.331  58.659  1.00  0.00    -0.266 OA
HETATM   29  N   UNL     1       8.824  30.364  60.740  1.00  0.00    -0.321 N 
HETATM   30  C   UNL     1       8.168  31.391  61.415  1.00  0.00     0.048 A 
HETATM   31  H   UNL     1       9.579  29.802  61.103  1.00  0.00     0.169 HD
HETATM   32  C   UNL     1       8.411  31.843  62.694  1.00  0.00     0.030 A 
HETATM   33  C   UNL     1       7.600  32.881  63.173  1.00  0.00     0.002 A 
HETATM   34  C   UNL     1       6.581  33.440  62.375  1.00  0.00     0.001 A 
HETATM   35  C   UNL     1       6.349  32.970  61.079  1.00  0.00     0.016 A 
ENDBRANCH  21  24
ENDBRANCH  19  20
ENDBRANCH   1  19
TORSDOF 6
ENDMDL
