MODEL 1
REMARK VINA RESULT:     -10.8      0.000      0.000
REMARK  9 active torsions:
REMARK  status: ('A' for Active; 'I' for Inactive)
REMARK    1  A    between atoms: N_2  and  C_4 
REMARK    2  A    between atoms: C_4  and  C_5 
REMARK    3  A    between atoms: C_6  and  O_7 
REMARK    4  A    between atoms: O_7  and  C_8 
REMARK    5  A    between atoms: C_8  and  C_9 
REMARK       I    between atoms: C_9  and  N_10 
REMARK    6  A    between atoms: N_10  and  C_11 
REMARK    7  A    between atoms: C_11  and  C_12 
REMARK    8  A    between atoms: C_12  and  C_13 
REMARK    9  A    between atoms: C_27  and  C_28 
ROOT
HETATM    1  C   UNL     1       6.691  32.162  59.890  1.00  0.00     0.002 A 
HETATM    2  C   UNL     1       8.019  31.738  59.731  1.00  0.00     0.077 A 
HETATM    3  C   UNL     1       8.875  31.743  60.835  1.00  0.00     0.038 A 
HETATM    4  C   UNL     1       8.416  32.149  62.095  1.00  0.00     0.017 A 
HETATM    5  C   UNL     1       7.091  32.558  62.283  1.00  0.00     0.000 A 
HETATM    6  C   UNL     1       6.242  32.562  61.164  1.00  0.00     0.026 A 
ENDROOT
BRANCH   2   7
HETATM    7  O   UNL     1       8.388  31.378  58.458  1.00  0.00    -0.342 OA
BRANCH   7   8
HETATM    8  C   UNL     1       9.610  30.641  58.357  1.00  0.00     0.278 C 
BRANCH   8   9
HETATM    9  C   UNL     1       9.499  29.409  57.459  1.00  0.00     0.241 C 
HETATM   10  N   UNL     1       8.366  28.646  57.637  1.00  0.00    -0.359 N 
HETATM   11  H   UNL     1       7.873  28.728  58.515  1.00  0.00     0.162 HD
HETATM   12  O   UNL     1      10.352  29.151  56.614  1.00  0.00    -0.271 OA
BRANCH  10  13
HETATM   13  C   UNL     1       8.152  27.434  56.862  1.00  0.00     0.130 C 
BRANCH  13  14
HETATM   14  C   UNL     1       8.089  26.181  57.736  1.00  0.00     0.098 C 
BRANCH  14  15
HETATM   15  C   UNL     1       8.062  24.918  56.933  1.00  0.00     0.106 A 
HETATM   16  N   UNL     1       7.932  24.775  55.625  1.00  0.00    -0.233 NA
HETATM   17  C   UNL     1       8.075  23.423  55.391  1.00  0.00     0.087 A 
HETATM   18  C   UNL     1       8.246  22.727  56.581  1.00  0.00     0.062 A 
HETATM   19  C   UNL     1       8.079  22.715  54.181  1.00  0.00     0.057 A 
HETATM   20  N   UNL     1       8.212  23.695  57.547  1.00  0.00    -0.343 N 
HETATM   21  C   UNL     1       8.421  21.342  56.649  1.00  0.00     0.034 A 
HETATM   22  H   UNL     1       8.324  23.542  58.541  1.00  0.00     0.167 HD
HETATM   23  C   UNL     1       8.423  20.651  55.433  1.00  0.00     0.026 A 
HETATM   24  C   UNL     1       8.255  21.328  54.225  1.00  0.00     0.036 A 
HETATM   25 CL   UNL     1       8.268  20.445  52.746  1.00  0.00    -0.084 Cl
ENDBRANCH  14  15
ENDBRANCH  13  14
ENDBRANCH  10  13
ENDBRANCH   8   9
ENDBRANCH   7   8
ENDBRANCH   2   7
BRANCH   1  26
HETATM   26  C   UNL     1       5.752  32.234  58.716  1.00  0.00     0.275 C 
BRANCH  26  27
HETATM   27  N   UNL     1       5.041  30.923  58.459  1.00  0.00    -0.075 N 
HETATM   28  C   UNL     1       5.343  30.341  57.110  1.00  0.00     0.269 C 
HETATM   29  H   UNL     1       5.412  30.270  59.164  1.00  0.00     0.279 HD
HETATM   30  C   UNL     1       3.569  31.035  58.706  1.00  0.00     0.269 C 
ENDBRANCH  26  27
ENDBRANCH   1  26
BRANCH   5  31
HETATM   31  C   UNL     1       6.555  33.016  63.579  1.00  0.00     0.109 A 
HETATM   32  S   UNL     1       4.868  33.214  63.846  1.00  0.00    -0.068 SA
HETATM   33  C   UNL     1       5.171  33.755  65.448  1.00  0.00     0.035 A 
HETATM   34  C   UNL     1       6.547  33.751  65.675  1.00  0.00     0.075 A 
HETATM   35  C   UNL     1       4.256  34.156  66.436  1.00  0.00     0.021 A 
HETATM   36  N   UNL     1       7.323  33.335  64.603  1.00  0.00    -0.240 NA
HETATM   37  C   UNL     1       7.028  34.159  66.935  1.00  0.00     0.033 A 
HETATM   38  C   UNL     1       6.127  34.560  67.926  1.00  0.00     0.002 A 
HETATM   39  C   UNL     1       4.758  34.559  67.678  1.00  0.00     0.002 A 
ENDBRANCH   5  31
TORSDOF 9
ENDMDL
MODEL 2
REMARK VINA RESULT:     -10.7      4.499     12.083
REMARK  9 active torsions:
REMARK  status: ('A' for Active; 'I' for Inactive)
REMARK    1  A    between atoms: N_2  and  C_4 
REMARK    2  A    between atoms: C_4  and  C_5 
REMARK    3  A    between atoms: C_6  and  O_7 
REMARK    4  A    between atoms: O_7  and  C_8 
REMARK    5  A    between atoms: C_8  and  C_9 
REMARK       I    between atoms: C_9  and  N_10 
REMARK    6  A    between atoms: N_10  and  C_11 
REMARK    7  A    between atoms: C_11  and  C_12 
REMARK    8  A    between atoms: C_12  and  C_13 
REMARK    9  A    between atoms: C_27  and  C_28 
ROOT
HETATM    1  C   UNL     1       5.782  27.471  56.203  1.00  0.00     0.002 A 
HETATM    2  C   UNL     1       6.522  28.087  57.224  1.00  0.00     0.077 A 
HETATM    3  C   UNL     1       7.623  27.421  57.767  1.00  0.00     0.038 A 
HETATM    4  C   UNL     1       8.003  26.159  57.291  1.00  0.00     0.017 A 
HETATM    5  C   UNL     1       7.293  25.533  56.260  1.00  0.00     0.000 A 
HETATM    6  C   UNL     1       6.179  26.205  55.730  1.00  0.00     0.026 A 
ENDROOT
BRANCH   2   7
HETATM    7  O   UNL     1       6.066  29.313  57.643  1.00  0.00    -0.342 OA
BRANCH   7   8
HETATM    8  C   UNL     1       7.076  30.232  58.070  1.00  0.00     0.278 C 
BRANCH   8   9
HETATM    9  C   UNL     1       6.511  31.464  58.777  1.00  0.00     0.241 C 
HETATM   10  N   UNL     1       5.140  31.496  58.908  1.00  0.00    -0.359 N 
HETATM   11  H   UNL     1       4.592  30.928  58.277  1.00  0.00     0.162 HD
HETATM   12  O   UNL     1       7.246  32.339  59.228  1.00  0.00    -0.271 OA
BRANCH  10  13
HETATM   13  C   UNL     1       4.476  32.625  59.539  1.00  0.00     0.130 C 
BRANCH  13  14
HETATM   14  C   UNL     1       3.724  32.229  60.810  1.00  0.00     0.098 C 
BRANCH  14  15
HETATM   15  C   UNL     1       4.394  32.724  62.054  1.00  0.00     0.106 A 
HETATM   16  N   UNL     1       3.838  33.134  63.182  1.00  0.00    -0.233 NA
HETATM   17  C   UNL     1       4.891  33.381  64.037  1.00  0.00     0.087 A 
HETATM   18  C   UNL     1       6.109  33.164  63.404  1.00  0.00     0.062 A 
HETATM   19  C   UNL     1       4.886  33.786  65.379  1.00  0.00     0.057 A 
HETATM   20  N   UNL     1       5.767  32.770  62.139  1.00  0.00    -0.343 N 
HETATM   21  C   UNL     1       7.347  33.332  64.029  1.00  0.00     0.034 A 
HETATM   22  H   UNL     1       6.413  32.511  61.405  1.00  0.00     0.167 HD
HETATM   23  C   UNL     1       7.323  33.735  65.368  1.00  0.00     0.026 A 
HETATM   24  C   UNL     1       6.114  33.957  66.027  1.00  0.00     0.036 A 
HETATM   25 CL   UNL     1       6.121  34.448  67.678  1.00  0.00    -0.084 Cl
ENDBRANCH  14  15
ENDBRANCH  13  14
ENDBRANCH  10  13
ENDBRANCH   8   9
ENDBRANCH   7   8
ENDBRANCH   2   7
BRANCH   1  26
HETATM   26  C   UNL     1       4.551  28.124  55.633  1.00  0.00     0.275 C 
BRANCH  26  27
HETATM   27  N   UNL     1       4.876  29.328  54.776  1.00  0.00    -0.075 N 
HETATM   28  C   UNL     1       4.087  30.549  55.150  1.00  0.00     0.269 C 
HETATM   29  H   UNL     1       5.867  29.535  54.963  1.00  0.00     0.279 HD
HETATM   30  C   UNL     1       4.766  29.014  53.317  1.00  0.00     0.269 C 
ENDBRANCH  26  27
ENDBRANCH   1  26
BRANCH   5  31
HETATM   31  C   UNL     1       7.631  24.198  55.731  1.00  0.00     0.109 A 
HETATM   32  S   UNL     1       8.321  22.975  56.724  1.00  0.00    -0.068 SA
HETATM   33  C   UNL     1       8.394  21.906  55.381  1.00  0.00     0.035 A 
HETATM   34  C   UNL     1       7.887  22.557  54.257  1.00  0.00     0.075 A 
HETATM   35  C   UNL     1       8.868  20.585  55.325  1.00  0.00     0.021 A 
HETATM   36  N   UNL     1       7.463  23.861  54.468  1.00  0.00    -0.240 NA
HETATM   37  C   UNL     1       7.849  21.863  53.031  1.00  0.00     0.033 A 
HETATM   38  C   UNL     1       8.317  20.547  52.963  1.00  0.00     0.002 A 
HETATM   39  C   UNL     1       8.821  19.918  54.097  1.00  0.00     0.002 A 
ENDBRANCH   5  31
TORSDOF 9
ENDMDL
MODEL 3
REMARK VINA RESULT:     -10.6      4.456     11.723
REMARK  9 active torsions:
REMARK  status: ('A' for Active; 'I' for Inactive)
REMARK    1  A    between atoms: N_2  and  C_4 
REMARK    2  A    between atoms: C_4  and  C_5 
REMARK    3  A    between atoms: C_6  and  O_7 
REMARK    4  A    between atoms: O_7  and  C_8 
REMARK    5  A    between atoms: C_8  and  C_9 
REMARK       I    between atoms: C_9  and  N_10 
REMARK    6  A    between atoms: N_10  and  C_11 
REMARK    7  A    between atoms: C_11  and  C_12 
REMARK    8  A    between atoms: C_12  and  C_13 
REMARK    9  A    between atoms: C_27  and  C_28 
ROOT
HETATM    1  C   UNL     1       5.713  27.435  56.469  1.00  0.00     0.002 A 
HETATM    2  C   UNL     1       6.574  28.124  57.337  1.00  0.00     0.077 A 
HETATM    3  C   UNL     1       7.787  27.537  57.705  1.00  0.00     0.038 A 
HETATM    4  C   UNL     1       8.155  26.281  57.205  1.00  0.00     0.017 A 
HETATM    5  C   UNL     1       7.322  25.582  56.324  1.00  0.00     0.000 A 
HETATM    6  C   UNL     1       6.099  26.176  55.970  1.00  0.00     0.026 A 
ENDROOT
BRANCH   2   7
HETATM    7  O   UNL     1       6.123  29.339  57.795  1.00  0.00    -0.342 OA
BRANCH   7   8
HETATM    8  C   UNL     1       6.883  30.475  57.373  1.00  0.00     0.278 C 
BRANCH   8   9
HETATM    9  C   UNL     1       7.494  31.257  58.537  1.00  0.00     0.241 C 
HETATM   10  N   UNL     1       8.666  30.743  59.046  1.00  0.00    -0.359 N 
HETATM   11  H   UNL     1       8.868  29.768  58.877  1.00  0.00     0.162 HD
HETATM   12  O   UNL     1       6.981  32.292  58.954  1.00  0.00    -0.271 OA
BRANCH  10  13
HETATM   13  C   UNL     1       9.334  31.379  60.171  1.00  0.00     0.130 C 
BRANCH  13  14
HETATM   14  C   UNL     1       9.010  30.705  61.504  1.00  0.00     0.098 C 
BRANCH  14  15
HETATM   15  C   UNL     1       8.045  31.496  62.331  1.00  0.00     0.106 A 
HETATM   16  N   UNL     1       8.298  32.298  63.351  1.00  0.00    -0.233 NA
HETATM   17  C   UNL     1       7.082  32.855  63.686  1.00  0.00     0.087 A 
HETATM   18  C   UNL     1       6.064  32.347  62.888  1.00  0.00     0.062 A 
HETATM   19  C   UNL     1       6.768  33.814  64.660  1.00  0.00     0.057 A 
HETATM   20  N   UNL     1       6.698  31.469  62.051  1.00  0.00    -0.343 N 
HETATM   21  C   UNL     1       4.726  32.734  62.999  1.00  0.00     0.034 A 
HETATM   22  H   UNL     1       6.257  30.927  61.319  1.00  0.00     0.167 HD
HETATM   23  C   UNL     1       4.431  33.692  63.975  1.00  0.00     0.026 A 
HETATM   24  C   UNL     1       5.435  34.220  64.787  1.00  0.00     0.036 A 
HETATM   25 CL   UNL     1       5.037  35.401  65.975  1.00  0.00    -0.084 Cl
ENDBRANCH  14  15
ENDBRANCH  13  14
ENDBRANCH  10  13
ENDBRANCH   8   9
ENDBRANCH   7   8
ENDBRANCH   2   7
BRANCH   1  26
HETATM   26  C   UNL     1       4.369  28.001  56.097  1.00  0.00     0.275 C 
BRANCH  26  27
HETATM   27  N   UNL     1       4.450  28.983  54.949  1.00  0.00    -0.075 N 
HETATM   28  C   UNL     1       3.764  30.286  55.236  1.00  0.00     0.269 C 
HETATM   29  H   UNL     1       5.453  29.184  54.834  1.00  0.00     0.279 HD
HETATM   30  C   UNL     1       3.981  28.372  53.665  1.00  0.00     0.269 C 
ENDBRANCH  26  27
ENDBRANCH   1  26
BRANCH   5  31
HETATM   31  C   UNL     1       7.645  24.249  55.781  1.00  0.00     0.109 A 
HETATM   32  S   UNL     1       8.370  23.025  56.748  1.00  0.00    -0.068 SA
HETATM   33  C   UNL     1       8.401  21.960  55.400  1.00  0.00     0.035 A 
HETATM   34  C   UNL     1       7.855  22.612  54.295  1.00  0.00     0.075 A 
HETATM   35  C   UNL     1       8.875  20.640  55.324  1.00  0.00     0.021 A 
HETATM   36  N   UNL     1       7.436  23.915  54.523  1.00  0.00    -0.240 NA
HETATM   37  C   UNL     1       7.778  21.921  53.069  1.00  0.00     0.033 A 
HETATM   38  C   UNL     1       8.246  20.606  52.982  1.00  0.00     0.002 A 
HETATM   39  C   UNL     1       8.789  19.975  54.097  1.00  0.00     0.002 A 
ENDBRANCH   5  31
TORSDOF 9
ENDMDL
MODEL 4
REMARK VINA RESULT:     -10.6      4.387     12.224
REMARK  9 active torsions:
REMARK  status: ('A' for Active; 'I' for Inactive)
REMARK    1  A    between atoms: N_2  and  C_4 
REMARK    2  A    between atoms: C_4  and  C_5 
REMARK    3  A    between atoms: C_6  and  O_7 
REMARK    4  A    between atoms: O_7  and  C_8 
REMARK    5  A    between atoms: C_8  and  C_9 
REMARK       I    between atoms: C_9  and  N_10 
REMARK    6  A    between atoms: N_10  and  C_11 
REMARK    7  A    between atoms: C_11  and  C_12 
REMARK    8  A    between atoms: C_12  and  C_13 
REMARK    9  A    between atoms: C_27  and  C_28 
ROOT
HETATM    1  C   UNL     1       7.769  28.171  56.804  1.00  0.00     0.002 A 
HETATM    2  C   UNL     1       6.861  28.891  56.012  1.00  0.00     0.077 A 
HETATM    3  C   UNL     1       6.194  28.239  54.972  1.00  0.00     0.038 A 
HETATM    4  C   UNL     1       6.410  26.877  54.726  1.00  0.00     0.017 A 
HETATM    5  C   UNL     1       7.296  26.132  55.514  1.00  0.00     0.000 A 
HETATM    6  C   UNL     1       7.971  26.801  56.549  1.00  0.00     0.026 A 
ENDROOT
BRANCH   2   7
HETATM    7  O   UNL     1       6.728  30.225  56.310  1.00  0.00    -0.342 OA
BRANCH   7   8
HETATM    8  C   UNL     1       5.576  30.570  57.085  1.00  0.00     0.278 C 
BRANCH   8   9
HETATM    9  C   UNL     1       5.814  31.750  58.028  1.00  0.00     0.241 C 
HETATM   10  N   UNL     1       6.169  31.416  59.316  1.00  0.00    -0.359 N 
HETATM   11  H   UNL     1       5.935  30.491  59.647  1.00  0.00     0.162 HD
HETATM   12  O   UNL     1       5.729  32.911  57.638  1.00  0.00    -0.271 OA
BRANCH  10  13
HETATM   13  C   UNL     1       6.399  32.445  60.318  1.00  0.00     0.130 C 
BRANCH  13  14
HETATM   14  C   UNL     1       7.335  31.980  61.434  1.00  0.00     0.098 C 
BRANCH  14  15
HETATM   15  C   UNL     1       6.920  32.482  62.782  1.00  0.00     0.106 A 
HETATM   16  N   UNL     1       7.685  32.839  63.800  1.00  0.00    -0.233 NA
HETATM   17  C   UNL     1       6.815  33.320  64.757  1.00  0.00     0.087 A 
HETATM   18  C   UNL     1       5.496  33.210  64.332  1.00  0.00     0.062 A 
HETATM   19  C   UNL     1       7.080  33.879  66.014  1.00  0.00     0.057 A 
HETATM   20  N   UNL     1       5.588  32.654  63.085  1.00  0.00    -0.343 N 
HETATM   21  C   UNL     1       4.401  33.623  65.094  1.00  0.00     0.034 A 
HETATM   22  H   UNL     1       4.811  32.447  62.471  1.00  0.00     0.167 HD
HETATM   23  C   UNL     1       4.683  34.179  66.346  1.00  0.00     0.026 A 
HETATM   24  C   UNL     1       5.998  34.304  66.794  1.00  0.00     0.036 A 
HETATM   25 CL   UNL     1       6.310  34.998  68.339  1.00  0.00    -0.084 Cl
ENDBRANCH  14  15
ENDBRANCH  13  14
ENDBRANCH  10  13
ENDBRANCH   8   9
ENDBRANCH   7   8
ENDBRANCH   2   7
BRANCH   1  26
HETATM   26  C   UNL     1       8.557  28.848  57.893  1.00  0.00     0.275 C 
BRANCH  26  27
HETATM   27  N   UNL     1       9.372  30.015  57.381  1.00  0.00    -0.075 N 
HETATM   28  C   UNL     1      10.607  29.593  56.639  1.00  0.00     0.269 C 
HETATM   29  H   UNL     1       8.761  30.499  56.708  1.00  0.00     0.279 HD
HETATM   30  C   UNL     1       9.679  30.996  58.469  1.00  0.00     0.269 C 
ENDBRANCH  26  27
ENDBRANCH   1  26
BRANCH   5  31
HETATM   31  C   UNL     1       7.580  24.702  55.291  1.00  0.00     0.109 A 
HETATM   32  S   UNL     1       8.102  23.671  56.565  1.00  0.00    -0.068 SA
HETATM   33  C   UNL     1       8.207  22.350  55.470  1.00  0.00     0.035 A 
HETATM   34  C   UNL     1       7.838  22.786  54.198  1.00  0.00     0.075 A 
HETATM   35  C   UNL     1       8.591  21.022  55.719  1.00  0.00     0.021 A 
HETATM   36  N   UNL     1       7.490  24.126  54.109  1.00  0.00    -0.240 NA
HETATM   37  C   UNL     1       7.849  21.861  53.135  1.00  0.00     0.033 A 
HETATM   38  C   UNL     1       8.228  20.536  53.370  1.00  0.00     0.002 A 
HETATM   39  C   UNL     1       8.595  20.124  54.647  1.00  0.00     0.002 A 
ENDBRANCH   5  31
TORSDOF 9
ENDMDL
MODEL 5
REMARK VINA RESULT:     -10.4      4.637     12.292
REMARK  9 active torsions:
REMARK  status: ('A' for Active; 'I' for Inactive)
REMARK    1  A    between atoms: N_2  and  C_4 
REMARK    2  A    between atoms: C_4  and  C_5 
REMARK    3  A    between atoms: C_6  and  O_7 
REMARK    4  A    between atoms: O_7  and  C_8 
REMARK    5  A    between atoms: C_8  and  C_9 
REMARK       I    between atoms: C_9  and  N_10 
REMARK    6  A    between atoms: N_10  and  C_11 
REMARK    7  A    between atoms: C_11  and  C_12 
REMARK    8  A    between atoms: C_12  and  C_13 
REMARK    9  A    between atoms: C_27  and  C_28 
ROOT
HETATM    1  C   UNL     1       7.006  27.833  57.165  1.00  0.00     0.002 A 
HETATM    2  C   UNL     1       5.822  28.441  56.721  1.00  0.00     0.077 A 
HETATM    3  C   UNL     1       5.026  27.782  55.781  1.00  0.00     0.038 A 
HETATM    4  C   UNL     1       5.390  26.520  55.294  1.00  0.00     0.017 A 
HETATM    5  C   UNL     1       6.556  25.884  55.735  1.00  0.00     0.000 A 
HETATM    6  C   UNL     1       7.356  26.561  56.671  1.00  0.00     0.026 A 
ENDROOT
BRANCH   2   7
HETATM    7  O   UNL     1       5.555  29.687  57.235  1.00  0.00    -0.342 OA
BRANCH   7   8
HETATM    8  C   UNL     1       4.182  30.089  57.191  1.00  0.00     0.278 C 
BRANCH   8   9
HETATM    9  C   UNL     1       3.901  31.361  57.989  1.00  0.00     0.241 C 
HETATM   10  N   UNL     1       4.620  31.501  59.156  1.00  0.00    -0.359 N 
HETATM   11  H   UNL     1       5.008  30.667  59.575  1.00  0.00     0.162 HD
HETATM   12  O   UNL     1       3.112  32.211  57.586  1.00  0.00    -0.271 OA
BRANCH  10  13
HETATM   13  C   UNL     1       4.427  32.654  60.020  1.00  0.00     0.130 C 
BRANCH  13  14
HETATM   14  C   UNL     1       3.613  32.322  61.271  1.00  0.00     0.098 C 
BRANCH  14  15
HETATM   15  C   UNL     1       4.244  32.843  62.525  1.00  0.00     0.106 A 
HETATM   16  N   UNL     1       3.654  33.330  63.603  1.00  0.00    -0.233 NA
HETATM   17  C   UNL     1       4.675  33.567  64.500  1.00  0.00     0.087 A 
HETATM   18  C   UNL     1       5.910  33.265  63.940  1.00  0.00     0.062 A 
HETATM   19  C   UNL     1       4.623  34.034  65.821  1.00  0.00     0.057 A 
HETATM   20  N   UNL     1       5.611  32.828  62.678  1.00  0.00    -0.343 N 
HETATM   21  C   UNL     1       7.123  33.403  64.620  1.00  0.00     0.034 A 
HETATM   22  H   UNL     1       6.280  32.506  61.991  1.00  0.00     0.167 HD
HETATM   23  C   UNL     1       7.053  33.869  65.937  1.00  0.00     0.026 A 
HETATM   24  C   UNL     1       5.824  34.177  66.523  1.00  0.00     0.036 A 
HETATM   25 CL   UNL     1       5.774  34.744  68.148  1.00  0.00    -0.084 Cl
ENDBRANCH  14  15
ENDBRANCH  13  14
ENDBRANCH  10  13
ENDBRANCH   8   9
ENDBRANCH   7   8
ENDBRANCH   2   7
BRANCH   1  26
HETATM   26  C   UNL     1       7.926  28.535  58.129  1.00  0.00     0.275 C 
BRANCH  26  27
HETATM   27  N   UNL     1       8.629  29.719  57.503  1.00  0.00    -0.075 N 
HETATM   28  C   UNL     1       9.913  29.351  56.820  1.00  0.00     0.269 C 
HETATM   29  H   UNL     1       7.985  30.065  56.779  1.00  0.00     0.279 HD
HETATM   30  C   UNL     1       8.815  30.833  58.485  1.00  0.00     0.269 C 
ENDBRANCH  26  27
ENDBRANCH   1  26
BRANCH   5  31
HETATM   31  C   UNL     1       7.003  24.567  55.245  1.00  0.00     0.109 A 
HETATM   32  S   UNL     1       7.060  24.193  53.567  1.00  0.00    -0.068 SA
HETATM   33  C   UNL     1       7.603  22.603  53.925  1.00  0.00     0.035 A 
HETATM   34  C   UNL     1       7.703  22.460  55.309  1.00  0.00     0.075 A 
HETATM   35  C   UNL     1       7.917  21.555  53.045  1.00  0.00     0.021 A 
HETATM   36  N   UNL     1       7.353  23.581  56.048  1.00  0.00    -0.240 NA
HETATM   37  C   UNL     1       8.135  21.226  55.834  1.00  0.00     0.033 A 
HETATM   38  C   UNL     1       8.452  20.175  54.967  1.00  0.00     0.002 A 
HETATM   39  C   UNL     1       8.342  20.339  53.590  1.00  0.00     0.002 A 
ENDBRANCH   5  31
TORSDOF 9
ENDMDL
MODEL 6
REMARK VINA RESULT:      -9.8      1.902      3.145
REMARK  9 active torsions:
REMARK  status: ('A' for Active; 'I' for Inactive)
REMARK    1  A    between atoms: N_2  and  C_4 
REMARK    2  A    between atoms: C_4  and  C_5 
REMARK    3  A    between atoms: C_6  and  O_7 
REMARK    4  A    between atoms: O_7  and  C_8 
REMARK    5  A    between atoms: C_8  and  C_9 
REMARK       I    between atoms: C_9  and  N_10 
REMARK    6  A    between atoms: N_10  and  C_11 
REMARK    7  A    between atoms: C_11  and  C_12 
REMARK    8  A    between atoms: C_12  and  C_13 
REMARK    9  A    between atoms: C_27  and  C_28 
ROOT
HETATM    1  C   UNL     1       7.200  31.477  59.981  1.00  0.00     0.002 A 
HETATM    2  C   UNL     1       6.320  31.997  59.019  1.00  0.00     0.077 A 
HETATM    3  C   UNL     1       5.341  32.913  59.413  1.00  0.00     0.038 A 
HETATM    4  C   UNL     1       5.243  33.326  60.748  1.00  0.00     0.017 A 
HETATM    5  C   UNL     1       6.121  32.836  61.722  1.00  0.00     0.000 A 
HETATM    6  C   UNL     1       7.094  31.906  61.318  1.00  0.00     0.026 A 
ENDROOT
BRANCH   2   7
HETATM    7  O   UNL     1       6.475  31.521  57.740  1.00  0.00    -0.342 OA
BRANCH   7   8
HETATM    8  C   UNL     1       5.288  31.007  57.128  1.00  0.00     0.278 C 
BRANCH   8   9
HETATM    9  C   UNL     1       5.453  29.583  56.595  1.00  0.00     0.241 C 
HETATM   10  N   UNL     1       5.161  29.412  55.260  1.00  0.00    -0.359 N 
HETATM   11  H   UNL     1       4.568  30.097  54.814  1.00  0.00     0.162 HD
HETATM   12  O   UNL     1       5.856  28.672  57.313  1.00  0.00    -0.271 OA
BRANCH  10  13
HETATM   13  C   UNL     1       5.254  28.102  54.637  1.00  0.00     0.130 C 
BRANCH  13  14
HETATM   14  C   UNL     1       6.656  27.798  54.110  1.00  0.00     0.098 C 
BRANCH  14  15
HETATM   15  C   UNL     1       7.028  26.355  54.255  1.00  0.00     0.106 A 
HETATM   16  N   UNL     1       6.912  25.577  55.317  1.00  0.00    -0.233 NA
HETATM   17  C   UNL     1       7.296  24.322  54.892  1.00  0.00     0.087 A 
HETATM   18  C   UNL     1       7.698  24.348  53.562  1.00  0.00     0.062 A 
HETATM   19  C   UNL     1       7.319  23.104  55.586  1.00  0.00     0.057 A 
HETATM   20  N   UNL     1       7.539  25.654  53.187  1.00  0.00    -0.343 N 
HETATM   21  C   UNL     1       8.135  23.219  52.864  1.00  0.00     0.034 A 
HETATM   22  H   UNL     1       7.724  26.031  52.266  1.00  0.00     0.167 HD
HETATM   23  C   UNL     1       8.151  22.013  53.571  1.00  0.00     0.026 A 
HETATM   24  C   UNL     1       7.750  21.960  54.906  1.00  0.00     0.036 A 
HETATM   25 CL   UNL     1       7.778  20.456  55.745  1.00  0.00    -0.084 Cl
ENDBRANCH  14  15
ENDBRANCH  13  14
ENDBRANCH  10  13
ENDBRANCH   8   9
ENDBRANCH   7   8
ENDBRANCH   2   7
BRANCH   1  26
HETATM   26  C   UNL     1       8.228  30.440  59.613  1.00  0.00     0.275 C 
BRANCH  26  27
HETATM   27  N   UNL     1       8.966  30.781  58.337  1.00  0.00    -0.075 N 
HETATM   28  C   UNL     1       9.362  29.571  57.542  1.00  0.00     0.269 C 
HETATM   29  H   UNL     1       8.293  31.313  57.768  1.00  0.00     0.279 HD
HETATM   30  C   UNL     1      10.128  31.687  58.595  1.00  0.00     0.269 C 
ENDBRANCH  26  27
ENDBRANCH   1  26
BRANCH   5  31
HETATM   31  C   UNL     1       6.055  33.217  63.146  1.00  0.00     0.109 A 
HETATM   32  S   UNL     1       7.466  33.334  64.121  1.00  0.00    -0.068 SA
HETATM   33  C   UNL     1       6.505  33.749  65.485  1.00  0.00     0.035 A 
HETATM   34  C   UNL     1       5.164  33.768  65.104  1.00  0.00     0.075 A 
HETATM   35  C   UNL     1       6.909  34.036  66.799  1.00  0.00     0.021 A 
HETATM   36  N   UNL     1       4.921  33.457  63.774  1.00  0.00    -0.240 NA
HETATM   37  C   UNL     1       4.189  34.087  66.070  1.00  0.00     0.033 A 
HETATM   38  C   UNL     1       4.580  34.376  67.382  1.00  0.00     0.002 A 
HETATM   39  C   UNL     1       5.924  34.349  67.740  1.00  0.00     0.002 A 
ENDBRANCH   5  31
TORSDOF 9
ENDMDL
MODEL 7
REMARK VINA RESULT:      -9.6      1.379      2.466
REMARK  9 active torsions:
REMARK  status: ('A' for Active; 'I' for Inactive)
REMARK    1  A    between atoms: N_2  and  C_4 
REMARK    2  A    between atoms: C_4  and  C_5 
REMARK    3  A    between atoms: C_6  and  O_7 
REMARK    4  A    between atoms: O_7  and  C_8 
REMARK    5  A    between atoms: C_8  and  C_9 
REMARK       I    between atoms: C_9  and  N_10 
REMARK    6  A    between atoms: N_10  and  C_11 
REMARK    7  A    between atoms: C_11  and  C_12 
REMARK    8  A    between atoms: C_12  and  C_13 
REMARK    9  A    between atoms: C_27  and  C_28 
ROOT
HETATM    1  C   UNL     1       6.975  31.408  59.905  1.00  0.00     0.002 A 
HETATM    2  C   UNL     1       6.035  31.568  58.876  1.00  0.00     0.077 A 
HETATM    3  C   UNL     1       4.853  32.267  59.132  1.00  0.00     0.038 A 
HETATM    4  C   UNL     1       4.609  32.822  60.395  1.00  0.00     0.017 A 
HETATM    5  C   UNL     1       5.540  32.693  61.432  1.00  0.00     0.000 A 
HETATM    6  C   UNL     1       6.719  31.976  61.168  1.00  0.00     0.026 A 
ENDROOT
BRANCH   2   7
HETATM    7  O   UNL     1       6.346  30.973  57.677  1.00  0.00    -0.342 OA
BRANCH   7   8
HETATM    8  C   UNL     1       5.419  29.982  57.223  1.00  0.00     0.278 C 
BRANCH   8   9
HETATM    9  C   UNL     1       6.098  28.713  56.708  1.00  0.00     0.241 C 
HETATM   10  N   UNL     1       7.243  28.340  57.376  1.00  0.00    -0.359 N 
HETATM   11  H   UNL     1       7.736  29.048  57.902  1.00  0.00     0.162 HD
HETATM   12  O   UNL     1       5.621  28.060  55.783  1.00  0.00    -0.271 OA
BRANCH  10  13
HETATM   13  C   UNL     1       7.998  27.166  56.968  1.00  0.00     0.130 C 
BRANCH  13  14
HETATM   14  C   UNL     1       7.601  25.912  57.747  1.00  0.00     0.098 C 
BRANCH  14  15
HETATM   15  C   UNL     1       7.710  24.664  56.926  1.00  0.00     0.106 A 
HETATM   16  N   UNL     1       7.495  24.508  55.631  1.00  0.00    -0.233 NA
HETATM   17  C   UNL     1       7.833  23.198  55.362  1.00  0.00     0.087 A 
HETATM   18  C   UNL     1       8.213  22.533  56.522  1.00  0.00     0.062 A 
HETATM   19  C   UNL     1       7.849  22.504  54.144  1.00  0.00     0.057 A 
HETATM   20  N   UNL     1       8.105  23.479  57.505  1.00  0.00    -0.343 N 
HETATM   21  C   UNL     1       8.612  21.194  56.551  1.00  0.00     0.034 A 
HETATM   22  H   UNL     1       8.323  23.342  58.483  1.00  0.00     0.167 HD
HETATM   23  C   UNL     1       8.623  20.517  55.327  1.00  0.00     0.026 A 
HETATM   24  C   UNL     1       8.249  21.163  54.149  1.00  0.00     0.036 A 
HETATM   25 CL   UNL     1       8.279  20.301  52.658  1.00  0.00    -0.084 Cl
ENDBRANCH  14  15
ENDBRANCH  13  14
ENDBRANCH  10  13
ENDBRANCH   8   9
ENDBRANCH   7   8
ENDBRANCH   2   7
BRANCH   1  26
HETATM   26  C   UNL     1       8.232  30.607  59.692  1.00  0.00     0.275 C 
BRANCH  26  27
HETATM   27  N   UNL     1       9.268  31.356  58.883  1.00  0.00    -0.075 N 
HETATM   28  C   UNL     1       9.979  30.490  57.885  1.00  0.00     0.269 C 
HETATM   29  H   UNL     1       8.740  32.063  58.353  1.00  0.00     0.279 HD
HETATM   30  C   UNL     1      10.224  32.099  59.763  1.00  0.00     0.269 C 
ENDBRANCH  26  27
ENDBRANCH   1  26
BRANCH   5  31
HETATM   31  C   UNL     1       5.331  33.236  62.788  1.00  0.00     0.109 A 
HETATM   32  S   UNL     1       3.898  34.084  63.216  1.00  0.00    -0.068 SA
HETATM   33  C   UNL     1       4.507  34.341  64.802  1.00  0.00     0.035 A 
HETATM   34  C   UNL     1       5.771  33.760  64.901  1.00  0.00     0.075 A 
HETATM   35  C   UNL     1       3.909  35.008  65.884  1.00  0.00     0.021 A 
HETATM   36  N   UNL     1       6.231  33.142  63.747  1.00  0.00    -0.240 NA
HETATM   37  C   UNL     1       6.464  33.848  66.125  1.00  0.00     0.033 A 
HETATM   38  C   UNL     1       5.878  34.510  67.209  1.00  0.00     0.002 A 
HETATM   39  C   UNL     1       4.617  35.082  67.087  1.00  0.00     0.002 A 
ENDBRANCH   5  31
TORSDOF 9
ENDMDL
MODEL 8
REMARK VINA RESULT:      -9.6      1.604      2.206
REMARK  9 active torsions:
REMARK  status: ('A' for Active; 'I' for Inactive)
REMARK    1  A    between atoms: N_2  and  C_4 
REMARK    2  A    between atoms: C_4  and  C_5 
REMARK    3  A    between atoms: C_6  and  O_7 
REMARK    4  A    between atoms: O_7  and  C_8 
REMARK    5  A    between atoms: C_8  and  C_9 
REMARK       I    between atoms: C_9  and  N_10 
REMARK    6  A    between atoms: N_10  and  C_11 
REMARK    7  A    between atoms: C_11  and  C_12 
REMARK    8  A    between atoms: C_12  and  C_13 
REMARK    9  A    between atoms: C_27  and  C_28 
ROOT
HETATM    1  C   UNL     1       5.908  32.477  60.244  1.00  0.00     0.002 A 
HETATM    2  C   UNL     1       7.221  32.142  59.878  1.00  0.00     0.077 A 
HETATM    3  C   UNL     1       8.232  32.188  60.841  1.00  0.00     0.038 A 
HETATM    4  C   UNL     1       7.944  32.547  62.165  1.00  0.00     0.017 A 
HETATM    5  C   UNL     1       6.639  32.866  62.559  1.00  0.00     0.000 A 
HETATM    6  C   UNL     1       5.632  32.830  61.580  1.00  0.00     0.026 A 
ENDROOT
BRANCH   2   7
HETATM    7  O   UNL     1       7.415  31.824  58.556  1.00  0.00    -0.342 OA
BRANCH   7   8
HETATM    8  C   UNL     1       7.767  30.461  58.297  1.00  0.00     0.278 C 
BRANCH   8   9
HETATM    9  C   UNL     1       6.752  29.734  57.414  1.00  0.00     0.241 C 
HETATM   10  N   UNL     1       7.285  29.007  56.373  1.00  0.00    -0.359 N 
HETATM   11  H   UNL     1       8.214  29.247  56.055  1.00  0.00     0.162 HD
HETATM   12  O   UNL     1       5.548  29.776  57.652  1.00  0.00    -0.271 OA
BRANCH  10  13
HETATM   13  C   UNL     1       6.426  28.290  55.445  1.00  0.00     0.130 C 
BRANCH  13  14
HETATM   14  C   UNL     1       5.813  27.033  56.062  1.00  0.00     0.098 C 
BRANCH  14  15
HETATM   15  C   UNL     1       6.423  25.773  55.531  1.00  0.00     0.106 A 
HETATM   16  N   UNL     1       6.671  24.643  56.173  1.00  0.00    -0.233 NA
HETATM   17  C   UNL     1       7.136  23.773  55.210  1.00  0.00     0.087 A 
HETATM   18  C   UNL     1       7.219  24.398  53.971  1.00  0.00     0.062 A 
HETATM   19  C   UNL     1       7.501  22.423  55.316  1.00  0.00     0.057 A 
HETATM   20  N   UNL     1       6.782  25.673  54.207  1.00  0.00    -0.343 N 
HETATM   21  C   UNL     1       7.655  23.757  52.808  1.00  0.00     0.034 A 
HETATM   22  H   UNL     1       6.695  26.405  53.514  1.00  0.00     0.167 HD
HETATM   23  C   UNL     1       8.014  22.411  52.933  1.00  0.00     0.026 A 
HETATM   24  C   UNL     1       7.937  21.760  54.164  1.00  0.00     0.036 A 
HETATM   25 CL   UNL     1       8.383  20.101  54.279  1.00  0.00    -0.084 Cl
ENDBRANCH  14  15
ENDBRANCH  13  14
ENDBRANCH  10  13
ENDBRANCH   8   9
ENDBRANCH   7   8
ENDBRANCH   2   7
BRANCH   1  26
HETATM   26  C   UNL     1       4.799  32.502  59.226  1.00  0.00     0.275 C 
BRANCH  26  27
HETATM   27  N   UNL     1       4.867  33.716  58.325  1.00  0.00    -0.075 N 
HETATM   28  C   UNL     1       3.819  34.744  58.640  1.00  0.00     0.269 C 
HETATM   29  H   UNL     1       5.783  34.145  58.515  1.00  0.00     0.279 HD
HETATM   30  C   UNL     1       4.859  33.332  56.878  1.00  0.00     0.269 C 
ENDBRANCH  26  27
ENDBRANCH   1  26
BRANCH   5  31
HETATM   31  C   UNL     1       6.278  33.271  63.931  1.00  0.00     0.109 A 
HETATM   32  S   UNL     1       4.641  33.475  64.416  1.00  0.00    -0.068 SA
HETATM   33  C   UNL     1       5.151  33.941  65.989  1.00  0.00     0.035 A 
HETATM   34  C   UNL     1       6.545  33.912  66.040  1.00  0.00     0.075 A 
HETATM   35  C   UNL     1       4.374  34.307  67.101  1.00  0.00     0.021 A 
HETATM   36  N   UNL     1       7.173  33.537  64.862  1.00  0.00    -0.240 NA
HETATM   37  C   UNL     1       7.186  34.259  67.246  1.00  0.00     0.033 A 
HETATM   38  C   UNL     1       6.423  34.625  68.359  1.00  0.00     0.002 A 
HETATM   39  C   UNL     1       5.034  34.649  68.285  1.00  0.00     0.002 A 
ENDBRANCH   5  31
TORSDOF 9
ENDMDL
MODEL 9
REMARK VINA RESULT:      -9.5      3.537      5.091
REMARK  9 active torsions:
REMARK  status: ('A' for Active; 'I' for Inactive)
REMARK    1  A    between atoms: N_2  and  C_4 
REMARK    2  A    between atoms: C_4  and  C_5 
REMARK    3  A    between atoms: C_6  and  O_7 
REMARK    4  A    between atoms: O_7  and  C_8 
REMARK    5  A    between atoms: C_8  and  C_9 
REMARK       I    between atoms: C_9  and  N_10 
REMARK    6  A    between atoms: N_10  and  C_11 
REMARK    7  A    between atoms: C_11  and  C_12 
REMARK    8  A    between atoms: C_12  and  C_13 
REMARK    9  A    between atoms: C_27  and  C_28 
ROOT
HETATM    1  C   UNL     1       6.207  30.443  57.004  1.00  0.00     0.002 A 
HETATM    2  C   UNL     1       5.406  31.158  56.100  1.00  0.00     0.077 A 
HETATM    3  C   UNL     1       4.797  32.345  56.517  1.00  0.00     0.038 A 
HETATM    4  C   UNL     1       4.994  32.832  57.816  1.00  0.00     0.017 A 
HETATM    5  C   UNL     1       5.804  32.147  58.729  1.00  0.00     0.000 A 
HETATM    6  C   UNL     1       6.400  30.948  58.304  1.00  0.00     0.026 A 
ENDROOT
BRANCH   2   7
HETATM    7  O   UNL     1       5.251  30.597  54.856  1.00  0.00    -0.342 OA
BRANCH   7   8
HETATM    8  C   UNL     1       3.899  30.406  54.431  1.00  0.00     0.278 C 
BRANCH   8   9
HETATM    9  C   UNL     1       3.768  30.163  52.928  1.00  0.00     0.241 C 
HETATM   10  N   UNL     1       4.831  29.516  52.337  1.00  0.00    -0.359 N 
HETATM   11  H   UNL     1       5.722  29.541  52.811  1.00  0.00     0.162 HD
HETATM   12  O   UNL     1       2.760  30.494  52.309  1.00  0.00    -0.271 OA
BRANCH  10  13
HETATM   13  C   UNL     1       4.841  29.247  50.908  1.00  0.00     0.130 C 
BRANCH  13  14
HETATM   14  C   UNL     1       4.535  27.786  50.582  1.00  0.00     0.098 C 
BRANCH  14  15
HETATM   15  C   UNL     1       5.268  26.830  51.471  1.00  0.00     0.106 A 
HETATM   16  N   UNL     1       4.966  26.452  52.702  1.00  0.00    -0.233 NA
HETATM   17  C   UNL     1       5.897  25.487  53.025  1.00  0.00     0.087 A 
HETATM   18  C   UNL     1       6.810  25.310  51.992  1.00  0.00     0.062 A 
HETATM   19  C   UNL     1       6.022  24.708  54.183  1.00  0.00     0.057 A 
HETATM   20  N   UNL     1       6.402  26.190  51.026  1.00  0.00    -0.343 N 
HETATM   21  C   UNL     1       7.864  24.394  52.038  1.00  0.00     0.034 A 
HETATM   22  H   UNL     1       6.835  26.315  50.120  1.00  0.00     0.167 HD
HETATM   23  C   UNL     1       7.973  23.625  53.202  1.00  0.00     0.026 A 
HETATM   24  C   UNL     1       7.068  23.781  54.251  1.00  0.00     0.036 A 
HETATM   25 CL   UNL     1       7.230  22.814  55.667  1.00  0.00    -0.084 Cl
ENDBRANCH  14  15
ENDBRANCH  13  14
ENDBRANCH  10  13
ENDBRANCH   8   9
ENDBRANCH   7   8
ENDBRANCH   2   7
BRANCH   1  26
HETATM   26  C   UNL     1       6.830  29.128  56.617  1.00  0.00     0.275 C 
BRANCH  26  27
HETATM   27  N   UNL     1       7.887  29.278  55.546  1.00  0.00    -0.075 N 
HETATM   28  C   UNL     1       7.810  28.218  54.487  1.00  0.00     0.269 C 
HETATM   29  H   UNL     1       7.687  30.180  55.091  1.00  0.00     0.279 HD
HETATM   30  C   UNL     1       9.259  29.386  56.134  1.00  0.00     0.269 C 
ENDBRANCH  26  27
ENDBRANCH   1  26
BRANCH   5  31
HETATM   31  C   UNL     1       6.031  32.598  60.115  1.00  0.00     0.109 A 
HETATM   32  S   UNL     1       5.036  33.786  60.859  1.00  0.00    -0.068 SA
HETATM   33  C   UNL     1       5.982  33.702  62.292  1.00  0.00     0.035 A 
HETATM   34  C   UNL     1       7.002  32.769  62.106  1.00  0.00     0.075 A 
HETATM   35  C   UNL     1       5.833  34.411  63.495  1.00  0.00     0.021 A 
HETATM   36  N   UNL     1       7.023  32.154  60.863  1.00  0.00    -0.240 NA
HETATM   37  C   UNL     1       7.906  32.533  63.161  1.00  0.00     0.033 A 
HETATM   38  C   UNL     1       7.767  33.233  64.364  1.00  0.00     0.002 A 
HETATM   39  C   UNL     1       6.743  34.161  64.526  1.00  0.00     0.002 A 
ENDBRANCH   5  31
TORSDOF 9
ENDMDL
MODEL 10
REMARK VINA RESULT:      -9.5      2.635      4.165
REMARK  9 active torsions:
REMARK  status: ('A' for Active; 'I' for Inactive)
REMARK    1  A    between atoms: N_2  and  C_4 
REMARK    2  A    between atoms: C_4  and  C_5 
REMARK    3  A    between atoms: C_6  and  O_7 
REMARK    4  A    between atoms: O_7  and  C_8 
REMARK    5  A    between atoms: C_8  and  C_9 
REMARK       I    between atoms: C_9  and  N_10 
REMARK    6  A    between atoms: N_10  and  C_11 
REMARK    7  A    between atoms: C_11  and  C_12 
REMARK    8  A    between atoms: C_12  and  C_13 
REMARK    9  A    between atoms: C_27  and  C_28 
ROOT
HETATM    1  C   UNL     1       7.166  30.256  57.733  1.00  0.00     0.002 A 
HETATM    2  C   UNL     1       6.136  30.677  56.878  1.00  0.00     0.077 A 
HETATM    3  C   UNL     1       5.237  31.651  57.319  1.00  0.00     0.038 A 
HETATM    4  C   UNL     1       5.365  32.219  58.594  1.00  0.00     0.017 A 
HETATM    5  C   UNL     1       6.395  31.829  59.457  1.00  0.00     0.000 A 
HETATM    6  C   UNL     1       7.286  30.840  59.009  1.00  0.00     0.026 A 
ENDROOT
BRANCH   2   7
HETATM    7  O   UNL     1       6.073  30.052  55.657  1.00  0.00    -0.342 OA
BRANCH   7   8
HETATM    8  C   UNL     1       4.814  29.452  55.337  1.00  0.00     0.278 C 
BRANCH   8   9
HETATM    9  C   UNL     1       4.814  28.733  53.988  1.00  0.00     0.241 C 
HETATM   10  N   UNL     1       4.618  27.371  54.042  1.00  0.00    -0.359 N 
HETATM   11  H   UNL     1       4.815  26.899  54.912  1.00  0.00     0.162 HD
HETATM   12  O   UNL     1       4.944  29.348  52.933  1.00  0.00    -0.271 OA
BRANCH  10  13
HETATM   13  C   UNL     1       4.621  26.567  52.830  1.00  0.00     0.130 C 
BRANCH  13  14
HETATM   14  C   UNL     1       6.034  26.240  52.346  1.00  0.00     0.098 C 
BRANCH  14  15
HETATM   15  C   UNL     1       6.630  25.064  53.056  1.00  0.00     0.106 A 
HETATM   16  N   UNL     1       6.724  24.848  54.357  1.00  0.00    -0.233 NA
HETATM   17  C   UNL     1       7.256  23.581  54.477  1.00  0.00     0.087 A 
HETATM   18  C   UNL     1       7.534  23.037  53.229  1.00  0.00     0.062 A 
HETATM   19  C   UNL     1       7.521  22.821  55.625  1.00  0.00     0.057 A 
HETATM   20  N   UNL     1       7.148  24.007  52.344  1.00  0.00    -0.343 N 
HETATM   21  C   UNL     1       8.075  21.762  53.044  1.00  0.00     0.034 A 
HETATM   22  H   UNL     1       7.195  23.938  51.335  1.00  0.00     0.167 HD
HETATM   23  C   UNL     1       8.334  21.017  54.199  1.00  0.00     0.026 A 
HETATM   24  C   UNL     1       8.060  21.540  55.463  1.00  0.00     0.036 A 
HETATM   25 CL   UNL     1       8.387  20.594  56.865  1.00  0.00    -0.084 Cl
ENDBRANCH  14  15
ENDBRANCH  13  14
ENDBRANCH  10  13
ENDBRANCH   8   9
ENDBRANCH   7   8
ENDBRANCH   2   7
BRANCH   1  26
HETATM   26  C   UNL     1       8.118  29.164  57.323  1.00  0.00     0.275 C 
BRANCH  26  27
HETATM   27  N   UNL     1       9.169  29.646  56.347  1.00  0.00    -0.075 N 
HETATM   28  C   UNL     1       9.132  28.921  55.034  1.00  0.00     0.269 C 
HETATM   29  H   UNL     1       8.935  30.630  56.160  1.00  0.00     0.279 HD
HETATM   30  C   UNL     1      10.536  29.634  56.956  1.00  0.00     0.269 C 
ENDBRANCH  26  27
ENDBRANCH   1  26
BRANCH   5  31
HETATM   31  C   UNL     1       6.570  32.375  60.817  1.00  0.00     0.109 A 
HETATM   32  S   UNL     1       7.652  31.665  61.949  1.00  0.00    -0.068 SA
HETATM   33  C   UNL     1       7.200  32.827  63.131  1.00  0.00     0.035 A 
HETATM   34  C   UNL     1       6.246  33.683  62.582  1.00  0.00     0.075 A 
HETATM   35  C   UNL     1       7.656  32.971  64.452  1.00  0.00     0.021 A 
HETATM   36  N   UNL     1       5.891  33.411  61.269  1.00  0.00    -0.240 NA
HETATM   37  C   UNL     1       5.729  34.723  63.380  1.00  0.00     0.033 A 
HETATM   38  C   UNL     1       6.176  34.877  64.697  1.00  0.00     0.002 A 
HETATM   39  C   UNL     1       7.127  34.010  65.224  1.00  0.00     0.002 A 
ENDBRANCH   5  31
TORSDOF 9
ENDMDL
