MODEL 1
REMARK VINA RESULT:      -8.5      0.000      0.000
REMARK  6 active torsions:
REMARK  status: ('A' for Active; 'I' for Inactive)
REMARK    1  A    between atoms: C_2  and  N_3 
REMARK    2  A    between atoms: C_2  and  C_18 
REMARK    3  A    between atoms: N_3  and  C_6 
REMARK    4  A    between atoms: C_6  and  C_7 
REMARK    5  A    between atoms: C_10  and  N_11 
REMARK       I    between atoms: N_11  and  C_12 
REMARK    6  A    between atoms: C_12  and  O_13 
ROOT
HETATM    1  N   UNL     1       5.307  26.072  55.428  1.00  0.00    -0.061 N 
HETATM    2  H   UNL     1       4.500  25.483  55.666  1.00  0.00     0.278 HD
HETATM    3  H   UNL     1       6.010  25.936  56.169  1.00  0.00     0.278 HD
ENDROOT
BRANCH   1   4
HETATM    4  C   UNL     1       5.959  25.623  54.141  1.00  0.00     0.241 C 
HETATM    5  C   UNL     1       4.847  25.453  53.109  1.00  0.00     0.047 C 
BRANCH   4   6
HETATM    6  C   UNL     1       6.703  24.330  54.347  1.00  0.00     0.106 A 
HETATM    7  S   UNL     1       7.160  23.807  55.910  1.00  0.00    -0.070 SA
HETATM    8  C   UNL     1       7.811  22.362  55.233  1.00  0.00     0.035 A 
HETATM    9  C   UNL     1       7.628  22.385  53.848  1.00  0.00     0.075 A 
HETATM   10  C   UNL     1       8.434  21.285  55.882  1.00  0.00     0.021 A 
HETATM   11  N   UNL     1       6.986  23.514  53.352  1.00  0.00    -0.243 NA
HETATM   12  C   UNL     1       8.084  21.291  53.085  1.00  0.00     0.033 A 
HETATM   13  C   UNL     1       8.704  20.212  53.724  1.00  0.00     0.002 A 
HETATM   14  C   UNL     1       8.875  20.212  55.104  1.00  0.00     0.002 A 
ENDBRANCH   4   6
ENDBRANCH   1   4
BRANCH   1  15
HETATM   15  C   UNL     1       4.898  27.505  55.470  1.00  0.00     0.271 C 
BRANCH  15  16
HETATM   16  C   UNL     1       5.884  28.328  56.251  1.00  0.00    -0.033 A 
HETATM   17  C   UNL     1       6.852  27.713  57.057  1.00  0.00     0.011 A 
HETATM   18  C   UNL     1       7.753  28.480  57.807  1.00  0.00     0.030 A 
HETATM   19  C   UNL     1       7.716  29.874  57.759  1.00  0.00     0.036 A 
HETATM   20  C   UNL     1       6.767  30.484  56.931  1.00  0.00     0.030 A 
HETATM   21  C   UNL     1       5.856  29.725  56.190  1.00  0.00     0.011 A 
BRANCH  19  22
HETATM   22  N   UNL     1       8.577  30.727  58.468  1.00  0.00    -0.303 N 
HETATM   23  C   UNL     1       9.814  31.239  58.179  1.00  0.00     0.364 C 
HETATM   24  O   UNL     1      10.356  32.010  58.966  1.00  0.00    -0.238 OA
HETATM   25  H   UNL     1       8.274  31.038  59.383  1.00  0.00     0.171 HD
BRANCH  23  26
HETATM   26  O   UNL     1      10.375  30.807  57.024  1.00  0.00    -0.309 OA
HETATM   27  C   UNL     1      11.303  29.732  57.195  1.00  0.00     0.215 C 
ENDBRANCH  23  26
ENDBRANCH  19  22
ENDBRANCH  15  16
ENDBRANCH   1  15
TORSDOF 6
ENDMDL
MODEL 2
REMARK VINA RESULT:      -8.5      4.484      6.518
REMARK  6 active torsions:
REMARK  status: ('A' for Active; 'I' for Inactive)
REMARK    1  A    between atoms: C_2  and  N_3 
REMARK    2  A    between atoms: C_2  and  C_18 
REMARK    3  A    between atoms: N_3  and  C_6 
REMARK    4  A    between atoms: C_6  and  C_7 
REMARK    5  A    between atoms: C_10  and  N_11 
REMARK       I    between atoms: N_11  and  C_12 
REMARK    6  A    between atoms: C_12  and  O_13 
ROOT
HETATM    1  N   UNL     1       5.271  25.611  55.726  1.00  0.00    -0.061 N 
HETATM    2  H   UNL     1       5.030  24.885  55.041  1.00  0.00     0.278 HD
HETATM    3  H   UNL     1       4.534  25.604  56.446  1.00  0.00     0.278 HD
ENDROOT
BRANCH   1   4
HETATM    4  C   UNL     1       6.563  25.291  56.440  1.00  0.00     0.241 C 
HETATM    5  C   UNL     1       7.484  26.496  56.266  1.00  0.00     0.047 C 
BRANCH   4   6
HETATM    6  C   UNL     1       7.190  24.047  55.868  1.00  0.00     0.106 A 
HETATM    7  S   UNL     1       8.129  22.997  56.838  1.00  0.00    -0.070 SA
HETATM    8  C   UNL     1       8.331  21.939  55.493  1.00  0.00     0.035 A 
HETATM    9  C   UNL     1       7.659  22.471  54.389  1.00  0.00     0.075 A 
HETATM   10  C   UNL     1       9.031  20.725  55.422  1.00  0.00     0.021 A 
HETATM   11  N   UNL     1       7.003  23.676  54.617  1.00  0.00    -0.243 NA
HETATM   12  C   UNL     1       7.686  21.763  53.171  1.00  0.00     0.033 A 
HETATM   13  C   UNL     1       8.379  20.550  53.092  1.00  0.00     0.002 A 
HETATM   14  C   UNL     1       9.042  20.040  54.203  1.00  0.00     0.002 A 
ENDBRANCH   4   6
ENDBRANCH   1   4
BRANCH   1  15
HETATM   15  C   UNL     1       5.222  26.946  55.063  1.00  0.00     0.271 C 
BRANCH  15  16
HETATM   16  C   UNL     1       5.225  26.810  53.566  1.00  0.00    -0.033 A 
HETATM   17  C   UNL     1       4.943  25.579  52.958  1.00  0.00     0.011 A 
HETATM   18  C   UNL     1       4.973  25.444  51.563  1.00  0.00     0.030 A 
HETATM   19  C   UNL     1       5.272  26.536  50.748  1.00  0.00     0.036 A 
HETATM   20  C   UNL     1       5.525  27.771  51.357  1.00  0.00     0.030 A 
HETATM   21  C   UNL     1       5.510  27.908  52.749  1.00  0.00     0.011 A 
BRANCH  19  22
HETATM   22  N   UNL     1       5.324  26.503  49.345  1.00  0.00    -0.303 N 
HETATM   23  C   UNL     1       4.375  26.722  48.381  1.00  0.00     0.364 C 
HETATM   24  O   UNL     1       4.684  26.667  47.194  1.00  0.00    -0.238 OA
HETATM   25  H   UNL     1       6.209  26.260  48.917  1.00  0.00     0.171 HD
BRANCH  23  26
HETATM   26  O   UNL     1       3.118  26.950  48.833  1.00  0.00    -0.309 OA
HETATM   27  C   UNL     1       2.101  26.759  47.847  1.00  0.00     0.215 C 
ENDBRANCH  23  26
ENDBRANCH  19  22
ENDBRANCH  15  16
ENDBRANCH   1  15
TORSDOF 6
ENDMDL
MODEL 3
REMARK VINA RESULT:      -8.5      4.245      9.150
REMARK  6 active torsions:
REMARK  status: ('A' for Active; 'I' for Inactive)
REMARK    1  A    between atoms: C_2  and  N_3 
REMARK    2  A    between atoms: C_2  and  C_18 
REMARK    3  A    between atoms: N_3  and  C_6 
REMARK    4  A    between atoms: C_6  and  C_7 
REMARK    5  A    between atoms: C_10  and  N_11 
REMARK       I    between atoms: N_11  and  C_12 
REMARK    6  A    between atoms: C_12  and  O_13 
ROOT
HETATM    1  N   UNL     1       7.961  27.436  57.367  1.00  0.00    -0.061 N 
HETATM    2  H   UNL     1       8.794  27.057  56.903  1.00  0.00     0.278 HD
HETATM    3  H   UNL     1       8.169  27.478  58.376  1.00  0.00     0.278 HD
ENDROOT
BRANCH   1   4
HETATM    4  C   UNL     1       7.685  28.856  56.933  1.00  0.00     0.241 C 
HETATM    5  C   UNL     1       8.740  29.222  55.892  1.00  0.00     0.047 C 
BRANCH   4   6
HETATM    6  C   UNL     1       7.747  29.791  58.113  1.00  0.00     0.106 A 
HETATM    7  S   UNL     1       6.632  31.076  58.288  1.00  0.00    -0.070 SA
HETATM    8  C   UNL     1       7.353  31.493  59.796  1.00  0.00     0.035 A 
HETATM    9  C   UNL     1       8.404  30.610  60.059  1.00  0.00     0.075 A 
HETATM   10  C   UNL     1       7.011  32.525  60.684  1.00  0.00     0.021 A 
HETATM   11  N   UNL     1       8.616  29.635  59.091  1.00  0.00    -0.243 NA
HETATM   12  C   UNL     1       9.138  30.763  61.252  1.00  0.00     0.033 A 
HETATM   13  C   UNL     1       8.802  31.787  62.144  1.00  0.00     0.002 A 
HETATM   14  C   UNL     1       7.753  32.655  61.861  1.00  0.00     0.002 A 
ENDBRANCH   4   6
ENDBRANCH   1   4
BRANCH   1  15
HETATM   15  C   UNL     1       6.826  26.484  57.193  1.00  0.00     0.271 C 
BRANCH  15  16
HETATM   16  C   UNL     1       7.185  25.380  56.238  1.00  0.00    -0.033 A 
HETATM   17  C   UNL     1       6.355  25.076  55.149  1.00  0.00     0.011 A 
HETATM   18  C   UNL     1       6.675  24.029  54.274  1.00  0.00     0.030 A 
HETATM   19  C   UNL     1       7.833  23.273  54.459  1.00  0.00     0.036 A 
HETATM   20  C   UNL     1       8.674  23.598  55.530  1.00  0.00     0.030 A 
HETATM   21  C   UNL     1       8.353  24.633  56.415  1.00  0.00     0.011 A 
BRANCH  19  22
HETATM   22  N   UNL     1       8.241  22.210  53.637  1.00  0.00    -0.303 N 
HETATM   23  C   UNL     1       8.131  20.851  53.764  1.00  0.00     0.364 C 
HETATM   24  O   UNL     1       8.545  20.118  52.871  1.00  0.00    -0.238 OA
HETATM   25  H   UNL     1       8.729  22.445  52.782  1.00  0.00     0.171 HD
BRANCH  23  26
HETATM   26  O   UNL     1       7.590  20.410  54.925  1.00  0.00    -0.309 OA
HETATM   27  C   UNL     1       8.554  19.986  55.893  1.00  0.00     0.215 C 
ENDBRANCH  23  26
ENDBRANCH  19  22
ENDBRANCH  15  16
ENDBRANCH   1  15
TORSDOF 6
ENDMDL
MODEL 4
REMARK VINA RESULT:      -8.4      1.588      2.064
REMARK  6 active torsions:
REMARK  status: ('A' for Active; 'I' for Inactive)
REMARK    1  A    between atoms: C_2  and  N_3 
REMARK    2  A    between atoms: C_2  and  C_18 
REMARK    3  A    between atoms: N_3  and  C_6 
REMARK    4  A    between atoms: C_6  and  C_7 
REMARK    5  A    between atoms: C_10  and  N_11 
REMARK       I    between atoms: N_11  and  C_12 
REMARK    6  A    between atoms: C_12  and  O_13 
ROOT
HETATM    1  N   UNL     1       5.217  26.212  55.279  1.00  0.00    -0.061 N 
HETATM    2  H   UNL     1       4.651  26.971  54.882  1.00  0.00     0.278 HD
HETATM    3  H   UNL     1       4.726  25.330  55.074  1.00  0.00     0.278 HD
ENDROOT
BRANCH   1   4
HETATM    4  C   UNL     1       6.564  26.114  54.602  1.00  0.00     0.241 C 
HETATM    5  C   UNL     1       6.435  26.797  53.243  1.00  0.00     0.047 C 
BRANCH   4   6
HETATM    6  C   UNL     1       6.973  24.673  54.443  1.00  0.00     0.106 A 
HETATM    7  S   UNL     1       7.390  24.031  52.915  1.00  0.00    -0.070 SA
HETATM    8  C   UNL     1       7.751  22.516  53.653  1.00  0.00     0.035 A 
HETATM    9  C   UNL     1       7.525  22.614  55.029  1.00  0.00     0.075 A 
HETATM   10  C   UNL     1       8.206  21.330  53.058  1.00  0.00     0.021 A 
HETATM   11  N   UNL     1       7.085  23.856  55.471  1.00  0.00    -0.243 NA
HETATM   12  C   UNL     1       7.762  21.485  55.837  1.00  0.00     0.033 A 
HETATM   13  C   UNL     1       8.218  20.298  55.253  1.00  0.00     0.002 A 
HETATM   14  C   UNL     1       8.436  20.224  53.881  1.00  0.00     0.002 A 
ENDBRANCH   4   6
ENDBRANCH   1   4
BRANCH   1  15
HETATM   15  C   UNL     1       5.258  26.355  56.763  1.00  0.00     0.271 C 
BRANCH  15  16
HETATM   16  C   UNL     1       6.023  27.583  57.170  1.00  0.00    -0.033 A 
HETATM   17  C   UNL     1       7.377  27.499  57.525  1.00  0.00     0.011 A 
HETATM   18  C   UNL     1       8.084  28.639  57.930  1.00  0.00     0.030 A 
HETATM   19  C   UNL     1       7.460  29.886  57.978  1.00  0.00     0.036 A 
HETATM   20  C   UNL     1       6.116  29.971  57.595  1.00  0.00     0.030 A 
HETATM   21  C   UNL     1       5.401  28.835  57.202  1.00  0.00     0.011 A 
BRANCH  19  22
HETATM   22  N   UNL     1       8.082  31.084  58.366  1.00  0.00    -0.303 N 
HETATM   23  C   UNL     1       8.425  31.591  59.591  1.00  0.00     0.364 C 
HETATM   24  O   UNL     1       9.006  32.670  59.665  1.00  0.00    -0.238 OA
HETATM   25  H   UNL     1       8.329  31.738  57.633  1.00  0.00     0.171 HD
BRANCH  23  26
HETATM   26  O   UNL     1       8.047  30.852  60.661  1.00  0.00    -0.309 OA
HETATM   27  C   UNL     1       9.106  30.577  61.582  1.00  0.00     0.215 C 
ENDBRANCH  23  26
ENDBRANCH  19  22
ENDBRANCH  15  16
ENDBRANCH   1  15
TORSDOF 6
ENDMDL
MODEL 5
REMARK VINA RESULT:      -8.3      1.615      2.128
REMARK  6 active torsions:
REMARK  status: ('A' for Active; 'I' for Inactive)
REMARK    1  A    between atoms: C_2  and  N_3 
REMARK    2  A    between atoms: C_2  and  C_18 
REMARK    3  A    between atoms: N_3  and  C_6 
REMARK    4  A    between atoms: C_6  and  C_7 
REMARK    5  A    between atoms: C_10  and  N_11 
REMARK       I    between atoms: N_11  and  C_12 
REMARK    6  A    between atoms: C_12  and  O_13 
ROOT
HETATM    1  N   UNL     1       6.281  26.580  54.071  1.00  0.00    -0.061 N 
HETATM    2  H   UNL     1       5.347  27.004  54.059  1.00  0.00     0.278 HD
HETATM    3  H   UNL     1       6.383  26.096  54.975  1.00  0.00     0.278 HD
ENDROOT
BRANCH   1   4
HETATM    4  C   UNL     1       6.421  25.518  53.006  1.00  0.00     0.241 C 
HETATM    5  C   UNL     1       5.032  25.286  52.416  1.00  0.00     0.047 C 
BRANCH   4   6
HETATM    6  C   UNL     1       6.974  24.246  53.595  1.00  0.00     0.106 A 
HETATM    7  S   UNL     1       6.979  23.979  55.284  1.00  0.00    -0.070 SA
HETATM    8  C   UNL     1       7.649  22.411  55.031  1.00  0.00     0.035 A 
HETATM    9  C   UNL     1       7.821  22.205  53.659  1.00  0.00     0.075 A 
HETATM   10  C   UNL     1       7.993  21.434  55.977  1.00  0.00     0.021 A 
HETATM   11  N   UNL     1       7.424  23.261  52.846  1.00  0.00    -0.243 NA
HETATM   12  C   UNL     1       8.355  20.978  53.218  1.00  0.00     0.033 A 
HETATM   13  C   UNL     1       8.698  19.997  54.155  1.00  0.00     0.002 A 
HETATM   14  C   UNL     1       8.519  20.225  55.515  1.00  0.00     0.002 A 
ENDBRANCH   4   6
ENDBRANCH   1   4
BRANCH   1  15
HETATM   15  C   UNL     1       7.310  27.660  54.035  1.00  0.00     0.271 C 
BRANCH  15  16
HETATM   16  C   UNL     1       7.505  28.270  55.394  1.00  0.00    -0.033 A 
HETATM   17  C   UNL     1       8.684  28.960  55.708  1.00  0.00     0.011 A 
HETATM   18  C   UNL     1       8.878  29.505  56.985  1.00  0.00     0.030 A 
HETATM   19  C   UNL     1       7.896  29.384  57.969  1.00  0.00     0.036 A 
HETATM   20  C   UNL     1       6.708  28.720  57.643  1.00  0.00     0.030 A 
HETATM   21  C   UNL     1       6.514  28.162  56.375  1.00  0.00     0.011 A 
BRANCH  19  22
HETATM   22  N   UNL     1       7.994  29.897  59.272  1.00  0.00    -0.303 N 
HETATM   23  C   UNL     1       7.718  31.130  59.802  1.00  0.00     0.364 C 
HETATM   24  O   UNL     1       7.856  31.323  61.006  1.00  0.00    -0.238 OA
HETATM   25  H   UNL     1       8.349  29.278  59.991  1.00  0.00     0.171 HD
BRANCH  23  26
HETATM   26  O   UNL     1       7.338  32.080  58.914  1.00  0.00    -0.309 OA
HETATM   27  C   UNL     1       5.945  32.400  58.965  1.00  0.00     0.215 C 
ENDBRANCH  23  26
ENDBRANCH  19  22
ENDBRANCH  15  16
ENDBRANCH   1  15
TORSDOF 6
ENDMDL
MODEL 6
REMARK VINA RESULT:      -8.1      1.641      2.198
REMARK  6 active torsions:
REMARK  status: ('A' for Active; 'I' for Inactive)
REMARK    1  A    between atoms: C_2  and  N_3 
REMARK    2  A    between atoms: C_2  and  C_18 
REMARK    3  A    between atoms: N_3  and  C_6 
REMARK    4  A    between atoms: C_6  and  C_7 
REMARK    5  A    between atoms: C_10  and  N_11 
REMARK       I    between atoms: N_11  and  C_12 
REMARK    6  A    between atoms: C_12  and  O_13 
ROOT
HETATM    1  N   UNL     1       4.247  26.464  53.230  1.00  0.00    -0.061 N 
HETATM    2  H   UNL     1       3.527  26.004  52.663  1.00  0.00     0.278 HD
HETATM    3  H   UNL     1       4.364  25.900  54.085  1.00  0.00     0.278 HD
ENDROOT
BRANCH   1   4
HETATM    4  C   UNL     1       5.588  26.456  52.534  1.00  0.00     0.241 C 
HETATM    5  C   UNL     1       5.324  26.203  51.052  1.00  0.00     0.047 C 
BRANCH   4   6
HETATM    6  C   UNL     1       6.479  25.387  53.112  1.00  0.00     0.106 A 
HETATM    7  S   UNL     1       7.386  25.660  54.535  1.00  0.00    -0.070 SA
HETATM    8  C   UNL     1       7.964  24.038  54.474  1.00  0.00     0.035 A 
HETATM    9  C   UNL     1       7.415  23.399  53.359  1.00  0.00     0.075 A 
HETATM   10  C   UNL     1       8.837  23.378  55.352  1.00  0.00     0.021 A 
HETATM   11  N   UNL     1       6.560  24.180  52.590  1.00  0.00    -0.243 NA
HETATM   12  C   UNL     1       7.749  22.053  53.114  1.00  0.00     0.033 A 
HETATM   13  C   UNL     1       8.617  21.386  53.986  1.00  0.00     0.002 A 
HETATM   14  C   UNL     1       9.152  22.042  55.089  1.00  0.00     0.002 A 
ENDBRANCH   4   6
ENDBRANCH   1   4
BRANCH   1  15
HETATM   15  C   UNL     1       3.756  27.807  53.654  1.00  0.00     0.271 C 
BRANCH  15  16
HETATM   16  C   UNL     1       4.533  28.321  54.833  1.00  0.00    -0.033 A 
HETATM   17  C   UNL     1       5.162  29.573  54.787  1.00  0.00     0.011 A 
HETATM   18  C   UNL     1       5.910  30.041  55.876  1.00  0.00     0.030 A 
HETATM   19  C   UNL     1       6.036  29.277  57.036  1.00  0.00     0.036 A 
HETATM   20  C   UNL     1       5.383  28.040  57.090  1.00  0.00     0.030 A 
HETATM   21  C   UNL     1       4.646  27.561  56.002  1.00  0.00     0.011 A 
BRANCH  19  22
HETATM   22  N   UNL     1       6.758  29.659  58.178  1.00  0.00    -0.303 N 
HETATM   23  C   UNL     1       8.051  29.434  58.571  1.00  0.00     0.364 C 
HETATM   24  O   UNL     1       8.464  29.915  59.622  1.00  0.00    -0.238 OA
HETATM   25  H   UNL     1       6.265  30.193  58.883  1.00  0.00     0.171 HD
BRANCH  23  26
HETATM   26  O   UNL     1       8.783  28.635  57.758  1.00  0.00    -0.309 OA
HETATM   27  C   UNL     1       9.797  29.326  57.024  1.00  0.00     0.215 C 
ENDBRANCH  23  26
ENDBRANCH  19  22
ENDBRANCH  15  16
ENDBRANCH   1  15
TORSDOF 6
ENDMDL
MODEL 7
REMARK VINA RESULT:      -8.1      4.752      8.084
REMARK  6 active torsions:
REMARK  status: ('A' for Active; 'I' for Inactive)
REMARK    1  A    between atoms: C_2  and  N_3 
REMARK    2  A    between atoms: C_2  and  C_18 
REMARK    3  A    between atoms: N_3  and  C_6 
REMARK    4  A    between atoms: C_6  and  C_7 
REMARK    5  A    between atoms: C_10  and  N_11 
REMARK       I    between atoms: N_11  and  C_12 
REMARK    6  A    between atoms: C_12  and  O_13 
ROOT
HETATM    1  N   UNL     1       6.549  28.295  53.134  1.00  0.00    -0.061 N 
HETATM    2  H   UNL     1       6.822  27.772  52.294  1.00  0.00     0.278 HD
HETATM    3  H   UNL     1       7.185  29.103  53.207  1.00  0.00     0.278 HD
ENDROOT
BRANCH   1   4
HETATM    4  C   UNL     1       5.156  28.865  53.002  1.00  0.00     0.241 C 
HETATM    5  C   UNL     1       4.349  28.363  54.196  1.00  0.00     0.047 C 
BRANCH   4   6
HETATM    6  C   UNL     1       4.526  28.429  51.705  1.00  0.00     0.106 A 
HETATM    7  S   UNL     1       3.105  29.173  51.112  1.00  0.00    -0.070 SA
HETATM    8  C   UNL     1       3.176  28.182  49.705  1.00  0.00     0.035 A 
HETATM    9  C   UNL     1       4.294  27.346  49.791  1.00  0.00     0.075 A 
HETATM   10  C   UNL     1       2.309  28.149  48.603  1.00  0.00     0.021 A 
HETATM   11  N   UNL     1       5.064  27.502  50.938  1.00  0.00    -0.243 NA
HETATM   12  C   UNL     1       4.552  26.447  48.738  1.00  0.00     0.033 A 
HETATM   13  C   UNL     1       3.694  26.409  47.633  1.00  0.00     0.002 A 
HETATM   14  C   UNL     1       2.588  27.250  47.569  1.00  0.00     0.002 A 
ENDBRANCH   4   6
ENDBRANCH   1   4
BRANCH   1  15
HETATM   15  C   UNL     1       6.779  27.446  54.338  1.00  0.00     0.271 C 
BRANCH  15  16
HETATM   16  C   UNL     1       7.072  26.023  53.951  1.00  0.00    -0.033 A 
HETATM   17  C   UNL     1       7.692  25.725  52.730  1.00  0.00     0.011 A 
HETATM   18  C   UNL     1       7.939  24.397  52.356  1.00  0.00     0.030 A 
HETATM   19  C   UNL     1       7.585  23.342  53.197  1.00  0.00     0.036 A 
HETATM   20  C   UNL     1       6.992  23.644  54.428  1.00  0.00     0.030 A 
HETATM   21  C   UNL     1       6.730  24.967  54.801  1.00  0.00     0.011 A 
BRANCH  19  22
HETATM   22  N   UNL     1       7.794  21.982  52.915  1.00  0.00    -0.303 N 
HETATM   23  C   UNL     1       8.579  21.027  53.504  1.00  0.00     0.364 C 
HETATM   24  O   UNL     1       8.560  19.874  53.083  1.00  0.00    -0.238 OA
HETATM   25  H   UNL     1       7.303  21.591  52.120  1.00  0.00     0.171 HD
BRANCH  23  26
HETATM   26  O   UNL     1       9.370  21.458  54.516  1.00  0.00    -0.309 OA
HETATM   27  C   UNL     1       9.239  20.699  55.721  1.00  0.00     0.215 C 
ENDBRANCH  23  26
ENDBRANCH  19  22
ENDBRANCH  15  16
ENDBRANCH   1  15
TORSDOF 6
ENDMDL
MODEL 8
REMARK VINA RESULT:      -8.1      3.759      8.687
REMARK  6 active torsions:
REMARK  status: ('A' for Active; 'I' for Inactive)
REMARK    1  A    between atoms: C_2  and  N_3 
REMARK    2  A    between atoms: C_2  and  C_18 
REMARK    3  A    between atoms: N_3  and  C_6 
REMARK    4  A    between atoms: C_6  and  C_7 
REMARK    5  A    between atoms: C_10  and  N_11 
REMARK       I    between atoms: N_11  and  C_12 
REMARK    6  A    between atoms: C_12  and  O_13 
ROOT
HETATM    1  N   UNL     1       7.566  27.955  54.995  1.00  0.00    -0.061 N 
HETATM    2  H   UNL     1       8.252  28.694  54.803  1.00  0.00     0.278 HD
HETATM    3  H   UNL     1       8.080  27.166  55.414  1.00  0.00     0.278 HD
ENDROOT
BRANCH   1   4
HETATM    4  C   UNL     1       6.554  28.395  56.028  1.00  0.00     0.241 C 
HETATM    5  C   UNL     1       5.447  29.138  55.285  1.00  0.00     0.047 C 
BRANCH   4   6
HETATM    6  C   UNL     1       7.202  29.284  57.058  1.00  0.00     0.106 A 
HETATM    7  S   UNL     1       8.901  29.350  57.233  1.00  0.00    -0.070 SA
HETATM    8  C   UNL     1       8.726  30.554  58.453  1.00  0.00     0.035 A 
HETATM    9  C   UNL     1       7.367  30.821  58.639  1.00  0.00     0.075 A 
HETATM   10  C   UNL     1       9.720  31.216  59.190  1.00  0.00     0.021 A 
HETATM   11  N   UNL     1       6.503  30.093  57.829  1.00  0.00    -0.243 NA
HETATM   12  C   UNL     1       6.989  31.785  59.594  1.00  0.00     0.033 A 
HETATM   13  C   UNL     1       7.973  32.453  60.331  1.00  0.00     0.002 A 
HETATM   14  C   UNL     1       9.320  32.170  60.129  1.00  0.00     0.002 A 
ENDBRANCH   4   6
ENDBRANCH   1   4
BRANCH   1  15
HETATM   15  C   UNL     1       6.992  27.469  53.707  1.00  0.00     0.271 C 
BRANCH  15  16
HETATM   16  C   UNL     1       7.198  25.990  53.545  1.00  0.00    -0.033 A 
HETATM   17  C   UNL     1       6.915  25.107  54.597  1.00  0.00     0.011 A 
HETATM   18  C   UNL     1       7.133  23.730  54.456  1.00  0.00     0.030 A 
HETATM   19  C   UNL     1       7.625  23.204  53.261  1.00  0.00     0.036 A 
HETATM   20  C   UNL     1       7.879  24.085  52.203  1.00  0.00     0.030 A 
HETATM   21  C   UNL     1       7.677  25.462  52.342  1.00  0.00     0.011 A 
BRANCH  19  22
HETATM   22  N   UNL     1       7.872  21.842  53.022  1.00  0.00    -0.303 N 
HETATM   23  C   UNL     1       8.614  20.907  53.693  1.00  0.00     0.364 C 
HETATM   24  O   UNL     1       8.644  19.747  53.292  1.00  0.00    -0.238 OA
HETATM   25  H   UNL     1       7.456  21.432  52.195  1.00  0.00     0.171 HD
BRANCH  23  26
HETATM   26  O   UNL     1       9.311  21.364  54.761  1.00  0.00    -0.309 OA
HETATM   27  C   UNL     1       8.958  20.737  55.997  1.00  0.00     0.215 C 
ENDBRANCH  23  26
ENDBRANCH  19  22
ENDBRANCH  15  16
ENDBRANCH   1  15
TORSDOF 6
ENDMDL
MODEL 9
REMARK VINA RESULT:      -7.9      4.253      5.899
REMARK  6 active torsions:
REMARK  status: ('A' for Active; 'I' for Inactive)
REMARK    1  A    between atoms: C_2  and  N_3 
REMARK    2  A    between atoms: C_2  and  C_18 
REMARK    3  A    between atoms: N_3  and  C_6 
REMARK    4  A    between atoms: C_6  and  C_7 
REMARK    5  A    between atoms: C_10  and  N_11 
REMARK       I    between atoms: N_11  and  C_12 
REMARK    6  A    between atoms: C_12  and  O_13 
ROOT
HETATM    1  N   UNL     1       8.067  29.335  58.886  1.00  0.00    -0.061 N 
HETATM    2  H   UNL     1       7.293  29.321  59.559  1.00  0.00     0.278 HD
HETATM    3  H   UNL     1       8.647  28.504  59.073  1.00  0.00     0.278 HD
ENDROOT
BRANCH   1   4
HETATM    4  C   UNL     1       7.568  29.190  57.467  1.00  0.00     0.241 C 
HETATM    5  C   UNL     1       6.148  29.749  57.429  1.00  0.00     0.047 C 
BRANCH   4   6
HETATM    6  C   UNL     1       7.589  27.745  57.043  1.00  0.00     0.106 A 
HETATM    7  S   UNL     1       6.734  27.211  55.662  1.00  0.00    -0.070 SA
HETATM    8  C   UNL     1       7.346  25.618  55.902  1.00  0.00     0.035 A 
HETATM    9  C   UNL     1       8.168  25.611  57.033  1.00  0.00     0.075 A 
HETATM   10  C   UNL     1       7.117  24.460  55.143  1.00  0.00     0.021 A 
HETATM   11  N   UNL     1       8.306  26.837  57.674  1.00  0.00    -0.243 NA
HETATM   12  C   UNL     1       8.785  24.404  57.416  1.00  0.00     0.033 A 
HETATM   13  C   UNL     1       8.565  23.245  56.664  1.00  0.00     0.002 A 
HETATM   14  C   UNL     1       7.742  23.275  55.543  1.00  0.00     0.002 A 
ENDBRANCH   4   6
ENDBRANCH   1   4
BRANCH   1  15
HETATM   15  C   UNL     1       8.920  30.531  59.143  1.00  0.00     0.271 C 
BRANCH  15  16
HETATM   16  C   UNL     1       8.531  31.210  60.426  1.00  0.00    -0.033 A 
HETATM   17  C   UNL     1       8.852  30.639  61.666  1.00  0.00     0.011 A 
HETATM   18  C   UNL     1       8.464  31.258  62.862  1.00  0.00     0.030 A 
HETATM   19  C   UNL     1       7.760  32.462  62.847  1.00  0.00     0.036 A 
HETATM   20  C   UNL     1       7.467  33.044  61.608  1.00  0.00     0.030 A 
HETATM   21  C   UNL     1       7.839  32.425  60.410  1.00  0.00     0.011 A 
BRANCH  19  22
HETATM   22  N   UNL     1       7.332  33.159  63.989  1.00  0.00    -0.303 N 
HETATM   23  C   UNL     1       6.129  33.212  64.641  1.00  0.00     0.364 C 
HETATM   24  O   UNL     1       6.015  33.885  65.661  1.00  0.00    -0.238 OA
HETATM   25  H   UNL     1       8.004  33.766  64.443  1.00  0.00     0.171 HD
BRANCH  23  26
HETATM   26  O   UNL     1       5.115  32.524  64.062  1.00  0.00    -0.309 OA
HETATM   27  C   UNL     1       4.223  33.337  63.295  1.00  0.00     0.215 C 
ENDBRANCH  23  26
ENDBRANCH  19  22
ENDBRANCH  15  16
ENDBRANCH   1  15
TORSDOF 6
ENDMDL
MODEL 10
REMARK VINA RESULT:      -7.8      4.936      7.374
REMARK  6 active torsions:
REMARK  status: ('A' for Active; 'I' for Inactive)
REMARK    1  A    between atoms: C_2  and  N_3 
REMARK    2  A    between atoms: C_2  and  C_18 
REMARK    3  A    between atoms: N_3  and  C_6 
REMARK    4  A    between atoms: C_6  and  C_7 
REMARK    5  A    between atoms: C_10  and  N_11 
REMARK       I    between atoms: N_11  and  C_12 
REMARK    6  A    between atoms: C_12  and  O_13 
ROOT
HETATM    1  N   UNL     1       5.171  26.276  54.622  1.00  0.00    -0.061 N 
HETATM    2  H   UNL     1       4.894  25.492  54.019  1.00  0.00     0.278 HD
HETATM    3  H   UNL     1       4.471  26.339  55.375  1.00  0.00     0.278 HD
ENDROOT
BRANCH   1   4
HETATM    4  C   UNL     1       6.496  26.012  55.298  1.00  0.00     0.241 C 
HETATM    5  C   UNL     1       7.467  27.089  54.821  1.00  0.00     0.047 C 
BRANCH   4   6
HETATM    6  C   UNL     1       7.004  24.637  54.949  1.00  0.00     0.106 A 
HETATM    7  S   UNL     1       7.660  24.297  53.407  1.00  0.00    -0.070 SA
HETATM    8  C   UNL     1       8.005  22.686  53.912  1.00  0.00     0.035 A 
HETATM    9  C   UNL     1       7.589  22.525  55.237  1.00  0.00     0.075 A 
HETATM   10  C   UNL     1       8.603  21.643  53.189  1.00  0.00     0.021 A 
HETATM   11  N   UNL     1       7.024  23.651  55.823  1.00  0.00    -0.243 NA
HETATM   12  C   UNL     1       7.779  21.276  55.860  1.00  0.00     0.033 A 
HETATM   13  C   UNL     1       8.377  20.230  55.148  1.00  0.00     0.002 A 
HETATM   14  C   UNL     1       8.782  20.414  53.830  1.00  0.00     0.002 A 
ENDBRANCH   4   6
ENDBRANCH   1   4
BRANCH   1  15
HETATM   15  C   UNL     1       5.093  27.545  53.843  1.00  0.00     0.271 C 
BRANCH  15  16
HETATM   16  C   UNL     1       4.868  27.273  52.382  1.00  0.00    -0.033 A 
HETATM   17  C   UNL     1       4.540  28.313  51.501  1.00  0.00     0.011 A 
HETATM   18  C   UNL     1       4.302  28.056  50.144  1.00  0.00     0.030 A 
HETATM   19  C   UNL     1       4.399  26.760  49.636  1.00  0.00     0.036 A 
HETATM   20  C   UNL     1       4.755  25.728  50.513  1.00  0.00     0.030 A 
HETATM   21  C   UNL     1       4.980  25.977  51.871  1.00  0.00     0.011 A 
BRANCH  19  22
HETATM   22  N   UNL     1       4.184  26.402  48.296  1.00  0.00    -0.303 N 
HETATM   23  C   UNL     1       3.043  26.200  47.565  1.00  0.00     0.364 C 
HETATM   24  O   UNL     1       3.121  25.922  46.373  1.00  0.00    -0.238 OA
HETATM   25  H   UNL     1       5.002  26.234  47.722  1.00  0.00     0.171 HD
BRANCH  23  26
HETATM   26  O   UNL     1       1.880  26.290  48.254  1.00  0.00    -0.309 OA
HETATM   27  C   UNL     1       1.090  27.433  47.916  1.00  0.00     0.215 C 
ENDBRANCH  23  26
ENDBRANCH  19  22
ENDBRANCH  15  16
ENDBRANCH   1  15
TORSDOF 6
ENDMDL
