MODEL 1
REMARK VINA RESULT:      -8.8      0.000      0.000
REMARK  2 active torsions:
REMARK  status: ('A' for Active; 'I' for Inactive)
REMARK    1  A    between atoms: N_10  and  S_11 
REMARK    2  A    between atoms: S_11  and  C_14 
ROOT
HETATM    1  S   UNL     1       7.238  25.312  54.094  1.00  0.00     0.245 S 
HETATM    2  O   UNL     1       5.852  24.981  53.830  1.00  0.00    -0.206 OA
HETATM    3  O   UNL     1       8.106  25.679  53.000  1.00  0.00    -0.206 OA
ENDROOT
BRANCH   1   4
HETATM    4  N   UNL     1       7.203  26.667  55.201  1.00  0.00    -0.201 NA
HETATM    5  C   UNL     1       5.873  26.837  55.953  1.00  0.00     0.096 C 
HETATM    6  C   UNL     1       5.096  25.546  56.227  1.00  0.00     0.029 C 
HETATM    7  C   UNL     1       6.173  27.469  57.335  1.00  0.00     0.252 C 
HETATM    8  N   UNL     1       6.195  28.973  57.323  1.00  0.00    -0.074 N 
HETATM    9  H   UNL     1       5.232  29.314  57.457  1.00  0.00     0.277 HD
HETATM   10  H   UNL     1       6.694  29.270  58.175  1.00  0.00     0.277 HD
HETATM   11  C   UNL     1       6.777  29.698  56.162  1.00  0.00     0.233 C 
HETATM   12  C   UNL     1       8.007  29.013  55.604  1.00  0.00     0.043 C 
HETATM   13  C   UNL     1       7.652  27.947  54.571  1.00  0.00     0.109 C 
ENDBRANCH   1   4
BRANCH   1  14
HETATM   14  C   UNL     1       7.914  23.927  55.010  1.00  0.00     0.088 A 
HETATM   15  C   UNL     1       8.128  24.174  56.381  1.00  0.00     0.026 A 
HETATM   16  C   UNL     1       8.463  23.141  57.246  1.00  0.00     0.002 A 
HETATM   17  C   UNL     1       8.565  21.845  56.757  1.00  0.00     0.014 A 
HETATM   18  C   UNL     1       8.367  21.571  55.395  1.00  0.00    -0.004 A 
HETATM   19  C   UNL     1       8.482  20.255  54.932  1.00  0.00     0.128 A 
HETATM   20  C   UNL     1       8.057  22.605  54.473  1.00  0.00     0.038 A 
HETATM   21  N   UNL     1       8.348  19.875  53.645  1.00  0.00    -0.269 NA
HETATM   22  C   UNL     1       8.091  20.858  52.765  1.00  0.00     0.159 A 
HETATM   23  C   UNL     1       7.957  22.193  53.119  1.00  0.00     0.146 A 
HETATM   24  F   UNL     1       7.855  23.076  52.120  1.00  0.00    -0.204 F 
ENDBRANCH   1  14
TORSDOF 2
ENDMDL
MODEL 2
REMARK VINA RESULT:      -8.4      2.146      3.108
REMARK  2 active torsions:
REMARK  status: ('A' for Active; 'I' for Inactive)
REMARK    1  A    between atoms: N_10  and  S_11 
REMARK    2  A    between atoms: S_11  and  C_14 
ROOT
HETATM    1  S   UNL     1       7.310  25.391  56.436  1.00  0.00     0.245 S 
HETATM    2  O   UNL     1       8.664  25.598  56.910  1.00  0.00    -0.206 OA
HETATM    3  O   UNL     1       6.284  24.977  57.364  1.00  0.00    -0.206 OA
ENDROOT
BRANCH   1   4
HETATM    4  N   UNL     1       6.803  26.922  55.756  1.00  0.00    -0.201 NA
HETATM    5  C   UNL     1       6.952  28.119  56.707  1.00  0.00     0.096 C 
HETATM    6  C   UNL     1       8.096  28.022  57.721  1.00  0.00     0.029 C 
HETATM    7  C   UNL     1       7.226  29.385  55.857  1.00  0.00     0.252 C 
HETATM    8  N   UNL     1       5.980  30.088  55.396  1.00  0.00    -0.074 N 
HETATM    9  H   UNL     1       5.680  30.739  56.137  1.00  0.00     0.277 HD
HETATM   10  H   UNL     1       6.255  30.699  54.613  1.00  0.00     0.277 HD
HETATM   11  C   UNL     1       4.792  29.297  54.977  1.00  0.00     0.233 C 
HETATM   12  C   UNL     1       5.165  28.044  54.215  1.00  0.00     0.043 C 
HETATM   13  C   UNL     1       5.439  26.864  55.145  1.00  0.00     0.109 C 
ENDBRANCH   1   4
BRANCH   1  14
HETATM   14  C   UNL     1       7.435  24.243  55.064  1.00  0.00     0.088 A 
HETATM   15  C   UNL     1       7.123  24.793  53.805  1.00  0.00     0.026 A 
HETATM   16  C   UNL     1       7.362  24.078  52.638  1.00  0.00     0.002 A 
HETATM   17  C   UNL     1       7.935  22.816  52.715  1.00  0.00     0.014 A 
HETATM   18  C   UNL     1       8.246  22.239  53.956  1.00  0.00    -0.004 A 
HETATM   19  C   UNL     1       8.818  20.962  54.000  1.00  0.00     0.128 A 
HETATM   20  C   UNL     1       7.986  22.924  55.173  1.00  0.00     0.038 A 
HETATM   21  N   UNL     1       9.128  20.294  55.130  1.00  0.00    -0.269 NA
HETATM   22  C   UNL     1       8.848  20.925  56.283  1.00  0.00     0.159 A 
HETATM   23  C   UNL     1       8.283  22.191  56.350  1.00  0.00     0.146 A 
HETATM   24  F   UNL     1       7.921  22.627  57.562  1.00  0.00    -0.204 F 
ENDBRANCH   1  14
TORSDOF 2
ENDMDL
MODEL 3
REMARK VINA RESULT:      -7.9      2.648      3.800
REMARK  2 active torsions:
REMARK  status: ('A' for Active; 'I' for Inactive)
REMARK    1  A    between atoms: N_10  and  S_11 
REMARK    2  A    between atoms: S_11  and  C_14 
ROOT
HETATM    1  S   UNL     1       5.886  27.770  55.361  1.00  0.00     0.245 S 
HETATM    2  O   UNL     1       4.869  27.253  56.255  1.00  0.00    -0.206 OA
HETATM    3  O   UNL     1       5.548  28.813  54.422  1.00  0.00    -0.206 OA
ENDROOT
BRANCH   1   4
HETATM    4  N   UNL     1       7.155  28.397  56.392  1.00  0.00    -0.201 NA
HETATM    5  C   UNL     1       6.788  29.695  57.130  1.00  0.00     0.096 C 
HETATM    6  C   UNL     1       5.306  29.868  57.472  1.00  0.00     0.029 C 
HETATM    7  C   UNL     1       7.555  29.723  58.475  1.00  0.00     0.252 C 
HETATM    8  N   UNL     1       8.927  30.331  58.381  1.00  0.00    -0.074 N 
HETATM    9  H   UNL     1       8.840  31.352  58.492  1.00  0.00     0.277 HD
HETATM   10  H   UNL     1       9.447  30.024  59.216  1.00  0.00     0.277 HD
HETATM   11  C   UNL     1       9.772  30.075  57.183  1.00  0.00     0.233 C 
HETATM   12  C   UNL     1       9.638  28.658  56.667  1.00  0.00     0.043 C 
HETATM   13  C   UNL     1       8.472  28.507  55.693  1.00  0.00     0.109 C 
ENDBRANCH   1   4
BRANCH   1  14
HETATM   14  C   UNL     1       6.577  26.347  54.517  1.00  0.00     0.088 A 
HETATM   15  C   UNL     1       6.578  26.439  53.111  1.00  0.00     0.026 A 
HETATM   16  C   UNL     1       7.254  25.503  52.338  1.00  0.00     0.002 A 
HETATM   17  C   UNL     1       7.953  24.478  52.961  1.00  0.00     0.014 A 
HETATM   18  C   UNL     1       7.961  24.356  54.359  1.00  0.00    -0.004 A 
HETATM   19  C   UNL     1       8.672  23.309  54.957  1.00  0.00     0.128 A 
HETATM   20  C   UNL     1       7.255  25.274  55.183  1.00  0.00     0.038 A 
HETATM   21  N   UNL     1       8.725  23.071  56.283  1.00  0.00    -0.269 NA
HETATM   22  C   UNL     1       8.027  23.916  57.062  1.00  0.00     0.159 A 
HETATM   23  C   UNL     1       7.291  24.985  56.571  1.00  0.00     0.146 A 
HETATM   24  F   UNL     1       6.526  25.645  57.447  1.00  0.00    -0.204 F 
ENDBRANCH   1  14
TORSDOF 2
ENDMDL
MODEL 4
REMARK VINA RESULT:      -7.5      2.541      6.497
REMARK  2 active torsions:
REMARK  status: ('A' for Active; 'I' for Inactive)
REMARK    1  A    between atoms: N_10  and  S_11 
REMARK    2  A    between atoms: S_11  and  C_14 
ROOT
HETATM    1  S   UNL     1       5.751  27.654  53.838  1.00  0.00     0.245 S 
HETATM    2  O   UNL     1       6.499  28.315  52.787  1.00  0.00    -0.206 OA
HETATM    3  O   UNL     1       4.396  27.225  53.587  1.00  0.00    -0.206 OA
ENDROOT
BRANCH   1   4
HETATM    4  N   UNL     1       6.674  26.227  54.258  1.00  0.00    -0.201 NA
HETATM    5  C   UNL     1       6.629  25.110  53.203  1.00  0.00     0.096 C 
HETATM    6  C   UNL     1       6.468  25.573  51.753  1.00  0.00     0.029 C 
HETATM    7  C   UNL     1       7.964  24.327  53.267  1.00  0.00     0.252 C 
HETATM    8  N   UNL     1       7.958  23.196  54.259  1.00  0.00    -0.074 N 
HETATM    9  H   UNL     1       7.572  22.360  53.798  1.00  0.00     0.277 HD
HETATM   10  H   UNL     1       8.943  22.958  54.445  1.00  0.00     0.277 HD
HETATM   11  C   UNL     1       7.262  23.357  55.564  1.00  0.00     0.233 C 
HETATM   12  C   UNL     1       7.423  24.746  56.144  1.00  0.00     0.043 C 
HETATM   13  C   UNL     1       6.360  25.713  55.627  1.00  0.00     0.109 C 
ENDBRANCH   1   4
BRANCH   1  14
HETATM   14  C   UNL     1       5.826  28.743  55.261  1.00  0.00     0.088 A 
HETATM   15  C   UNL     1       4.575  29.058  55.828  1.00  0.00     0.026 A 
HETATM   16  C   UNL     1       4.494  29.729  57.042  1.00  0.00     0.002 A 
HETATM   17  C   UNL     1       5.660  30.072  57.713  1.00  0.00     0.014 A 
HETATM   18  C   UNL     1       6.920  29.780  57.166  1.00  0.00    -0.004 A 
HETATM   19  C   UNL     1       8.076  30.144  57.865  1.00  0.00     0.128 A 
HETATM   20  C   UNL     1       7.044  29.125  55.912  1.00  0.00     0.038 A 
HETATM   21  N   UNL     1       9.337  29.947  57.427  1.00  0.00    -0.269 NA
HETATM   22  C   UNL     1       9.457  29.361  56.223  1.00  0.00     0.159 A 
HETATM   23  C   UNL     1       8.375  28.961  55.450  1.00  0.00     0.146 A 
HETATM   24  F   UNL     1       8.643  28.534  54.211  1.00  0.00    -0.204 F 
ENDBRANCH   1  14
TORSDOF 2
ENDMDL
MODEL 5
REMARK VINA RESULT:      -7.5      2.727      3.845
REMARK  2 active torsions:
REMARK  status: ('A' for Active; 'I' for Inactive)
REMARK    1  A    between atoms: N_10  and  S_11 
REMARK    2  A    between atoms: S_11  and  C_14 
ROOT
HETATM    1  S   UNL     1       6.028  26.407  55.582  1.00  0.00     0.245 S 
HETATM    2  O   UNL     1       7.262  27.003  56.056  1.00  0.00    -0.206 OA
HETATM    3  O   UNL     1       4.963  26.132  56.516  1.00  0.00    -0.206 OA
ENDROOT
BRANCH   1   4
HETATM    4  N   UNL     1       5.392  27.513  54.385  1.00  0.00    -0.201 NA
HETATM    5  C   UNL     1       6.442  28.448  53.763  1.00  0.00     0.096 C 
HETATM    6  C   UNL     1       7.862  27.882  53.670  1.00  0.00     0.029 C 
HETATM    7  C   UNL     1       6.005  28.776  52.314  1.00  0.00     0.252 C 
HETATM    8  N   UNL     1       5.091  29.966  52.210  1.00  0.00    -0.074 N 
HETATM    9  H   UNL     1       5.670  30.817  52.151  1.00  0.00     0.277 HD
HETATM   10  H   UNL     1       4.628  29.905  51.291  1.00  0.00     0.277 HD
HETATM   11  C   UNL     1       4.049  30.195  53.246  1.00  0.00     0.233 C 
HETATM   12  C   UNL     1       3.410  28.909  53.724  1.00  0.00     0.043 C 
HETATM   13  C   UNL     1       4.193  28.267  54.867  1.00  0.00     0.109 C 
ENDBRANCH   1   4
BRANCH   1  14
HETATM   14  C   UNL     1       6.503  24.921  54.696  1.00  0.00     0.088 A 
HETATM   15  C   UNL     1       6.188  24.927  53.323  1.00  0.00     0.026 A 
HETATM   16  C   UNL     1       6.667  23.932  52.480  1.00  0.00     0.002 A 
HETATM   17  C   UNL     1       7.483  22.934  52.994  1.00  0.00     0.014 A 
HETATM   18  C   UNL     1       7.805  22.898  54.359  1.00  0.00    -0.004 A 
HETATM   19  C   UNL     1       8.627  21.875  54.848  1.00  0.00     0.128 A 
HETATM   20  C   UNL     1       7.308  23.877  55.260  1.00  0.00     0.038 A 
HETATM   21  N   UNL     1       8.976  21.717  56.141  1.00  0.00    -0.269 NA
HETATM   22  C   UNL     1       8.476  22.621  57.001  1.00  0.00     0.159 A 
HETATM   23  C   UNL     1       7.654  23.673  56.620  1.00  0.00     0.146 A 
HETATM   24  F   UNL     1       7.110  24.401  57.602  1.00  0.00    -0.204 F 
ENDBRANCH   1  14
TORSDOF 2
ENDMDL
MODEL 6
REMARK VINA RESULT:      -7.5      2.674      3.687
REMARK  2 active torsions:
REMARK  status: ('A' for Active; 'I' for Inactive)
REMARK    1  A    between atoms: N_10  and  S_11 
REMARK    2  A    between atoms: S_11  and  C_14 
ROOT
HETATM    1  S   UNL     1       7.351  28.008  54.107  1.00  0.00     0.245 S 
HETATM    2  O   UNL     1       6.763  28.476  52.868  1.00  0.00    -0.206 OA
HETATM    3  O   UNL     1       8.683  28.429  54.469  1.00  0.00    -0.206 OA
ENDROOT
BRANCH   1   4
HETATM    4  N   UNL     1       6.276  28.546  55.380  1.00  0.00    -0.201 NA
HETATM    5  C   UNL     1       4.831  28.800  54.923  1.00  0.00     0.096 C 
HETATM    6  C   UNL     1       4.340  27.933  53.761  1.00  0.00     0.029 C 
HETATM    7  C   UNL     1       3.886  28.510  56.116  1.00  0.00     0.252 C 
HETATM    8  N   UNL     1       3.661  29.694  57.015  1.00  0.00    -0.074 N 
HETATM    9  H   UNL     1       2.885  30.253  56.630  1.00  0.00     0.277 HD
HETATM   10  H   UNL     1       3.296  29.327  57.906  1.00  0.00     0.277 HD
HETATM   11  C   UNL     1       4.783  30.623  57.316  1.00  0.00     0.233 C 
HETATM   12  C   UNL     1       6.104  29.904  57.487  1.00  0.00     0.043 C 
HETATM   13  C   UNL     1       6.825  29.700  56.156  1.00  0.00     0.109 C 
ENDBRANCH   1   4
BRANCH   1  14
HETATM   14  C   UNL     1       7.233  26.218  54.068  1.00  0.00     0.088 A 
HETATM   15  C   UNL     1       6.851  25.680  52.823  1.00  0.00     0.026 A 
HETATM   16  C   UNL     1       6.907  24.311  52.594  1.00  0.00     0.002 A 
HETATM   17  C   UNL     1       7.365  23.467  53.597  1.00  0.00     0.014 A 
HETATM   18  C   UNL     1       7.743  23.975  54.850  1.00  0.00    -0.004 A 
HETATM   19  C   UNL     1       8.195  23.098  55.842  1.00  0.00     0.128 A 
HETATM   20  C   UNL     1       7.668  25.365  55.134  1.00  0.00     0.038 A 
HETATM   21  N   UNL     1       8.552  23.463  57.091  1.00  0.00    -0.269 NA
HETATM   22  C   UNL     1       8.446  24.773  57.374  1.00  0.00     0.159 A 
HETATM   23  C   UNL     1       8.010  25.725  56.463  1.00  0.00     0.146 A 
HETATM   24  F   UNL     1       7.810  26.962  56.931  1.00  0.00    -0.204 F 
ENDBRANCH   1  14
TORSDOF 2
ENDMDL
MODEL 7
REMARK VINA RESULT:      -7.4      2.561      6.567
REMARK  2 active torsions:
REMARK  status: ('A' for Active; 'I' for Inactive)
REMARK    1  A    between atoms: N_10  and  S_11 
REMARK    2  A    between atoms: S_11  and  C_14 
ROOT
HETATM    1  S   UNL     1       7.385  24.356  55.686  1.00  0.00     0.245 S 
HETATM    2  O   UNL     1       6.527  24.224  56.847  1.00  0.00    -0.206 OA
HETATM    3  O   UNL     1       8.689  24.958  55.827  1.00  0.00    -0.206 OA
ENDROOT
BRANCH   1   4
HETATM    4  N   UNL     1       7.631  22.730  55.086  1.00  0.00    -0.201 NA
HETATM    5  C   UNL     1       8.472  21.834  56.009  1.00  0.00     0.096 C 
HETATM    6  C   UNL     1       8.366  22.139  57.506  1.00  0.00     0.029 C 
HETATM    7  C   UNL     1       8.003  20.369  55.826  1.00  0.00     0.252 C 
HETATM    8  N   UNL     1       8.706  19.641  54.713  1.00  0.00    -0.074 N 
HETATM    9  H   UNL     1       9.578  19.239  55.087  1.00  0.00     0.277 HD
HETATM   10  H   UNL     1       8.124  18.823  54.478  1.00  0.00     0.277 HD
HETATM   11  C   UNL     1       9.039  20.356  53.451  1.00  0.00     0.233 C 
HETATM   12  C   UNL     1       7.957  21.326  53.028  1.00  0.00     0.043 C 
HETATM   13  C   UNL     1       8.128  22.698  53.676  1.00  0.00     0.109 C 
ENDBRANCH   1   4
BRANCH   1  14
HETATM   14  C   UNL     1       6.414  25.212  54.445  1.00  0.00     0.088 A 
HETATM   15  C   UNL     1       6.007  24.412  53.359  1.00  0.00     0.026 A 
HETATM   16  C   UNL     1       5.094  24.890  52.428  1.00  0.00     0.002 A 
HETATM   17  C   UNL     1       4.560  26.162  52.583  1.00  0.00     0.014 A 
HETATM   18  C   UNL     1       4.955  26.985  53.649  1.00  0.00    -0.004 A 
HETATM   19  C   UNL     1       4.403  28.265  53.774  1.00  0.00     0.128 A 
HETATM   20  C   UNL     1       5.912  26.546  54.603  1.00  0.00     0.038 A 
HETATM   21  N   UNL     1       4.729  29.155  54.734  1.00  0.00    -0.269 NA
HETATM   22  C   UNL     1       5.661  28.755  55.616  1.00  0.00     0.159 A 
HETATM   23  C   UNL     1       6.269  27.508  55.581  1.00  0.00     0.146 A 
HETATM   24  F   UNL     1       7.286  27.308  56.427  1.00  0.00    -0.204 F 
ENDBRANCH   1  14
TORSDOF 2
ENDMDL
MODEL 8
REMARK VINA RESULT:      -7.3      2.872      3.707
REMARK  2 active torsions:
REMARK  status: ('A' for Active; 'I' for Inactive)
REMARK    1  A    between atoms: N_10  and  S_11 
REMARK    2  A    between atoms: S_11  and  C_14 
ROOT
HETATM    1  S   UNL     1       6.798  28.131  56.360  1.00  0.00     0.245 S 
HETATM    2  O   UNL     1       5.629  27.952  57.197  1.00  0.00    -0.206 OA
HETATM    3  O   UNL     1       6.666  28.780  55.077  1.00  0.00    -0.206 OA
ENDROOT
BRANCH   1   4
HETATM    4  N   UNL     1       7.922  29.084  57.305  1.00  0.00    -0.201 NA
HETATM    5  C   UNL     1       7.374  30.447  57.756  1.00  0.00     0.096 C 
HETATM    6  C   UNL     1       5.862  30.511  57.988  1.00  0.00     0.029 C 
HETATM    7  C   UNL     1       8.041  30.818  59.104  1.00  0.00     0.252 C 
HETATM    8  N   UNL     1       9.346  31.550  58.956  1.00  0.00    -0.074 N 
HETATM    9  H   UNL     1       9.146  32.557  58.861  1.00  0.00     0.277 HD
HETATM   10  H   UNL     1       9.837  31.469  59.858  1.00  0.00     0.277 HD
HETATM   11  C   UNL     1      10.292  31.170  57.872  1.00  0.00     0.233 C 
HETATM   12  C   UNL     1      10.341  29.676  57.639  1.00  0.00     0.043 C 
HETATM   13  C   UNL     1       9.265  29.210  56.660  1.00  0.00     0.109 C 
ENDBRANCH   1   4
BRANCH   1  14
HETATM   14  C   UNL     1       7.536  26.506  56.182  1.00  0.00     0.088 A 
HETATM   15  C   UNL     1       8.322  26.092  57.277  1.00  0.00     0.026 A 
HETATM   16  C   UNL     1       8.792  24.788  57.361  1.00  0.00     0.002 A 
HETATM   17  C   UNL     1       8.465  23.877  56.365  1.00  0.00     0.014 A 
HETATM   18  C   UNL     1       7.693  24.264  55.259  1.00  0.00    -0.004 A 
HETATM   19  C   UNL     1       7.385  23.324  54.269  1.00  0.00     0.128 A 
HETATM   20  C   UNL     1       7.221  25.597  55.120  1.00  0.00     0.038 A 
HETATM   21  N   UNL     1       6.682  23.585  53.148  1.00  0.00    -0.269 NA
HETATM   22  C   UNL     1       6.267  24.855  52.996  1.00  0.00     0.159 A 
HETATM   23  C   UNL     1       6.517  25.862  53.917  1.00  0.00     0.146 A 
HETATM   24  F   UNL     1       6.177  27.106  53.560  1.00  0.00    -0.204 F 
ENDBRANCH   1  14
TORSDOF 2
ENDMDL
MODEL 9
REMARK VINA RESULT:      -7.3      2.549      6.824
REMARK  2 active torsions:
REMARK  status: ('A' for Active; 'I' for Inactive)
REMARK    1  A    between atoms: N_10  and  S_11 
REMARK    2  A    between atoms: S_11  and  C_14 
ROOT
HETATM    1  S   UNL     1       5.933  26.168  55.536  1.00  0.00     0.245 S 
HETATM    2  O   UNL     1       5.520  26.814  54.306  1.00  0.00    -0.206 OA
HETATM    3  O   UNL     1       4.958  25.470  56.339  1.00  0.00    -0.206 OA
ENDROOT
BRANCH   1   4
HETATM    4  N   UNL     1       7.152  24.999  55.075  1.00  0.00    -0.201 NA
HETATM    5  C   UNL     1       6.735  24.068  53.925  1.00  0.00     0.096 C 
HETATM    6  C   UNL     1       5.759  24.666  52.908  1.00  0.00     0.029 C 
HETATM    7  C   UNL     1       8.006  23.672  53.134  1.00  0.00     0.252 C 
HETATM    8  N   UNL     1       8.705  22.456  53.676  1.00  0.00    -0.074 N 
HETATM    9  H   UNL     1       8.273  21.619  53.259  1.00  0.00     0.277 HD
HETATM   10  H   UNL     1       9.663  22.469  53.295  1.00  0.00     0.277 HD
HETATM   11  C   UNL     1       8.790  22.241  55.146  1.00  0.00     0.233 C 
HETATM   12  C   UNL     1       9.010  23.528  55.911  1.00  0.00     0.043 C 
HETATM   13  C   UNL     1       7.697  24.235  56.240  1.00  0.00     0.109 C 
ENDBRANCH   1   4
BRANCH   1  14
HETATM   14  C   UNL     1       6.775  27.424  56.499  1.00  0.00     0.088 A 
HETATM   15  C   UNL     1       8.157  27.207  56.673  1.00  0.00     0.026 A 
HETATM   16  C   UNL     1       8.966  28.190  57.228  1.00  0.00     0.002 A 
HETATM   17  C   UNL     1       8.410  29.408  57.595  1.00  0.00     0.014 A 
HETATM   18  C   UNL     1       7.035  29.648  57.442  1.00  0.00    -0.004 A 
HETATM   19  C   UNL     1       6.504  30.885  57.827  1.00  0.00     0.128 A 
HETATM   20  C   UNL     1       6.169  28.657  56.910  1.00  0.00     0.038 A 
HETATM   21  N   UNL     1       5.199  31.218  57.760  1.00  0.00    -0.269 NA
HETATM   22  C   UNL     1       4.372  30.268  57.291  1.00  0.00     0.159 A 
HETATM   23  C   UNL     1       4.796  29.011  56.883  1.00  0.00     0.146 A 
HETATM   24  F   UNL     1       3.844  28.119  56.586  1.00  0.00    -0.204 F 
ENDBRANCH   1  14
TORSDOF 2
ENDMDL
MODEL 10
REMARK VINA RESULT:      -7.3      2.025      6.476
REMARK  2 active torsions:
REMARK  status: ('A' for Active; 'I' for Inactive)
REMARK    1  A    between atoms: N_10  and  S_11 
REMARK    2  A    between atoms: S_11  and  C_14 
ROOT
HETATM    1  S   UNL     1       6.877  25.701  54.354  1.00  0.00     0.245 S 
HETATM    2  O   UNL     1       7.655  26.199  53.237  1.00  0.00    -0.206 OA
HETATM    3  O   UNL     1       5.535  25.220  54.131  1.00  0.00    -0.206 OA
ENDROOT
BRANCH   1   4
HETATM    4  N   UNL     1       7.798  24.371  55.023  1.00  0.00    -0.201 NA
HETATM    5  C   UNL     1       7.881  23.137  54.111  1.00  0.00     0.096 C 
HETATM    6  C   UNL     1       7.841  23.419  52.607  1.00  0.00     0.029 C 
HETATM    7  C   UNL     1       9.226  22.419  54.386  1.00  0.00     0.252 C 
HETATM    8  N   UNL     1       9.160  21.414  55.503  1.00  0.00    -0.074 N 
HETATM    9  H   UNL     1       8.843  20.514  55.114  1.00  0.00     0.277 HD
HETATM   10  H   UNL     1      10.131  21.237  55.802  1.00  0.00     0.277 HD
HETATM   11  C   UNL     1       8.343  21.700  56.713  1.00  0.00     0.233 C 
HETATM   12  C   UNL     1       8.412  23.153  57.133  1.00  0.00     0.043 C 
HETATM   13  C   UNL     1       7.374  24.010  56.411  1.00  0.00     0.109 C 
ENDBRANCH   1   4
BRANCH   1  14
HETATM   14  C   UNL     1       6.894  27.001  55.590  1.00  0.00     0.088 A 
HETATM   15  C   UNL     1       7.835  26.820  56.623  1.00  0.00     0.026 A 
HETATM   16  C   UNL     1       8.092  27.835  57.536  1.00  0.00     0.002 A 
HETATM   17  C   UNL     1       7.429  29.049  57.414  1.00  0.00     0.014 A 
HETATM   18  C   UNL     1       6.480  29.254  56.401  1.00  0.00    -0.004 A 
HETATM   19  C   UNL     1       5.825  30.487  56.308  1.00  0.00     0.128 A 
HETATM   20  C   UNL     1       6.165  28.229  55.469  1.00  0.00     0.038 A 
HETATM   21  N   UNL     1       4.873  30.788  55.401  1.00  0.00    -0.269 NA
HETATM   22  C   UNL     1       4.546  29.808  54.542  1.00  0.00     0.159 A 
HETATM   23  C   UNL     1       5.135  28.551  54.548  1.00  0.00     0.146 A 
HETATM   24  F   UNL     1       4.603  27.630  53.736  1.00  0.00    -0.204 F 
ENDBRANCH   1  14
TORSDOF 2
ENDMDL
