MODEL 1
REMARK VINA RESULT:     -10.5      0.000      0.000
REMARK  3 active torsions:
REMARK  status: ('A' for Active; 'I' for Inactive)
REMARK    1  A    between atoms: C_5  and  C_6 
REMARK    2  A    between atoms: C_10  and  C_11 
REMARK    3  A    between atoms: C_24  and  N_25 
ROOT
HETATM    1  C   UNL     1       6.836  25.475  54.659  1.00  0.00     0.070 A 
HETATM    2  N   UNL     1       5.689  25.864  54.063  1.00  0.00    -0.228 NA
HETATM    3  C   UNL     1       5.246  27.113  54.172  1.00  0.00     0.165 A 
HETATM    4  C   UNL     1       5.940  28.088  54.896  1.00  0.00     0.063 A 
HETATM    5  C   UNL     1       7.136  27.680  55.576  1.00  0.00    -0.006 A 
HETATM    6  C   UNL     1       7.565  26.354  55.440  1.00  0.00     0.046 A 
HETATM    7  N   UNL     1       4.115  27.357  53.531  1.00  0.00    -0.222 NA
HETATM    8  C   UNL     1       3.630  28.593  53.577  1.00  0.00     0.237 A 
HETATM    9  N   UNL     1       4.196  29.625  54.195  1.00  0.00    -0.229 NA
HETATM   10  C   UNL     1       5.343  29.368  54.833  1.00  0.00     0.117 A 
ENDROOT
BRANCH   5  11
HETATM   11  C   UNL     1       7.954  28.576  56.413  1.00  0.00    -0.022 A 
HETATM   12  C   UNL     1       7.638  28.790  57.768  1.00  0.00     0.052 A 
HETATM   13  C   UNL     1       8.429  29.653  58.499  1.00  0.00     0.105 A 
HETATM   14  C   UNL     1       9.520  30.280  57.947  1.00  0.00     0.105 A 
HETATM   15  O   UNL     1       8.241  29.993  59.802  1.00  0.00    -0.323 OA
HETATM   16  O   UNL     1      10.155  31.092  58.833  1.00  0.00    -0.323 OA
HETATM   17  C   UNL     1       9.885  30.079  56.636  1.00  0.00     0.040 A 
HETATM   18  C   UNL     1       9.317  30.933  59.997  1.00  0.00     0.352 A 
HETATM   19  C   UNL     1       9.092  29.221  55.865  1.00  0.00     0.015 A 
ENDBRANCH   5  11
BRANCH  10  20
HETATM   20  N   UNL     1       5.878  30.495  55.454  1.00  0.00    -0.286 NA
HETATM   21  H   UNL     1       5.537  31.314  54.957  1.00  0.00     0.125 HD
HETATM   22  H   UNL     1       6.889  30.473  55.503  1.00  0.00     0.125 HD
ENDBRANCH  10  20
BRANCH   1  23
HETATM   23  C   UNL     1       7.249  24.079  54.397  1.00  0.00    -0.007 A 
HETATM   24  C   UNL     1       7.429  23.142  55.431  1.00  0.00     0.014 A 
HETATM   25  C   UNL     1       7.861  21.835  55.168  1.00  0.00     0.007 A 
HETATM   26  C   UNL     1       8.137  21.428  53.860  1.00  0.00    -0.062 A 
HETATM   27  C   UNL     1       8.602  20.034  53.567  1.00  0.00     0.048 C 
HETATM   28  C   UNL     1       7.951  22.340  52.819  1.00  0.00     0.007 A 
HETATM   29  C   UNL     1       7.520  23.644  53.086  1.00  0.00     0.014 A 
ENDBRANCH   1  23
TORSDOF 3
ENDMDL
MODEL 2
REMARK VINA RESULT:      -9.5      3.265      5.220
REMARK  3 active torsions:
REMARK  status: ('A' for Active; 'I' for Inactive)
REMARK    1  A    between atoms: C_5  and  C_6 
REMARK    2  A    between atoms: C_10  and  C_11 
REMARK    3  A    between atoms: C_24  and  N_25 
ROOT
HETATM    1  C   UNL     1       7.347  25.423  55.557  1.00  0.00     0.070 A 
HETATM    2  N   UNL     1       7.801  26.093  56.638  1.00  0.00    -0.228 NA
HETATM    3  C   UNL     1       7.532  27.383  56.812  1.00  0.00     0.165 A 
HETATM    4  C   UNL     1       6.764  28.114  55.898  1.00  0.00     0.063 A 
HETATM    5  C   UNL     1       6.314  27.430  54.719  1.00  0.00    -0.006 A 
HETATM    6  C   UNL     1       6.623  26.072  54.572  1.00  0.00     0.046 A 
HETATM    7  N   UNL     1       8.034  27.909  57.918  1.00  0.00    -0.222 NA
HETATM    8  C   UNL     1       7.779  29.190  58.165  1.00  0.00     0.237 A 
HETATM    9  N   UNL     1       7.040  29.994  57.409  1.00  0.00    -0.229 NA
HETATM   10  C   UNL     1       6.532  29.449  56.297  1.00  0.00     0.117 A 
ENDROOT
BRANCH   5  11
HETATM   11  C   UNL     1       5.533  28.069  53.644  1.00  0.00    -0.022 A 
HETATM   12  C   UNL     1       6.171  28.642  52.529  1.00  0.00     0.052 A 
HETATM   13  C   UNL     1       5.392  29.241  51.562  1.00  0.00     0.105 A 
HETATM   14  C   UNL     1       4.020  29.269  51.649  1.00  0.00     0.105 A 
HETATM   15  O   UNL     1       5.851  29.868  50.445  1.00  0.00    -0.323 OA
HETATM   16  O   UNL     1       3.446  29.915  50.600  1.00  0.00    -0.323 OA
HETATM   17  C   UNL     1       3.351  28.697  52.707  1.00  0.00     0.040 A 
HETATM   18  C   UNL     1       4.615  30.323  49.859  1.00  0.00     0.352 A 
HETATM   19  C   UNL     1       4.117  28.095  53.711  1.00  0.00     0.015 A 
ENDBRANCH   5  11
BRANCH  10  20
HETATM   20  N   UNL     1       5.769  30.349  55.557  1.00  0.00    -0.286 NA
HETATM   21  H   UNL     1       6.289  30.580  54.715  1.00  0.00     0.125 HD
HETATM   22  H   UNL     1       5.515  31.175  56.085  1.00  0.00     0.125 HD
ENDBRANCH  10  20
BRANCH   1  23
HETATM   23  C   UNL     1       7.658  23.978  55.525  1.00  0.00    -0.007 A 
HETATM   24  C   UNL     1       8.132  23.286  56.654  1.00  0.00     0.014 A 
HETATM   25  C   UNL     1       8.461  21.925  56.595  1.00  0.00     0.007 A 
HETATM   26  C   UNL     1       8.336  21.217  55.397  1.00  0.00    -0.062 A 
HETATM   27  C   UNL     1       8.687  19.761  55.321  1.00  0.00     0.048 C 
HETATM   28  C   UNL     1       7.854  21.883  54.269  1.00  0.00     0.007 A 
HETATM   29  C   UNL     1       7.527  23.242  54.333  1.00  0.00     0.014 A 
ENDBRANCH   1  23
TORSDOF 3
ENDMDL
MODEL 3
REMARK VINA RESULT:      -9.5      2.306      3.158
REMARK  3 active torsions:
REMARK  status: ('A' for Active; 'I' for Inactive)
REMARK    1  A    between atoms: C_5  and  C_6 
REMARK    2  A    between atoms: C_10  and  C_11 
REMARK    3  A    between atoms: C_24  and  N_25 
ROOT
HETATM    1  C   UNL     1       6.555  25.165  53.612  1.00  0.00     0.070 A 
HETATM    2  N   UNL     1       6.232  25.374  52.318  1.00  0.00    -0.228 NA
HETATM    3  C   UNL     1       5.760  26.547  51.908  1.00  0.00     0.165 A 
HETATM    4  C   UNL     1       5.578  27.624  52.782  1.00  0.00     0.063 A 
HETATM    5  C   UNL     1       5.871  27.405  54.170  1.00  0.00    -0.006 A 
HETATM    6  C   UNL     1       6.362  26.152  54.562  1.00  0.00     0.046 A 
HETATM    7  N   UNL     1       5.493  26.615  50.614  1.00  0.00    -0.222 NA
HETATM    8  C   UNL     1       5.042  27.769  50.133  1.00  0.00     0.237 A 
HETATM    9  N   UNL     1       4.855  28.881  50.835  1.00  0.00    -0.229 NA
HETATM   10  C   UNL     1       5.134  28.803  52.141  1.00  0.00     0.117 A 
ENDROOT
BRANCH   5  11
HETATM   11  C   UNL     1       5.692  28.423  55.221  1.00  0.00    -0.022 A 
HETATM   12  C   UNL     1       4.412  28.733  55.717  1.00  0.00     0.052 A 
HETATM   13  C   UNL     1       4.303  29.707  56.688  1.00  0.00     0.105 A 
HETATM   14  C   UNL     1       5.405  30.355  57.194  1.00  0.00     0.105 A 
HETATM   15  O   UNL     1       3.142  30.148  57.246  1.00  0.00    -0.323 OA
HETATM   16  O   UNL     1       5.077  31.281  58.133  1.00  0.00    -0.323 OA
HETATM   17  C   UNL     1       6.677  30.063  56.761  1.00  0.00     0.040 A 
HETATM   18  C   UNL     1       3.638  31.170  58.134  1.00  0.00     0.352 A 
HETATM   19  C   UNL     1       6.818  29.090  55.765  1.00  0.00     0.015 A 
ENDBRANCH   5  11
BRANCH  10  20
HETATM   20  N   UNL     1       4.916  30.005  52.811  1.00  0.00    -0.286 NA
HETATM   21  H   UNL     1       3.931  30.050  53.056  1.00  0.00     0.125 HD
HETATM   22  H   UNL     1       5.212  30.811  52.275  1.00  0.00     0.125 HD
ENDBRANCH  10  20
BRANCH   1  23
HETATM   23  C   UNL     1       7.137  23.839  53.918  1.00  0.00    -0.007 A 
HETATM   24  C   UNL     1       7.620  22.981  52.914  1.00  0.00     0.014 A 
HETATM   25  C   UNL     1       8.129  21.711  53.218  1.00  0.00     0.007 A 
HETATM   26  C   UNL     1       8.161  21.258  54.539  1.00  0.00    -0.062 A 
HETATM   27  C   UNL     1       8.701  19.901  54.876  1.00  0.00     0.048 C 
HETATM   28  C   UNL     1       7.698  22.101  55.551  1.00  0.00     0.007 A 
HETATM   29  C   UNL     1       7.190  23.368  55.243  1.00  0.00     0.014 A 
ENDBRANCH   1  23
TORSDOF 3
ENDMDL
MODEL 4
REMARK VINA RESULT:      -9.2      4.336      6.385
REMARK  3 active torsions:
REMARK  status: ('A' for Active; 'I' for Inactive)
REMARK    1  A    between atoms: C_5  and  C_6 
REMARK    2  A    between atoms: C_10  and  C_11 
REMARK    3  A    between atoms: C_24  and  N_25 
ROOT
HETATM    1  C   UNL     1       6.363  24.905  53.719  1.00  0.00     0.070 A 
HETATM    2  N   UNL     1       6.006  25.621  54.807  1.00  0.00    -0.228 NA
HETATM    3  C   UNL     1       5.311  26.749  54.691  1.00  0.00     0.165 A 
HETATM    4  C   UNL     1       4.907  27.250  53.449  1.00  0.00     0.063 A 
HETATM    5  C   UNL     1       5.319  26.528  52.280  1.00  0.00    -0.006 A 
HETATM    6  C   UNL     1       6.054  25.347  52.445  1.00  0.00     0.046 A 
HETATM    7  N   UNL     1       5.023  27.342  55.838  1.00  0.00    -0.222 NA
HETATM    8  C   UNL     1       4.307  28.461  55.795  1.00  0.00     0.237 A 
HETATM    9  N   UNL     1       3.828  29.032  54.695  1.00  0.00    -0.229 NA
HETATM   10  C   UNL     1       4.119  28.420  53.542  1.00  0.00     0.117 A 
ENDROOT
BRANCH   5  11
HETATM   11  C   UNL     1       5.011  26.949  50.900  1.00  0.00    -0.022 A 
HETATM   12  C   UNL     1       5.397  28.216  50.427  1.00  0.00     0.052 A 
HETATM   13  C   UNL     1       5.067  28.563  49.133  1.00  0.00     0.105 A 
HETATM   14  C   UNL     1       4.400  27.699  48.298  1.00  0.00     0.105 A 
HETATM   15  O   UNL     1       5.335  29.755  48.536  1.00  0.00    -0.323 OA
HETATM   16  O   UNL     1       4.165  28.238  47.073  1.00  0.00    -0.323 OA
HETATM   17  C   UNL     1       4.027  26.439  48.708  1.00  0.00     0.040 A 
HETATM   18  C   UNL     1       4.729  29.555  47.243  1.00  0.00     0.352 A 
HETATM   19  C   UNL     1       4.335  26.065  50.021  1.00  0.00     0.015 A 
ENDBRANCH   5  11
BRANCH  10  20
HETATM   20  N   UNL     1       3.582  29.074  52.436  1.00  0.00    -0.286 NA
HETATM   21  H   UNL     1       4.282  29.726  52.090  1.00  0.00     0.125 HD
HETATM   22  H   UNL     1       2.703  29.533  52.639  1.00  0.00     0.125 HD
ENDBRANCH  10  20
BRANCH   1  23
HETATM   23  C   UNL     1       7.070  23.636  53.995  1.00  0.00    -0.007 A 
HETATM   24  C   UNL     1       7.594  22.829  52.969  1.00  0.00     0.014 A 
HETATM   25  C   UNL     1       8.224  21.609  53.245  1.00  0.00     0.007 A 
HETATM   26  C   UNL     1       8.340  21.153  54.561  1.00  0.00    -0.062 A 
HETATM   27  C   UNL     1       9.011  19.848  54.869  1.00  0.00     0.048 C 
HETATM   28  C   UNL     1       7.839  21.946  55.594  1.00  0.00     0.007 A 
HETATM   29  C   UNL     1       7.209  23.164  55.313  1.00  0.00     0.014 A 
ENDBRANCH   1  23
TORSDOF 3
ENDMDL
MODEL 5
REMARK VINA RESULT:      -9.2      2.568      4.873
REMARK  3 active torsions:
REMARK  status: ('A' for Active; 'I' for Inactive)
REMARK    1  A    between atoms: C_5  and  C_6 
REMARK    2  A    between atoms: C_10  and  C_11 
REMARK    3  A    between atoms: C_24  and  N_25 
ROOT
HETATM    1  C   UNL     1       6.299  26.640  53.106  1.00  0.00     0.070 A 
HETATM    2  N   UNL     1       6.448  25.326  53.377  1.00  0.00    -0.228 NA
HETATM    3  C   UNL     1       6.953  24.915  54.536  1.00  0.00     0.165 A 
HETATM    4  C   UNL     1       7.350  25.811  55.535  1.00  0.00     0.063 A 
HETATM    5  C   UNL     1       7.245  27.212  55.245  1.00  0.00    -0.006 A 
HETATM    6  C   UNL     1       6.711  27.603  54.010  1.00  0.00     0.046 A 
HETATM    7  N   UNL     1       7.034  23.601  54.670  1.00  0.00    -0.222 NA
HETATM    8  C   UNL     1       7.506  23.123  55.817  1.00  0.00     0.237 A 
HETATM    9  N   UNL     1       7.887  23.850  56.862  1.00  0.00    -0.229 NA
HETATM   10  C   UNL     1       7.794  25.177  56.718  1.00  0.00     0.117 A 
ENDROOT
BRANCH   5  11
HETATM   11  C   UNL     1       7.659  28.279  56.174  1.00  0.00    -0.022 A 
HETATM   12  C   UNL     1       8.937  28.861  56.083  1.00  0.00     0.052 A 
HETATM   13  C   UNL     1       9.278  29.844  56.990  1.00  0.00     0.105 A 
HETATM   14  C   UNL     1       8.398  30.280  57.952  1.00  0.00     0.105 A 
HETATM   15  O   UNL     1      10.478  30.480  57.060  1.00  0.00    -0.323 OA
HETATM   16  O   UNL     1       8.934  31.244  58.746  1.00  0.00    -0.323 OA
HETATM   17  C   UNL     1       7.129  29.761  58.060  1.00  0.00     0.040 A 
HETATM   18  C   UNL     1      10.265  31.340  58.198  1.00  0.00     0.352 A 
HETATM   19  C   UNL     1       6.760  28.751  57.164  1.00  0.00     0.015 A 
ENDBRANCH   5  11
BRANCH  10  20
HETATM   20  N   UNL     1       8.208  25.872  57.852  1.00  0.00    -0.286 NA
HETATM   21  H   UNL     1       9.210  25.735  57.952  1.00  0.00     0.125 HD
HETATM   22  H   UNL     1       7.702  25.598  58.685  1.00  0.00     0.125 HD
ENDBRANCH  10  20
BRANCH   1  23
HETATM   23  C   UNL     1       5.659  26.956  51.811  1.00  0.00    -0.007 A 
HETATM   24  C   UNL     1       5.235  25.955  50.918  1.00  0.00     0.014 A 
HETATM   25  C   UNL     1       4.668  26.272  49.677  1.00  0.00     0.007 A 
HETATM   26  C   UNL     1       4.517  27.605  49.286  1.00  0.00    -0.062 A 
HETATM   27  C   UNL     1       3.913  27.957  47.960  1.00  0.00     0.048 C 
HETATM   28  C   UNL     1       4.919  28.613  50.164  1.00  0.00     0.007 A 
HETATM   29  C   UNL     1       5.486  28.291  51.403  1.00  0.00     0.014 A 
ENDBRANCH   1  23
TORSDOF 3
ENDMDL
MODEL 6
REMARK VINA RESULT:      -9.1      3.620      7.188
REMARK  3 active torsions:
REMARK  status: ('A' for Active; 'I' for Inactive)
REMARK    1  A    between atoms: C_5  and  C_6 
REMARK    2  A    between atoms: C_10  and  C_11 
REMARK    3  A    between atoms: C_24  and  N_25 
ROOT
HETATM    1  C   UNL     1       5.562  27.002  53.603  1.00  0.00     0.070 A 
HETATM    2  N   UNL     1       5.800  27.798  54.666  1.00  0.00    -0.228 NA
HETATM    3  C   UNL     1       6.568  27.392  55.673  1.00  0.00     0.165 A 
HETATM    4  C   UNL     1       7.173  26.130  55.685  1.00  0.00     0.063 A 
HETATM    5  C   UNL     1       6.891  25.252  54.586  1.00  0.00    -0.006 A 
HETATM    6  C   UNL     1       6.073  25.717  53.548  1.00  0.00     0.046 A 
HETATM    7  N   UNL     1       6.722  28.277  56.644  1.00  0.00    -0.222 NA
HETATM    8  C   UNL     1       7.500  27.944  57.669  1.00  0.00     0.237 A 
HETATM    9  N   UNL     1       8.163  26.799  57.799  1.00  0.00    -0.229 NA
HETATM   10  C   UNL     1       8.005  25.915  56.807  1.00  0.00     0.117 A 
ENDROOT
BRANCH   5  11
HETATM   11  C   UNL     1       7.416  23.879  54.473  1.00  0.00    -0.022 A 
HETATM   12  C   UNL     1       7.202  22.936  55.495  1.00  0.00     0.052 A 
HETATM   13  C   UNL     1       7.732  21.671  55.344  1.00  0.00     0.105 A 
HETATM   14  C   UNL     1       8.433  21.308  54.219  1.00  0.00     0.105 A 
HETATM   15  O   UNL     1       7.646  20.659  56.249  1.00  0.00    -0.323 OA
HETATM   16  O   UNL     1       8.874  20.023  54.274  1.00  0.00    -0.323 OA
HETATM   17  C   UNL     1       8.642  22.187  53.181  1.00  0.00     0.040 A 
HETATM   18  C   UNL     1       8.403  19.630  55.580  1.00  0.00     0.352 A 
HETATM   19  C   UNL     1       8.129  23.482  53.314  1.00  0.00     0.015 A 
ENDBRANCH   5  11
BRANCH  10  20
HETATM   20  N   UNL     1       8.730  24.743  57.011  1.00  0.00    -0.286 NA
HETATM   21  H   UNL     1       8.731  24.548  58.009  1.00  0.00     0.125 HD
HETATM   22  H   UNL     1       9.667  24.792  56.632  1.00  0.00     0.125 HD
ENDBRANCH  10  20
BRANCH   1  23
HETATM   23  C   UNL     1       4.751  27.605  52.522  1.00  0.00    -0.007 A 
HETATM   24  C   UNL     1       3.687  28.486  52.785  1.00  0.00     0.014 A 
HETATM   25  C   UNL     1       2.902  29.016  51.751  1.00  0.00     0.007 A 
HETATM   26  C   UNL     1       3.154  28.670  50.421  1.00  0.00    -0.062 A 
HETATM   27  C   UNL     1       2.321  29.228  49.307  1.00  0.00     0.048 C 
HETATM   28  C   UNL     1       4.216  27.807  50.140  1.00  0.00     0.007 A 
HETATM   29  C   UNL     1       4.996  27.280  51.175  1.00  0.00     0.014 A 
ENDBRANCH   1  23
TORSDOF 3
ENDMDL
MODEL 7
REMARK VINA RESULT:      -8.9      3.592      5.672
REMARK  3 active torsions:
REMARK  status: ('A' for Active; 'I' for Inactive)
REMARK    1  A    between atoms: C_5  and  C_6 
REMARK    2  A    between atoms: C_10  and  C_11 
REMARK    3  A    between atoms: C_24  and  N_25 
ROOT
HETATM    1  C   UNL     1       6.765  25.848  54.359  1.00  0.00     0.070 A 
HETATM    2  N   UNL     1       7.006  26.440  55.548  1.00  0.00    -0.228 NA
HETATM    3  C   UNL     1       6.590  27.677  55.798  1.00  0.00     0.165 A 
HETATM    4  C   UNL     1       5.879  28.428  54.856  1.00  0.00     0.063 A 
HETATM    5  C   UNL     1       5.655  27.833  53.569  1.00  0.00    -0.006 A 
HETATM    6  C   UNL     1       6.115  26.528  53.345  1.00  0.00     0.046 A 
HETATM    7  N   UNL     1       6.889  28.129  57.005  1.00  0.00    -0.222 NA
HETATM    8  C   UNL     1       6.478  29.350  57.330  1.00  0.00     0.237 A 
HETATM    9  N   UNL     1       5.767  30.161  56.553  1.00  0.00    -0.229 NA
HETATM   10  C   UNL     1       5.465  29.691  55.337  1.00  0.00     0.117 A 
ENDROOT
BRANCH   5  11
HETATM   11  C   UNL     1       4.961  28.509  52.458  1.00  0.00    -0.022 A 
HETATM   12  C   UNL     1       3.564  28.423  52.319  1.00  0.00     0.052 A 
HETATM   13  C   UNL     1       2.969  29.061  51.250  1.00  0.00     0.105 A 
HETATM   14  C   UNL     1       3.700  29.791  50.343  1.00  0.00     0.105 A 
HETATM   15  O   UNL     1       1.642  29.048  50.954  1.00  0.00    -0.323 OA
HETATM   16  O   UNL     1       2.925  30.329  49.364  1.00  0.00    -0.323 OA
HETATM   17  C   UNL     1       5.065  29.926  50.455  1.00  0.00     0.040 A 
HETATM   18  C   UNL     1       1.626  29.823  49.738  1.00  0.00     0.352 A 
HETATM   19  C   UNL     1       5.697  29.277  51.521  1.00  0.00     0.015 A 
ENDBRANCH   5  11
BRANCH  10  20
HETATM   20  N   UNL     1       4.718  30.593  54.582  1.00  0.00    -0.286 NA
HETATM   21  H   UNL     1       3.789  30.199  54.457  1.00  0.00     0.125 HD
HETATM   22  H   UNL     1       5.157  30.821  53.698  1.00  0.00     0.125 HD
ENDBRANCH  10  20
BRANCH   1  23
HETATM   23  C   UNL     1       7.220  24.445  54.241  1.00  0.00    -0.007 A 
HETATM   24  C   UNL     1       7.555  23.866  53.003  1.00  0.00     0.014 A 
HETATM   25  C   UNL     1       7.944  22.523  52.904  1.00  0.00     0.007 A 
HETATM   26  C   UNL     1       8.000  21.715  54.043  1.00  0.00    -0.062 A 
HETATM   27  C   UNL     1       8.413  20.277  53.949  1.00  0.00     0.048 C 
HETATM   28  C   UNL     1       7.684  22.276  55.282  1.00  0.00     0.007 A 
HETATM   29  C   UNL     1       7.295  23.617  55.376  1.00  0.00     0.014 A 
ENDBRANCH   1  23
TORSDOF 3
ENDMDL
MODEL 8
REMARK VINA RESULT:      -8.8      4.598      6.321
REMARK  3 active torsions:
REMARK  status: ('A' for Active; 'I' for Inactive)
REMARK    1  A    between atoms: C_5  and  C_6 
REMARK    2  A    between atoms: C_10  and  C_11 
REMARK    3  A    between atoms: C_24  and  N_25 
ROOT
HETATM    1  C   UNL     1       5.926  26.109  53.685  1.00  0.00     0.070 A 
HETATM    2  N   UNL     1       5.536  26.686  54.842  1.00  0.00    -0.228 NA
HETATM    3  C   UNL     1       4.871  27.837  54.848  1.00  0.00     0.165 A 
HETATM    4  C   UNL     1       4.532  28.508  53.668  1.00  0.00     0.063 A 
HETATM    5  C   UNL     1       4.981  27.934  52.431  1.00  0.00    -0.006 A 
HETATM    6  C   UNL     1       5.683  26.723  52.469  1.00  0.00     0.046 A 
HETATM    7  N   UNL     1       4.545  28.282  56.051  1.00  0.00    -0.222 NA
HETATM    8  C   UNL     1       3.855  29.416  56.126  1.00  0.00     0.237 A 
HETATM    9  N   UNL     1       3.437  30.139  55.093  1.00  0.00    -0.229 NA
HETATM   10  C   UNL     1       3.765  29.675  53.882  1.00  0.00     0.117 A 
ENDROOT
BRANCH   5  11
HETATM   11  C   UNL     1       4.742  28.540  51.108  1.00  0.00    -0.022 A 
HETATM   12  C   UNL     1       3.660  28.128  50.308  1.00  0.00     0.052 A 
HETATM   13  C   UNL     1       3.496  28.717  49.071  1.00  0.00     0.105 A 
HETATM   14  C   UNL     1       4.341  29.703  48.619  1.00  0.00     0.105 A 
HETATM   15  O   UNL     1       2.527  28.411  48.167  1.00  0.00    -0.323 OA
HETATM   16  O   UNL     1       4.009  30.141  47.376  1.00  0.00    -0.323 OA
HETATM   17  C   UNL     1       5.394  30.157  49.378  1.00  0.00     0.040 A 
HETATM   18  C   UNL     1       2.880  29.291  47.080  1.00  0.00     0.352 A 
HETATM   19  C   UNL     1       5.595  29.567  50.631  1.00  0.00     0.015 A 
ENDBRANCH   5  11
BRANCH  10  20
HETATM   20  N   UNL     1       3.292  30.482  52.850  1.00  0.00    -0.286 NA
HETATM   21  H   UNL     1       2.622  31.135  53.248  1.00  0.00     0.125 HD
HETATM   22  H   UNL     1       2.896  29.949  52.086  1.00  0.00     0.125 HD
ENDBRANCH  10  20
BRANCH   1  23
HETATM   23  C   UNL     1       6.593  24.796  53.820  1.00  0.00    -0.007 A 
HETATM   24  C   UNL     1       6.736  24.150  55.060  1.00  0.00     0.014 A 
HETATM   25  C   UNL     1       7.409  22.926  55.176  1.00  0.00     0.007 A 
HETATM   26  C   UNL     1       7.969  22.316  54.050  1.00  0.00    -0.062 A 
HETATM   27  C   UNL     1       8.692  21.007  54.162  1.00  0.00     0.048 C 
HETATM   28  C   UNL     1       7.825  22.936  52.808  1.00  0.00     0.007 A 
HETATM   29  C   UNL     1       7.153  24.158  52.698  1.00  0.00     0.014 A 
ENDBRANCH   1  23
TORSDOF 3
ENDMDL
MODEL 9
REMARK VINA RESULT:      -8.6      3.464      5.593
REMARK  3 active torsions:
REMARK  status: ('A' for Active; 'I' for Inactive)
REMARK    1  A    between atoms: C_5  and  C_6 
REMARK    2  A    between atoms: C_10  and  C_11 
REMARK    3  A    between atoms: C_24  and  N_25 
ROOT
HETATM    1  C   UNL     1       7.149  27.613  57.151  1.00  0.00     0.070 A 
HETATM    2  N   UNL     1       7.993  28.180  58.039  1.00  0.00    -0.228 NA
HETATM    3  C   UNL     1       7.856  29.451  58.404  1.00  0.00     0.165 A 
HETATM    4  C   UNL     1       6.834  30.265  57.901  1.00  0.00     0.063 A 
HETATM    5  C   UNL     1       5.957  29.692  56.920  1.00  0.00    -0.006 A 
HETATM    6  C   UNL     1       6.139  28.351  56.559  1.00  0.00     0.046 A 
HETATM    7  N   UNL     1       8.747  29.873  59.286  1.00  0.00    -0.222 NA
HETATM    8  C   UNL     1       8.650  31.128  59.714  1.00  0.00     0.237 A 
HETATM    9  N   UNL     1       7.715  32.000  59.352  1.00  0.00    -0.229 NA
HETATM   10  C   UNL     1       6.815  31.560  58.465  1.00  0.00     0.117 A 
ENDROOT
BRANCH   5  11
HETATM   11  C   UNL     1       4.861  30.429  56.265  1.00  0.00    -0.022 A 
HETATM   12  C   UNL     1       5.086  31.160  55.084  1.00  0.00     0.052 A 
HETATM   13  C   UNL     1       4.028  31.845  54.523  1.00  0.00     0.105 A 
HETATM   14  C   UNL     1       2.768  31.809  55.072  1.00  0.00     0.105 A 
HETATM   15  O   UNL     1       4.084  32.623  53.408  1.00  0.00    -0.323 OA
HETATM   16  O   UNL     1       1.875  32.556  54.372  1.00  0.00    -0.323 OA
HETATM   17  C   UNL     1       2.495  31.084  56.209  1.00  0.00     0.040 A 
HETATM   18  C   UNL     1       2.725  33.099  53.339  1.00  0.00     0.352 A 
HETATM   19  C   UNL     1       3.553  30.391  56.809  1.00  0.00     0.015 A 
ENDBRANCH   5  11
BRANCH  10  20
HETATM   20  N   UNL     1       5.868  32.527  58.135  1.00  0.00    -0.286 NA
HETATM   21  H   UNL     1       5.974  32.741  57.147  1.00  0.00     0.125 HD
HETATM   22  H   UNL     1       5.936  33.356  58.713  1.00  0.00     0.125 HD
ENDBRANCH  10  20
BRANCH   1  23
HETATM   23  C   UNL     1       7.372  26.174  56.888  1.00  0.00    -0.007 A 
HETATM   24  C   UNL     1       8.403  25.448  57.510  1.00  0.00     0.014 A 
HETATM   25  C   UNL     1       8.626  24.096  57.218  1.00  0.00     0.007 A 
HETATM   26  C   UNL     1       7.827  23.431  56.284  1.00  0.00    -0.062 A 
HETATM   27  C   UNL     1       8.057  21.985  55.962  1.00  0.00     0.048 C 
HETATM   28  C   UNL     1       6.790  24.132  55.667  1.00  0.00     0.007 A 
HETATM   29  C   UNL     1       6.571  25.482  55.961  1.00  0.00     0.014 A 
ENDBRANCH   1  23
TORSDOF 3
ENDMDL
MODEL 10
REMARK VINA RESULT:      -8.5      6.671      9.864
REMARK  3 active torsions:
REMARK  status: ('A' for Active; 'I' for Inactive)
REMARK    1  A    between atoms: C_5  and  C_6 
REMARK    2  A    between atoms: C_10  and  C_11 
REMARK    3  A    between atoms: C_24  and  N_25 
ROOT
HETATM    1  C   UNL     1       7.472  32.388  60.720  1.00  0.00     0.070 A 
HETATM    2  N   UNL     1       7.920  32.391  61.993  1.00  0.00    -0.228 NA
HETATM    3  C   UNL     1       7.240  32.997  62.961  1.00  0.00     0.165 A 
HETATM    4  C   UNL     1       6.028  33.654  62.721  1.00  0.00     0.063 A 
HETATM    5  C   UNL     1       5.561  33.703  61.365  1.00  0.00    -0.006 A 
HETATM    6  C   UNL     1       6.310  33.056  60.374  1.00  0.00     0.046 A 
HETATM    7  N   UNL     1       7.792  32.914  64.161  1.00  0.00    -0.222 NA
HETATM    8  C   UNL     1       7.149  33.477  65.179  1.00  0.00     0.237 A 
HETATM    9  N   UNL     1       5.978  34.101  65.107  1.00  0.00    -0.229 NA
HETATM   10  C   UNL     1       5.427  34.173  63.890  1.00  0.00     0.117 A 
ENDROOT
BRANCH   5  11
HETATM   11  C   UNL     1       4.328  34.392  60.943  1.00  0.00    -0.022 A 
HETATM   12  C   UNL     1       3.083  33.737  60.985  1.00  0.00     0.052 A 
HETATM   13  C   UNL     1       1.964  34.424  60.561  1.00  0.00     0.105 A 
HETATM   14  C   UNL     1       2.034  35.727  60.129  1.00  0.00     0.105 A 
HETATM   15  O   UNL     1       0.699  33.927  60.506  1.00  0.00    -0.323 OA
HETATM   16  O   UNL     1       0.823  36.213  59.749  1.00  0.00    -0.323 OA
HETATM   17  C   UNL     1       3.224  36.417  60.099  1.00  0.00     0.040 A 
HETATM   18  C   UNL     1      -0.013  35.055  59.956  1.00  0.00     0.352 A 
HETATM   19  C   UNL     1       4.378  35.740  60.508  1.00  0.00     0.015 A 
ENDBRANCH   5  11
BRANCH  10  20
HETATM   20  N   UNL     1       4.203  34.839  63.892  1.00  0.00    -0.286 NA
HETATM   21  H   UNL     1       3.503  34.202  64.264  1.00  0.00     0.125 HD
HETATM   22  H   UNL     1       3.948  35.193  62.979  1.00  0.00     0.125 HD
ENDBRANCH  10  20
BRANCH   1  23
HETATM   23  C   UNL     1       8.288  31.616  59.757  1.00  0.00    -0.007 A 
HETATM   24  C   UNL     1       9.552  32.055  59.324  1.00  0.00     0.014 A 
HETATM   25  C   UNL     1      10.293  31.332  58.379  1.00  0.00     0.007 A 
HETATM   26  C   UNL     1       9.786  30.151  57.832  1.00  0.00    -0.062 A 
HETATM   27  C   UNL     1      10.569  29.370  56.820  1.00  0.00     0.048 C 
HETATM   28  C   UNL     1       8.539  29.693  58.261  1.00  0.00     0.007 A 
HETATM   29  C   UNL     1       7.802  30.418  59.203  1.00  0.00     0.014 A 
ENDBRANCH   1  23
TORSDOF 3
ENDMDL
