MODEL 1
REMARK VINA RESULT:      -9.4      0.000      0.000
REMARK  7 active torsions:
REMARK  status: ('A' for Active; 'I' for Inactive)
REMARK       I    between atoms: N_2  and  C_3 
REMARK    1  A    between atoms: N_2  and  C_24 
REMARK    2  A    between atoms: C_3  and  C_4 
REMARK    3  A    between atoms: C_7  and  N_8 
REMARK    4  A    between atoms: C_11  and  N_12 
REMARK       I    between atoms: N_12  and  C_13 
REMARK    5  A    between atoms: C_13  and  C_14 
REMARK    6  A    between atoms: C_24  and  C_25 
REMARK    7  A    between atoms: C_27  and  O_28 
ROOT
HETATM    1  C   UNL     1       6.329  28.116  53.517  1.00  0.00     0.032 A 
HETATM    2  C   UNL     1       5.525  28.704  54.494  1.00  0.00     0.019 A 
HETATM    3  C   UNL     1       6.088  29.190  55.677  1.00  0.00     0.032 A 
HETATM    4  C   UNL     1       7.463  29.043  55.922  1.00  0.00     0.058 A 
HETATM    5  C   UNL     1       8.272  28.444  54.949  1.00  0.00     0.032 A 
HETATM    6  C   UNL     1       7.704  27.983  53.754  1.00  0.00     0.019 A 
ENDROOT
BRANCH   4   7
HETATM    7  N   UNL     1       7.984  29.450  57.182  1.00  0.00    -0.243 N 
HETATM    8  N   UNL     1       9.323  29.571  57.369  1.00  0.00    -0.178 NA
HETATM    9  C   UNL     1       9.450  30.088  58.592  1.00  0.00     0.170 A 
HETATM   10  C   UNL     1       8.208  30.291  59.218  1.00  0.00     0.071 A 
HETATM   11  C   UNL     1       7.285  29.825  58.313  1.00  0.00     0.149 A 
BRANCH  10  12
HETATM   12  N   UNL     1       7.879  30.851  60.437  1.00  0.00    -0.324 N 
HETATM   13  C   UNL     1       8.165  32.155  60.793  1.00  0.00     0.228 C 
HETATM   14  O   UNL     1       8.815  32.947  60.113  1.00  0.00    -0.273 OA
HETATM   15  H   UNL     1       7.374  30.263  61.095  1.00  0.00     0.169 HD
BRANCH  13  16
HETATM   16  C   UNL     1       7.530  32.613  62.101  1.00  0.00     0.104 C 
HETATM   17  C   UNL     1       6.537  31.609  62.637  1.00  0.00     0.181 C 
HETATM   18  O   UNL     1       5.305  31.922  61.966  1.00  0.00    -0.390 OA
HETATM   19  C   UNL     1       5.265  33.345  61.779  1.00  0.00     0.168 C 
HETATM   20  C   UNL     1       6.688  33.860  61.910  1.00  0.00     0.042 C 
ENDBRANCH  13  16
ENDBRANCH  10  12
ENDBRANCH   4   7
BRANCH   1  21
HETATM   21  C   UNL     1       5.757  27.497  52.292  1.00  0.00     0.253 C 
HETATM   22  N   UNL     1       5.383  26.149  52.276  1.00  0.00    -0.348 N 
HETATM   23  C   UNL     1       4.910  25.609  51.008  1.00  0.00     0.153 C 
HETATM   24  O   UNL     1       5.646  28.224  51.304  1.00  0.00    -0.267 OA
BRANCH  22  25
HETATM   25  C   UNL     1       5.049  25.373  53.471  1.00  0.00     0.164 C 
BRANCH  25  26
HETATM   26  C   UNL     1       6.204  24.608  54.086  1.00  0.00    -0.038 A 
HETATM   27  C   UNL     1       6.931  23.625  53.389  1.00  0.00     0.045 A 
HETATM   28  C   UNL     1       8.045  23.008  53.967  1.00  0.00     0.068 A 
HETATM   29  C   UNL     1       8.412  23.342  55.269  1.00  0.00     0.037 A 
HETATM   30  C   UNL     1       7.697  24.303  55.981  1.00  0.00     0.003 A 
HETATM   31  C   UNL     1       6.606  24.938  55.390  1.00  0.00     0.009 A 
BRANCH  28  32
HETATM   32  O   UNL     1       8.840  22.074  53.363  1.00  0.00    -0.356 OA
HETATM   33  C   UNL     1       8.229  20.825  53.054  1.00  0.00     0.210 C 
ENDBRANCH  28  32
ENDBRANCH  25  26
ENDBRANCH  22  25
ENDBRANCH   1  21
TORSDOF 7
ENDMDL
MODEL 2
REMARK VINA RESULT:      -9.3      0.874      1.771
REMARK  7 active torsions:
REMARK  status: ('A' for Active; 'I' for Inactive)
REMARK       I    between atoms: N_2  and  C_3 
REMARK    1  A    between atoms: N_2  and  C_24 
REMARK    2  A    between atoms: C_3  and  C_4 
REMARK    3  A    between atoms: C_7  and  N_8 
REMARK    4  A    between atoms: C_11  and  N_12 
REMARK       I    between atoms: N_12  and  C_13 
REMARK    5  A    between atoms: C_13  and  C_14 
REMARK    6  A    between atoms: C_24  and  C_25 
REMARK    7  A    between atoms: C_27  and  O_28 
ROOT
HETATM    1  C   UNL     1       6.332  27.973  53.546  1.00  0.00     0.032 A 
HETATM    2  C   UNL     1       7.690  27.835  53.837  1.00  0.00     0.019 A 
HETATM    3  C   UNL     1       8.196  28.254  55.070  1.00  0.00     0.032 A 
HETATM    4  C   UNL     1       7.355  28.866  56.012  1.00  0.00     0.058 A 
HETATM    5  C   UNL     1       5.993  29.015  55.721  1.00  0.00     0.032 A 
HETATM    6  C   UNL     1       5.488  28.570  54.492  1.00  0.00     0.019 A 
ENDROOT
BRANCH   4   7
HETATM    7  N   UNL     1       7.924  29.378  57.212  1.00  0.00    -0.243 N 
HETATM    8  N   UNL     1       9.244  29.693  57.271  1.00  0.00    -0.178 NA
HETATM    9  C   UNL     1       9.404  30.257  58.469  1.00  0.00     0.170 A 
HETATM   10  C   UNL     1       8.208  30.301  59.205  1.00  0.00     0.071 A 
HETATM   11  C   UNL     1       7.284  29.682  58.397  1.00  0.00     0.149 A 
BRANCH  10  12
HETATM   12  N   UNL     1       7.913  30.842  60.440  1.00  0.00    -0.324 N 
HETATM   13  C   UNL     1       8.172  32.153  60.793  1.00  0.00     0.228 C 
HETATM   14  O   UNL     1       8.767  32.969  60.092  1.00  0.00    -0.273 OA
HETATM   15  H   UNL     1       7.455  30.235  61.115  1.00  0.00     0.169 HD
BRANCH  13  16
HETATM   16  C   UNL     1       7.579  32.583  62.130  1.00  0.00     0.104 C 
HETATM   17  C   UNL     1       6.576  31.585  62.658  1.00  0.00     0.181 C 
HETATM   18  O   UNL     1       5.336  31.945  62.028  1.00  0.00    -0.390 OA
HETATM   19  C   UNL     1       5.323  33.375  61.886  1.00  0.00     0.168 C 
HETATM   20  C   UNL     1       6.760  33.853  61.999  1.00  0.00     0.042 C 
ENDBRANCH  13  16
ENDBRANCH  10  12
ENDBRANCH   4   7
BRANCH   1  21
HETATM   21  C   UNL     1       5.774  27.634  52.210  1.00  0.00     0.253 C 
HETATM   22  N   UNL     1       5.415  26.320  51.893  1.00  0.00    -0.348 N 
HETATM   23  C   UNL     1       4.956  26.068  50.534  1.00  0.00     0.153 C 
HETATM   24  O   UNL     1       5.661  28.561  51.406  1.00  0.00    -0.267 OA
BRANCH  22  25
HETATM   25  C   UNL     1       5.083  25.296  52.885  1.00  0.00     0.164 C 
BRANCH  25  26
HETATM   26  C   UNL     1       6.271  24.569  53.484  1.00  0.00    -0.038 A 
HETATM   27  C   UNL     1       6.539  24.544  54.865  1.00  0.00     0.045 A 
HETATM   28  C   UNL     1       7.596  23.788  55.381  1.00  0.00     0.068 A 
HETATM   29  C   UNL     1       8.422  23.084  54.506  1.00  0.00     0.037 A 
HETATM   30  C   UNL     1       8.182  23.107  53.134  1.00  0.00     0.003 A 
HETATM   31  C   UNL     1       7.109  23.838  52.627  1.00  0.00     0.009 A 
BRANCH  28  32
HETATM   32  O   UNL     1       7.916  23.665  56.704  1.00  0.00    -0.356 OA
HETATM   33  C   UNL     1       8.260  24.866  57.388  1.00  0.00     0.210 C 
ENDBRANCH  28  32
ENDBRANCH  25  26
ENDBRANCH  22  25
ENDBRANCH   1  21
TORSDOF 7
ENDMDL
MODEL 3
REMARK VINA RESULT:      -9.3      4.343      7.597
REMARK  7 active torsions:
REMARK  status: ('A' for Active; 'I' for Inactive)
REMARK       I    between atoms: N_2  and  C_3 
REMARK    1  A    between atoms: N_2  and  C_24 
REMARK    2  A    between atoms: C_3  and  C_4 
REMARK    3  A    between atoms: C_7  and  N_8 
REMARK    4  A    between atoms: C_11  and  N_12 
REMARK       I    between atoms: N_12  and  C_13 
REMARK    5  A    between atoms: C_13  and  C_14 
REMARK    6  A    between atoms: C_24  and  C_25 
REMARK    7  A    between atoms: C_27  and  O_28 
ROOT
HETATM    1  C   UNL     1       8.606  31.830  60.454  1.00  0.00     0.032 A 
HETATM    2  C   UNL     1       9.165  31.731  61.729  1.00  0.00     0.019 A 
HETATM    3  C   UNL     1       8.440  32.136  62.852  1.00  0.00     0.032 A 
HETATM    4  C   UNL     1       7.161  32.696  62.709  1.00  0.00     0.058 A 
HETATM    5  C   UNL     1       6.600  32.806  61.430  1.00  0.00     0.032 A 
HETATM    6  C   UNL     1       7.323  32.375  60.310  1.00  0.00     0.019 A 
ENDROOT
BRANCH   4   7
HETATM    7  N   UNL     1       6.496  33.197  63.864  1.00  0.00    -0.243 N 
HETATM    8  N   UNL     1       5.188  32.909  64.087  1.00  0.00    -0.178 NA
HETATM    9  C   UNL     1       4.932  33.413  65.295  1.00  0.00     0.170 A 
HETATM   10  C   UNL     1       6.052  34.045  65.861  1.00  0.00     0.071 A 
HETATM   11  C   UNL     1       7.029  33.939  64.899  1.00  0.00     0.149 A 
BRANCH  10  12
HETATM   12  N   UNL     1       6.244  34.634  67.094  1.00  0.00    -0.324 N 
HETATM   13  C   UNL     1       5.435  34.414  68.192  1.00  0.00     0.228 C 
HETATM   14  O   UNL     1       4.406  33.740  68.189  1.00  0.00    -0.273 OA
HETATM   15  H   UNL     1       7.048  35.249  67.194  1.00  0.00     0.169 HD
BRANCH  13  16
HETATM   16  C   UNL     1       5.954  35.009  69.497  1.00  0.00     0.104 C 
HETATM   17  C   UNL     1       7.324  35.625  69.339  1.00  0.00     0.181 C 
HETATM   18  O   UNL     1       8.239  34.530  69.511  1.00  0.00    -0.390 OA
HETATM   19  C   UNL     1       7.665  33.637  70.479  1.00  0.00     0.168 C 
HETATM   20  C   UNL     1       6.179  33.941  70.551  1.00  0.00     0.042 C 
ENDBRANCH  13  16
ENDBRANCH  10  12
ENDBRANCH   4   7
BRANCH   1  21
HETATM   21  C   UNL     1       9.381  31.506  59.226  1.00  0.00     0.253 C 
HETATM   22  N   UNL     1       9.203  30.287  58.565  1.00  0.00    -0.348 N 
HETATM   23  C   UNL     1      10.064  30.022  57.421  1.00  0.00     0.153 C 
HETATM   24  O   UNL     1      10.186  32.355  58.840  1.00  0.00    -0.267 OA
BRANCH  22  25
HETATM   25  C   UNL     1       7.996  29.464  58.667  1.00  0.00     0.164 C 
BRANCH  25  26
HETATM   26  C   UNL     1       7.676  28.634  57.440  1.00  0.00    -0.038 A 
HETATM   27  C   UNL     1       7.982  27.264  57.340  1.00  0.00     0.045 A 
HETATM   28  C   UNL     1       7.589  26.518  56.225  1.00  0.00     0.068 A 
HETATM   29  C   UNL     1       6.923  27.153  55.178  1.00  0.00     0.037 A 
HETATM   30  C   UNL     1       6.623  28.512  55.252  1.00  0.00     0.003 A 
HETATM   31  C   UNL     1       6.990  29.245  56.379  1.00  0.00     0.009 A 
BRANCH  28  32
HETATM   32  O   UNL     1       7.801  25.178  56.048  1.00  0.00    -0.356 OA
HETATM   33  C   UNL     1       7.195  24.587  54.903  1.00  0.00     0.210 C 
ENDBRANCH  28  32
ENDBRANCH  25  26
ENDBRANCH  22  25
ENDBRANCH   1  21
TORSDOF 7
ENDMDL
MODEL 4
REMARK VINA RESULT:      -9.0      1.947      4.317
REMARK  7 active torsions:
REMARK  status: ('A' for Active; 'I' for Inactive)
REMARK       I    between atoms: N_2  and  C_3 
REMARK    1  A    between atoms: N_2  and  C_24 
REMARK    2  A    between atoms: C_3  and  C_4 
REMARK    3  A    between atoms: C_7  and  N_8 
REMARK    4  A    between atoms: C_11  and  N_12 
REMARK       I    between atoms: N_12  and  C_13 
REMARK    5  A    between atoms: C_13  and  C_14 
REMARK    6  A    between atoms: C_24  and  C_25 
REMARK    7  A    between atoms: C_27  and  O_28 
ROOT
HETATM    1  C   UNL     1       7.616  23.511  56.110  1.00  0.00     0.032 A 
HETATM    2  C   UNL     1       8.738  24.235  56.516  1.00  0.00     0.019 A 
HETATM    3  C   UNL     1       8.601  25.539  56.999  1.00  0.00     0.032 A 
HETATM    4  C   UNL     1       7.341  26.156  57.032  1.00  0.00     0.058 A 
HETATM    5  C   UNL     1       6.214  25.436  56.615  1.00  0.00     0.032 A 
HETATM    6  C   UNL     1       6.355  24.120  56.157  1.00  0.00     0.019 A 
ENDROOT
BRANCH   4   7
HETATM    7  N   UNL     1       7.253  27.522  57.426  1.00  0.00    -0.243 N 
HETATM    8  N   UNL     1       6.120  28.234  57.199  1.00  0.00    -0.178 NA
HETATM    9  C   UNL     1       6.330  29.405  57.801  1.00  0.00     0.170 A 
HETATM   10  C   UNL     1       7.596  29.477  58.407  1.00  0.00     0.071 A 
HETATM   11  C   UNL     1       8.190  28.274  58.106  1.00  0.00     0.149 A 
BRANCH  10  12
HETATM   12  N   UNL     1       8.190  30.459  59.174  1.00  0.00    -0.324 N 
HETATM   13  C   UNL     1       7.707  31.748  59.290  1.00  0.00     0.228 C 
HETATM   14  O   UNL     1       6.748  32.203  58.667  1.00  0.00    -0.273 OA
HETATM   15  H   UNL     1       9.020  30.199  59.700  1.00  0.00     0.169 HD
BRANCH  13  16
HETATM   16  C   UNL     1       8.405  32.599  60.346  1.00  0.00     0.104 C 
HETATM   17  C   UNL     1       9.652  31.936  60.881  1.00  0.00     0.181 C 
HETATM   18  O   UNL     1       9.183  31.074  61.931  1.00  0.00    -0.390 OA
HETATM   19  C   UNL     1       8.066  31.724  62.557  1.00  0.00     0.168 C 
HETATM   20  C   UNL     1       7.548  32.770  61.585  1.00  0.00     0.042 C 
ENDBRANCH  13  16
ENDBRANCH  10  12
ENDBRANCH   4   7
BRANCH   1  21
HETATM   21  C   UNL     1       7.730  22.160  55.496  1.00  0.00     0.253 C 
HETATM   22  N   UNL     1       7.799  22.006  54.108  1.00  0.00    -0.348 N 
HETATM   23  C   UNL     1       7.824  20.643  53.594  1.00  0.00     0.153 C 
HETATM   24  O   UNL     1       7.745  21.201  56.269  1.00  0.00    -0.267 OA
BRANCH  22  25
HETATM   25  C   UNL     1       8.245  23.050  53.185  1.00  0.00     0.164 C 
BRANCH  25  26
HETATM   26  C   UNL     1       7.299  24.225  53.035  1.00  0.00    -0.038 A 
HETATM   27  C   UNL     1       7.706  25.563  53.191  1.00  0.00     0.045 A 
HETATM   28  C   UNL     1       6.820  26.618  52.956  1.00  0.00     0.068 A 
HETATM   29  C   UNL     1       5.500  26.337  52.606  1.00  0.00     0.037 A 
HETATM   30  C   UNL     1       5.073  25.018  52.459  1.00  0.00     0.003 A 
HETATM   31  C   UNL     1       5.969  23.970  52.664  1.00  0.00     0.009 A 
BRANCH  28  32
HETATM   32  O   UNL     1       7.125  27.949  53.041  1.00  0.00    -0.356 OA
HETATM   33  C   UNL     1       7.950  28.342  54.133  1.00  0.00     0.210 C 
ENDBRANCH  28  32
ENDBRANCH  25  26
ENDBRANCH  22  25
ENDBRANCH   1  21
TORSDOF 7
ENDMDL
MODEL 5
REMARK VINA RESULT:      -8.6      2.782      4.938
REMARK  7 active torsions:
REMARK  status: ('A' for Active; 'I' for Inactive)
REMARK       I    between atoms: N_2  and  C_3 
REMARK    1  A    between atoms: N_2  and  C_24 
REMARK    2  A    between atoms: C_3  and  C_4 
REMARK    3  A    between atoms: C_7  and  N_8 
REMARK    4  A    between atoms: C_11  and  N_12 
REMARK       I    between atoms: N_12  and  C_13 
REMARK    5  A    between atoms: C_13  and  C_14 
REMARK    6  A    between atoms: C_24  and  C_25 
REMARK    7  A    between atoms: C_27  and  O_28 
ROOT
HETATM    1  C   UNL     1       7.647  23.571  56.264  1.00  0.00     0.032 A 
HETATM    2  C   UNL     1       8.734  24.354  56.656  1.00  0.00     0.019 A 
HETATM    3  C   UNL     1       8.535  25.651  57.136  1.00  0.00     0.032 A 
HETATM    4  C   UNL     1       7.245  26.202  57.180  1.00  0.00     0.058 A 
HETATM    5  C   UNL     1       6.152  25.423  56.779  1.00  0.00     0.032 A 
HETATM    6  C   UNL     1       6.357  24.114  56.323  1.00  0.00     0.019 A 
ENDROOT
BRANCH   4   7
HETATM    7  N   UNL     1       7.090  27.563  57.571  1.00  0.00    -0.243 N 
HETATM    8  N   UNL     1       8.126  28.243  58.126  1.00  0.00    -0.178 NA
HETATM    9  C   UNL     1       7.684  29.496  58.241  1.00  0.00     0.170 A 
HETATM   10  C   UNL     1       6.363  29.643  57.785  1.00  0.00     0.071 A 
HETATM   11  C   UNL     1       5.986  28.376  57.409  1.00  0.00     0.149 A 
BRANCH  10  12
HETATM   12  N   UNL     1       5.554  30.755  57.668  1.00  0.00    -0.324 N 
HETATM   13  C   UNL     1       5.055  31.226  56.469  1.00  0.00     0.228 C 
HETATM   14  O   UNL     1       5.332  30.772  55.360  1.00  0.00    -0.273 OA
HETATM   15  H   UNL     1       5.297  31.235  58.527  1.00  0.00     0.169 HD
BRANCH  13  16
HETATM   16  C   UNL     1       4.023  32.342  56.601  1.00  0.00     0.104 C 
HETATM   17  C   UNL     1       4.477  33.621  55.938  1.00  0.00     0.181 C 
HETATM   18  O   UNL     1       5.274  34.284  56.934  1.00  0.00    -0.390 OA
HETATM   19  C   UNL     1       4.697  33.988  58.216  1.00  0.00     0.168 C 
HETATM   20  C   UNL     1       3.825  32.756  58.046  1.00  0.00     0.042 C 
ENDBRANCH  13  16
ENDBRANCH  10  12
ENDBRANCH   4   7
BRANCH   1  21
HETATM   21  C   UNL     1       7.825  22.226  55.654  1.00  0.00     0.253 C 
HETATM   22  N   UNL     1       7.916  22.073  54.268  1.00  0.00    -0.348 N 
HETATM   23  C   UNL     1       8.004  20.711  53.756  1.00  0.00     0.153 C 
HETATM   24  O   UNL     1       7.872  21.269  56.428  1.00  0.00    -0.267 OA
BRANCH  22  25
HETATM   25  C   UNL     1       8.328  23.134  53.348  1.00  0.00     0.164 C 
BRANCH  25  26
HETATM   26  C   UNL     1       7.330  24.262  53.176  1.00  0.00    -0.038 A 
HETATM   27  C   UNL     1       7.664  25.617  53.358  1.00  0.00     0.045 A 
HETATM   28  C   UNL     1       6.735  26.629  53.103  1.00  0.00     0.068 A 
HETATM   29  C   UNL     1       5.443  26.287  52.705  1.00  0.00     0.037 A 
HETATM   30  C   UNL     1       5.088  24.950  52.533  1.00  0.00     0.003 A 
HETATM   31  C   UNL     1       6.028  23.945  52.759  1.00  0.00     0.009 A 
BRANCH  28  32
HETATM   32  O   UNL     1       6.970  27.972  53.210  1.00  0.00    -0.356 OA
HETATM   33  C   UNL     1       7.927  28.373  54.185  1.00  0.00     0.210 C 
ENDBRANCH  28  32
ENDBRANCH  25  26
ENDBRANCH  22  25
ENDBRANCH   1  21
TORSDOF 7
ENDMDL
MODEL 6
REMARK VINA RESULT:      -8.6      2.688     10.514
REMARK  7 active torsions:
REMARK  status: ('A' for Active; 'I' for Inactive)
REMARK       I    between atoms: N_2  and  C_3 
REMARK    1  A    between atoms: N_2  and  C_24 
REMARK    2  A    between atoms: C_3  and  C_4 
REMARK    3  A    between atoms: C_7  and  N_8 
REMARK    4  A    between atoms: C_11  and  N_12 
REMARK       I    between atoms: N_12  and  C_13 
REMARK    5  A    between atoms: C_13  and  C_14 
REMARK    6  A    between atoms: C_24  and  C_25 
REMARK    7  A    between atoms: C_27  and  O_28 
ROOT
HETATM    1  C   UNL     1       5.228  32.194  58.910  1.00  0.00     0.032 A 
HETATM    2  C   UNL     1       6.602  31.981  59.034  1.00  0.00     0.019 A 
HETATM    3  C   UNL     1       7.200  30.864  58.444  1.00  0.00     0.032 A 
HETATM    4  C   UNL     1       6.420  29.915  57.765  1.00  0.00     0.058 A 
HETATM    5  C   UNL     1       5.039  30.121  57.647  1.00  0.00     0.032 A 
HETATM    6  C   UNL     1       4.450  31.256  58.219  1.00  0.00     0.019 A 
ENDROOT
BRANCH   4   7
HETATM    7  N   UNL     1       7.046  28.736  57.271  1.00  0.00    -0.243 N 
HETATM    8  N   UNL     1       7.949  28.064  58.031  1.00  0.00    -0.178 NA
HETATM    9  C   UNL     1       8.226  26.963  57.332  1.00  0.00     0.170 A 
HETATM   10  C   UNL     1       7.530  26.912  56.112  1.00  0.00     0.071 A 
HETATM   11  C   UNL     1       6.819  28.089  56.073  1.00  0.00     0.149 A 
BRANCH  10  12
HETATM   12  N   UNL     1       7.474  25.944  55.130  1.00  0.00    -0.324 N 
HETATM   13  C   UNL     1       6.456  25.017  55.013  1.00  0.00     0.228 C 
HETATM   14  O   UNL     1       5.527  24.884  55.807  1.00  0.00    -0.273 OA
HETATM   15  H   UNL     1       8.222  25.939  54.441  1.00  0.00     0.169 HD
BRANCH  13  16
HETATM   16  C   UNL     1       6.498  24.181  53.738  1.00  0.00     0.104 C 
HETATM   17  C   UNL     1       7.873  24.161  53.112  1.00  0.00     0.181 C 
HETATM   18  O   UNL     1       7.920  25.345  52.299  1.00  0.00    -0.390 OA
HETATM   19  C   UNL     1       6.600  25.560  51.774  1.00  0.00     0.168 C 
HETATM   20  C   UNL     1       5.633  24.778  52.646  1.00  0.00     0.042 C 
ENDBRANCH  13  16
ENDBRANCH  10  12
ENDBRANCH   4   7
BRANCH   1  21
HETATM   21  C   UNL     1       4.538  33.313  59.607  1.00  0.00     0.253 C 
HETATM   22  N   UNL     1       4.027  33.149  60.897  1.00  0.00    -0.348 N 
HETATM   23  C   UNL     1       3.295  34.272  61.467  1.00  0.00     0.153 C 
HETATM   24  O   UNL     1       4.433  34.371  58.985  1.00  0.00    -0.267 OA
BRANCH  22  25
HETATM   25  C   UNL     1       4.497  32.139  61.847  1.00  0.00     0.164 C 
BRANCH  25  26
HETATM   26  C   UNL     1       5.512  32.629  62.860  1.00  0.00    -0.038 A 
HETATM   27  C   UNL     1       5.153  33.306  64.040  1.00  0.00     0.045 A 
HETATM   28  C   UNL     1       6.116  33.661  64.989  1.00  0.00     0.068 A 
HETATM   29  C   UNL     1       7.458  33.378  64.739  1.00  0.00     0.037 A 
HETATM   30  C   UNL     1       7.836  32.720  63.570  1.00  0.00     0.003 A 
HETATM   31  C   UNL     1       6.869  32.340  62.641  1.00  0.00     0.009 A 
BRANCH  28  32
HETATM   32  O   UNL     1       5.869  34.284  66.181  1.00  0.00    -0.356 OA
HETATM   33  C   UNL     1       4.619  33.995  66.800  1.00  0.00     0.210 C 
ENDBRANCH  28  32
ENDBRANCH  25  26
ENDBRANCH  22  25
ENDBRANCH   1  21
TORSDOF 7
ENDMDL
MODEL 7
REMARK VINA RESULT:      -8.1      2.628     10.138
REMARK  7 active torsions:
REMARK  status: ('A' for Active; 'I' for Inactive)
REMARK       I    between atoms: N_2  and  C_3 
REMARK    1  A    between atoms: N_2  and  C_24 
REMARK    2  A    between atoms: C_3  and  C_4 
REMARK    3  A    between atoms: C_7  and  N_8 
REMARK    4  A    between atoms: C_11  and  N_12 
REMARK       I    between atoms: N_12  and  C_13 
REMARK    5  A    between atoms: C_13  and  C_14 
REMARK    6  A    between atoms: C_24  and  C_25 
REMARK    7  A    between atoms: C_27  and  O_28 
ROOT
HETATM    1  C   UNL     1       7.774  32.344  62.573  1.00  0.00     0.032 A 
HETATM    2  C   UNL     1       8.336  31.066  62.590  1.00  0.00     0.019 A 
HETATM    3  C   UNL     1       8.726  30.449  61.399  1.00  0.00     0.032 A 
HETATM    4  C   UNL     1       8.509  31.083  60.166  1.00  0.00     0.058 A 
HETATM    5  C   UNL     1       7.935  32.361  60.143  1.00  0.00     0.032 A 
HETATM    6  C   UNL     1       7.570  32.985  61.344  1.00  0.00     0.019 A 
ENDROOT
BRANCH   4   7
HETATM    7  N   UNL     1       8.817  30.381  58.967  1.00  0.00    -0.243 N 
HETATM    8  N   UNL     1       9.988  30.605  58.317  1.00  0.00    -0.178 NA
HETATM    9  C   UNL     1      10.008  29.704  57.335  1.00  0.00     0.170 A 
HETATM   10  C   UNL     1       8.855  28.900  57.320  1.00  0.00     0.071 A 
HETATM   11  C   UNL     1       8.082  29.390  58.346  1.00  0.00     0.149 A 
BRANCH  10  12
HETATM   12  N   UNL     1       8.498  27.826  56.530  1.00  0.00    -0.324 N 
HETATM   13  C   UNL     1       7.578  27.893  55.502  1.00  0.00     0.228 C 
HETATM   14  O   UNL     1       6.907  28.884  55.217  1.00  0.00    -0.273 OA
HETATM   15  H   UNL     1       8.966  26.942  56.712  1.00  0.00     0.169 HD
BRANCH  13  16
HETATM   16  C   UNL     1       7.494  26.639  54.638  1.00  0.00     0.104 C 
HETATM   17  C   UNL     1       6.188  26.552  53.884  1.00  0.00     0.181 C 
HETATM   18  O   UNL     1       5.273  25.939  54.808  1.00  0.00    -0.390 OA
HETATM   19  C   UNL     1       6.022  25.000  55.596  1.00  0.00     0.168 C 
HETATM   20  C   UNL     1       7.488  25.377  55.479  1.00  0.00     0.042 C 
ENDBRANCH  13  16
ENDBRANCH  10  12
ENDBRANCH   4   7
BRANCH   1  21
HETATM   21  C   UNL     1       7.253  32.992  63.807  1.00  0.00     0.253 C 
HETATM   22  N   UNL     1       5.879  33.079  64.047  1.00  0.00    -0.348 N 
HETATM   23  C   UNL     1       5.460  33.805  65.239  1.00  0.00     0.153 C 
HETATM   24  O   UNL     1       8.090  33.453  64.585  1.00  0.00    -0.267 OA
BRANCH  22  25
HETATM   25  C   UNL     1       4.881  32.190  63.450  1.00  0.00     0.164 C 
BRANCH  25  26
HETATM   26  C   UNL     1       4.035  32.811  62.357  1.00  0.00    -0.038 A 
HETATM   27  C   UNL     1       4.092  32.397  61.013  1.00  0.00     0.045 A 
HETATM   28  C   UNL     1       3.229  32.938  60.056  1.00  0.00     0.068 A 
HETATM   29  C   UNL     1       2.330  33.935  60.431  1.00  0.00     0.037 A 
HETATM   30  C   UNL     1       2.267  34.369  61.754  1.00  0.00     0.003 A 
HETATM   31  C   UNL     1       3.108  33.804  62.712  1.00  0.00     0.009 A 
BRANCH  28  32
HETATM   32  O   UNL     1       3.177  32.578  58.737  1.00  0.00    -0.356 OA
HETATM   33  C   UNL     1       3.502  33.591  57.790  1.00  0.00     0.210 C 
ENDBRANCH  28  32
ENDBRANCH  25  26
ENDBRANCH  22  25
ENDBRANCH   1  21
TORSDOF 7
ENDMDL
MODEL 8
REMARK VINA RESULT:      -8.1      4.785      9.318
REMARK  7 active torsions:
REMARK  status: ('A' for Active; 'I' for Inactive)
REMARK       I    between atoms: N_2  and  C_3 
REMARK    1  A    between atoms: N_2  and  C_24 
REMARK    2  A    between atoms: C_3  and  C_4 
REMARK    3  A    between atoms: C_7  and  N_8 
REMARK    4  A    between atoms: C_11  and  N_12 
REMARK       I    between atoms: N_12  and  C_13 
REMARK    5  A    between atoms: C_13  and  C_14 
REMARK    6  A    between atoms: C_24  and  C_25 
REMARK    7  A    between atoms: C_27  and  O_28 
ROOT
HETATM    1  C   UNL     1       5.510  26.851  53.931  1.00  0.00     0.032 A 
HETATM    2  C   UNL     1       5.014  25.884  53.056  1.00  0.00     0.019 A 
HETATM    3  C   UNL     1       4.930  26.146  51.686  1.00  0.00     0.032 A 
HETATM    4  C   UNL     1       5.292  27.404  51.180  1.00  0.00     0.058 A 
HETATM    5  C   UNL     1       5.781  28.381  52.056  1.00  0.00     0.032 A 
HETATM    6  C   UNL     1       5.887  28.102  53.425  1.00  0.00     0.019 A 
ENDROOT
BRANCH   4   7
HETATM    7  N   UNL     1       5.090  27.673  49.796  1.00  0.00    -0.243 N 
HETATM    8  N   UNL     1       4.770  26.671  48.938  1.00  0.00    -0.178 NA
HETATM    9  C   UNL     1       4.528  27.283  47.778  1.00  0.00     0.170 A 
HETATM   10  C   UNL     1       4.702  28.675  47.861  1.00  0.00     0.071 A 
HETATM   11  C   UNL     1       5.115  28.894  49.153  1.00  0.00     0.149 A 
BRANCH  10  12
HETATM   12  N   UNL     1       4.501  29.679  46.935  1.00  0.00    -0.324 N 
HETATM   13  C   UNL     1       3.259  30.162  46.573  1.00  0.00     0.228 C 
HETATM   14  O   UNL     1       2.183  29.709  46.962  1.00  0.00    -0.273 OA
HETATM   15  H   UNL     1       5.329  30.097  46.517  1.00  0.00     0.169 HD
BRANCH  13  16
HETATM   16  C   UNL     1       3.289  31.405  45.689  1.00  0.00     0.104 C 
HETATM   17  C   UNL     1       4.668  31.680  45.138  1.00  0.00     0.181 C 
HETATM   18  O   UNL     1       5.327  32.436  46.167  1.00  0.00    -0.390 OA
HETATM   19  C   UNL     1       4.335  33.260  46.800  1.00  0.00     0.168 C 
HETATM   20  C   UNL     1       2.977  32.662  46.477  1.00  0.00     0.042 C 
ENDBRANCH  13  16
ENDBRANCH  10  12
ENDBRANCH   4   7
BRANCH   1  21
HETATM   21  C   UNL     1       5.521  26.648  55.405  1.00  0.00     0.253 C 
HETATM   22  N   UNL     1       6.479  25.828  56.010  1.00  0.00    -0.348 N 
HETATM   23  C   UNL     1       6.361  25.622  57.447  1.00  0.00     0.153 C 
HETATM   24  O   UNL     1       4.644  27.225  56.050  1.00  0.00    -0.267 OA
BRANCH  22  25
HETATM   25  C   UNL     1       7.777  25.503  55.417  1.00  0.00     0.164 C 
BRANCH  25  26
HETATM   26  C   UNL     1       7.862  24.140  54.759  1.00  0.00    -0.038 A 
HETATM   27  C   UNL     1       7.804  22.934  55.481  1.00  0.00     0.045 A 
HETATM   28  C   UNL     1       7.797  21.700  54.825  1.00  0.00     0.068 A 
HETATM   29  C   UNL     1       7.894  21.665  53.434  1.00  0.00     0.037 A 
HETATM   30  C   UNL     1       7.966  22.848  52.701  1.00  0.00     0.003 A 
HETATM   31  C   UNL     1       7.942  24.077  53.358  1.00  0.00     0.009 A 
BRANCH  28  32
HETATM   32  O   UNL     1       7.704  20.476  55.428  1.00  0.00    -0.356 OA
HETATM   33  C   UNL     1       8.686  20.181  56.416  1.00  0.00     0.210 C 
ENDBRANCH  28  32
ENDBRANCH  25  26
ENDBRANCH  22  25
ENDBRANCH   1  21
TORSDOF 7
ENDMDL
MODEL 9
REMARK VINA RESULT:      -7.9      2.872     10.437
REMARK  7 active torsions:
REMARK  status: ('A' for Active; 'I' for Inactive)
REMARK       I    between atoms: N_2  and  C_3 
REMARK    1  A    between atoms: N_2  and  C_24 
REMARK    2  A    between atoms: C_3  and  C_4 
REMARK    3  A    between atoms: C_7  and  N_8 
REMARK    4  A    between atoms: C_11  and  N_12 
REMARK       I    between atoms: N_12  and  C_13 
REMARK    5  A    between atoms: C_13  and  C_14 
REMARK    6  A    between atoms: C_24  and  C_25 
REMARK    7  A    between atoms: C_27  and  O_28 
ROOT
HETATM    1  C   UNL     1       5.548  31.599  58.345  1.00  0.00     0.032 A 
HETATM    2  C   UNL     1       4.792  30.605  57.721  1.00  0.00     0.019 A 
HETATM    3  C   UNL     1       5.374  29.379  57.388  1.00  0.00     0.032 A 
HETATM    4  C   UNL     1       6.738  29.151  57.627  1.00  0.00     0.058 A 
HETATM    5  C   UNL     1       7.502  30.149  58.244  1.00  0.00     0.032 A 
HETATM    6  C   UNL     1       6.906  31.367  58.599  1.00  0.00     0.019 A 
ENDROOT
BRANCH   4   7
HETATM    7  N   UNL     1       7.322  27.933  57.176  1.00  0.00    -0.243 N 
HETATM    8  N   UNL     1       8.440  27.442  57.769  1.00  0.00    -0.178 NA
HETATM    9  C   UNL     1       8.630  26.251  57.200  1.00  0.00     0.170 A 
HETATM   10  C   UNL     1       7.659  25.962  56.226  1.00  0.00     0.071 A 
HETATM   11  C   UNL     1       6.862  27.081  56.192  1.00  0.00     0.149 A 
BRANCH  10  12
HETATM   12  N   UNL     1       7.445  24.838  55.453  1.00  0.00    -0.324 N 
HETATM   13  C   UNL     1       7.757  23.553  55.851  1.00  0.00     0.228 C 
HETATM   14  O   UNL     1       8.335  23.257  56.896  1.00  0.00    -0.273 OA
HETATM   15  H   UNL     1       7.008  24.977  54.545  1.00  0.00     0.169 HD
BRANCH  13  16
HETATM   16  C   UNL     1       7.247  22.455  54.923  1.00  0.00     0.104 C 
HETATM   17  C   UNL     1       7.718  21.084  55.348  1.00  0.00     0.181 C 
HETATM   18  O   UNL     1       9.017  20.943  54.750  1.00  0.00    -0.390 OA
HETATM   19  C   UNL     1       8.987  21.628  53.488  1.00  0.00     0.168 C 
HETATM   20  C   UNL     1       7.815  22.594  53.524  1.00  0.00     0.042 C 
ENDBRANCH  13  16
ENDBRANCH  10  12
ENDBRANCH   4   7
BRANCH   1  21
HETATM   21  C   UNL     1       4.994  32.951  58.624  1.00  0.00     0.253 C 
HETATM   22  N   UNL     1       4.205  33.185  59.754  1.00  0.00    -0.348 N 
HETATM   23  C   UNL     1       3.637  34.518  59.902  1.00  0.00     0.153 C 
HETATM   24  O   UNL     1       5.255  33.835  57.807  1.00  0.00    -0.267 OA
BRANCH  22  25
HETATM   25  C   UNL     1       4.235  32.360  60.964  1.00  0.00     0.164 C 
BRANCH  25  26
HETATM   26  C   UNL     1       5.257  32.776  62.003  1.00  0.00    -0.038 A 
HETATM   27  C   UNL     1       4.932  33.547  63.135  1.00  0.00     0.045 A 
HETATM   28  C   UNL     1       5.890  33.831  64.112  1.00  0.00     0.068 A 
HETATM   29  C   UNL     1       7.198  33.382  63.938  1.00  0.00     0.037 A 
HETATM   30  C   UNL     1       7.544  32.630  62.817  1.00  0.00     0.003 A 
HETATM   31  C   UNL     1       6.578  32.322  61.860  1.00  0.00     0.009 A 
BRANCH  28  32
HETATM   32  O   UNL     1       5.668  34.535  65.264  1.00  0.00    -0.356 OA
HETATM   33  C   UNL     1       4.774  33.948  66.203  1.00  0.00     0.210 C 
ENDBRANCH  28  32
ENDBRANCH  25  26
ENDBRANCH  22  25
ENDBRANCH   1  21
TORSDOF 7
ENDMDL
MODEL 10
REMARK VINA RESULT:      -7.9      1.835      2.664
REMARK  7 active torsions:
REMARK  status: ('A' for Active; 'I' for Inactive)
REMARK       I    between atoms: N_2  and  C_3 
REMARK    1  A    between atoms: N_2  and  C_24 
REMARK    2  A    between atoms: C_3  and  C_4 
REMARK    3  A    between atoms: C_7  and  N_8 
REMARK    4  A    between atoms: C_11  and  N_12 
REMARK       I    between atoms: N_12  and  C_13 
REMARK    5  A    between atoms: C_13  and  C_14 
REMARK    6  A    between atoms: C_24  and  C_25 
REMARK    7  A    between atoms: C_27  and  O_28 
ROOT
HETATM    1  C   UNL     1       6.108  29.261  55.650  1.00  0.00     0.032 A 
HETATM    2  C   UNL     1       5.274  30.174  56.297  1.00  0.00     0.019 A 
HETATM    3  C   UNL     1       5.728  30.878  57.415  1.00  0.00     0.032 A 
HETATM    4  C   UNL     1       7.009  30.637  57.934  1.00  0.00     0.058 A 
HETATM    5  C   UNL     1       7.846  29.714  57.294  1.00  0.00     0.032 A 
HETATM    6  C   UNL     1       7.393  29.031  56.157  1.00  0.00     0.019 A 
ENDROOT
BRANCH   4   7
HETATM    7  N   UNL     1       7.398  31.290  59.138  1.00  0.00    -0.243 N 
HETATM    8  N   UNL     1       8.708  31.373  59.486  1.00  0.00    -0.178 NA
HETATM    9  C   UNL     1       8.721  32.148  60.572  1.00  0.00     0.170 A 
HETATM   10  C   UNL     1       7.432  32.560  60.951  1.00  0.00     0.071 A 
HETATM   11  C   UNL     1       6.596  31.953  60.046  1.00  0.00     0.149 A 
BRANCH  10  12
HETATM   12  N   UNL     1       7.000  33.401  61.957  1.00  0.00    -0.324 N 
HETATM   13  C   UNL     1       6.277  32.985  63.058  1.00  0.00     0.228 C 
HETATM   14  O   UNL     1       5.858  31.842  63.238  1.00  0.00    -0.273 OA
HETATM   15  H   UNL     1       7.257  34.382  61.883  1.00  0.00     0.169 HD
BRANCH  13  16
HETATM   16  C   UNL     1       6.085  34.047  64.136  1.00  0.00     0.104 C 
HETATM   17  C   UNL     1       5.207  33.562  65.265  1.00  0.00     0.181 C 
HETATM   18  O   UNL     1       3.865  33.819  64.819  1.00  0.00    -0.390 OA
HETATM   19  C   UNL     1       3.893  35.024  64.039  1.00  0.00     0.168 C 
HETATM   20  C   UNL     1       5.332  35.252  63.609  1.00  0.00     0.042 C 
ENDBRANCH  13  16
ENDBRANCH  10  12
ENDBRANCH   4   7
BRANCH   1  21
HETATM   21  C   UNL     1       5.629  28.420  54.520  1.00  0.00     0.253 C 
HETATM   22  N   UNL     1       5.590  27.026  54.629  1.00  0.00    -0.348 N 
HETATM   23  C   UNL     1       5.187  26.280  53.445  1.00  0.00     0.153 C 
HETATM   24  O   UNL     1       5.289  29.011  53.495  1.00  0.00    -0.267 OA
BRANCH  22  25
HETATM   25  C   UNL     1       5.524  26.302  55.900  1.00  0.00     0.164 C 
BRANCH  25  26
HETATM   26  C   UNL     1       6.659  25.328  56.146  1.00  0.00    -0.038 A 
HETATM   27  C   UNL     1       6.865  24.176  55.365  1.00  0.00     0.045 A 
HETATM   28  C   UNL     1       7.976  23.354  55.572  1.00  0.00     0.068 A 
HETATM   29  C   UNL     1       8.868  23.657  56.600  1.00  0.00     0.037 A 
HETATM   30  C   UNL     1       8.674  24.786  57.394  1.00  0.00     0.003 A 
HETATM   31  C   UNL     1       7.581  25.620  57.163  1.00  0.00     0.009 A 
BRANCH  28  32
HETATM   32  O   UNL     1       8.288  22.238  54.846  1.00  0.00    -0.356 OA
HETATM   33  C   UNL     1       8.003  22.289  53.452  1.00  0.00     0.210 C 
ENDBRANCH  28  32
ENDBRANCH  25  26
ENDBRANCH  22  25
ENDBRANCH   1  21
TORSDOF 7
ENDMDL
