MODEL 1
REMARK VINA RESULT:      -9.8      0.000      0.000
REMARK  4 active torsions:
REMARK  status: ('A' for Active; 'I' for Inactive)
REMARK    1  A    between atoms: C_7  and  C_8 
REMARK    2  A    between atoms: C_8  and  N_9 
REMARK    3  A    between atoms: N_15  and  C_17 
REMARK    4  A    between atoms: C_21  and  C_22 
ROOT
HETATM    1  N   UNL     1       6.607  29.513  56.857  1.00  0.00    -0.067 N 
HETATM    2  H   UNL     1       6.327  30.505  56.839  1.00  0.00     0.280 HD
HETATM    3  C   UNL     1       7.255  29.254  55.527  1.00  0.00     0.236 C 
HETATM    4  C   UNL     1       7.521  27.760  55.326  1.00  0.00     0.039 C 
HETATM    5  C   UNL     1       6.269  26.858  55.516  1.00  0.00    -0.013 C 
HETATM    6  C   UNL     1       5.246  27.008  54.355  1.00  0.00     0.245 C 
HETATM    7  N   UNL     1       5.786  26.450  53.060  1.00  0.00    -0.065 N 
HETATM    8  H   UNL     1       6.657  26.927  52.788  1.00  0.00     0.280 HD
HETATM    9  C   UNL     1       6.121  24.967  53.164  1.00  0.00     0.244 C 
HETATM   10  C   UNL     1       7.165  24.762  54.270  1.00  0.00     0.045 C 
HETATM   11  C   UNL     1       6.686  25.360  55.606  1.00  0.00     0.022 C 
HETATM   12  C   UNL     1       5.603  27.237  56.873  1.00  0.00     0.039 C 
HETATM   13  C   UNL     1       5.347  28.730  57.067  1.00  0.00     0.236 C 
ENDROOT
BRANCH   7  14
HETATM   14  C   UNL     1       4.824  26.675  51.926  1.00  0.00     0.188 A 
HETATM   15  C   UNL     1       5.319  27.503  50.774  1.00  0.00     0.035 A 
HETATM   16  C   UNL     1       5.153  26.019  50.617  1.00  0.00     0.035 A 
ENDBRANCH   7  14
BRANCH  10  17
HETATM   17  C   UNL     1       7.521  23.294  54.407  1.00  0.00    -0.052 A 
HETATM   18  C   UNL     1       7.848  22.549  53.263  1.00  0.00     0.007 A 
HETATM   19  C   UNL     1       8.161  21.192  53.364  1.00  0.00     0.001 A 
HETATM   20  C   UNL     1       8.153  20.562  54.605  1.00  0.00     0.000 A 
HETATM   21  C   UNL     1       7.835  21.288  55.749  1.00  0.00     0.001 A 
HETATM   22  C   UNL     1       7.521  22.645  55.654  1.00  0.00     0.007 A 
ENDBRANCH  10  17
BRANCH   1  23
HETATM   23  C   UNL     1       7.560  29.482  58.053  1.00  0.00     0.277 C 
BRANCH  23  24
HETATM   24  C   UNL     1       7.339  30.641  58.949  1.00  0.00     0.011 A 
HETATM   25  C   UNL     1       8.001  30.985  60.122  1.00  0.00     0.035 A 
HETATM   26  C   UNL     1       9.166  30.375  60.817  1.00  0.00     0.070 C 
HETATM   27  N   UNL     1       7.374  32.121  60.585  1.00  0.00    -0.278 N 
HETATM   28  C   UNL     1       7.670  32.905  61.765  1.00  0.00     0.179 C 
HETATM   29  N   UNL     1       6.353  32.505  59.801  1.00  0.00    -0.185 NA
HETATM   30  C   UNL     1       6.370  31.653  58.784  1.00  0.00     0.149 A 
ENDBRANCH  23  24
ENDBRANCH   1  23
TORSDOF 4
ENDMDL
MODEL 2
REMARK VINA RESULT:      -8.8      2.971      8.620
REMARK  4 active torsions:
REMARK  status: ('A' for Active; 'I' for Inactive)
REMARK    1  A    between atoms: C_7  and  C_8 
REMARK    2  A    between atoms: C_8  and  N_9 
REMARK    3  A    between atoms: N_15  and  C_17 
REMARK    4  A    between atoms: C_21  and  C_22 
ROOT
HETATM    1  N   UNL     1       5.159  26.508  51.535  1.00  0.00    -0.067 N 
HETATM    2  H   UNL     1       4.736  25.813  50.901  1.00  0.00     0.280 HD
HETATM    3  C   UNL     1       6.493  25.938  51.924  1.00  0.00     0.236 C 
HETATM    4  C   UNL     1       7.139  26.761  53.041  1.00  0.00     0.039 C 
HETATM    5  C   UNL     1       6.237  26.957  54.292  1.00  0.00    -0.013 C 
HETATM    6  C   UNL     1       6.070  25.650  55.115  1.00  0.00     0.245 C 
HETATM    7  N   UNL     1       7.364  25.239  55.778  1.00  0.00    -0.065 N 
HETATM    8  H   UNL     1       8.104  25.089  55.079  1.00  0.00     0.280 HD
HETATM    9  C   UNL     1       7.885  26.302  56.737  1.00  0.00     0.244 C 
HETATM   10  C   UNL     1       8.112  27.609  55.968  1.00  0.00     0.045 C 
HETATM   11  C   UNL     1       6.835  28.049  55.228  1.00  0.00     0.022 C 
HETATM   12  C   UNL     1       4.847  27.470  53.808  1.00  0.00     0.039 C 
HETATM   13  C   UNL     1       4.214  26.646  52.689  1.00  0.00     0.236 C 
ENDROOT
BRANCH   7  14
HETATM   14  C   UNL     1       7.213  23.930  56.503  1.00  0.00     0.188 A 
HETATM   15  C   UNL     1       7.809  22.719  55.842  1.00  0.00     0.035 A 
HETATM   16  C   UNL     1       8.466  23.312  57.055  1.00  0.00     0.035 A 
ENDBRANCH   7  14
BRANCH  10  17
HETATM   17  C   UNL     1       8.627  28.695  56.892  1.00  0.00    -0.052 A 
HETATM   18  C   UNL     1       9.851  29.323  56.611  1.00  0.00     0.007 A 
HETATM   19  C   UNL     1      10.354  30.312  57.459  1.00  0.00     0.001 A 
HETATM   20  C   UNL     1       9.643  30.688  58.595  1.00  0.00     0.000 A 
HETATM   21  C   UNL     1       8.427  30.078  58.885  1.00  0.00     0.001 A 
HETATM   22  C   UNL     1       7.919  29.088  58.041  1.00  0.00     0.007 A 
ENDBRANCH  10  17
BRANCH   1  23
HETATM   23  C   UNL     1       5.225  27.746  50.639  1.00  0.00     0.277 C 
BRANCH  23  24
HETATM   24  C   UNL     1       4.452  27.549  49.390  1.00  0.00     0.011 A 
HETATM   25  C   UNL     1       3.160  27.959  49.081  1.00  0.00     0.035 A 
HETATM   26  C   UNL     1       2.171  28.771  49.839  1.00  0.00     0.070 C 
HETATM   27  N   UNL     1       2.910  27.478  47.814  1.00  0.00    -0.278 N 
HETATM   28  C   UNL     1       1.718  27.627  47.006  1.00  0.00     0.179 C 
HETATM   29  N   UNL     1       3.940  26.779  47.312  1.00  0.00    -0.185 NA
HETATM   30  C   UNL     1       4.892  26.873  48.232  1.00  0.00     0.149 A 
ENDBRANCH  23  24
ENDBRANCH   1  23
TORSDOF 4
ENDMDL
MODEL 3
REMARK VINA RESULT:      -8.7      2.040      8.668
REMARK  4 active torsions:
REMARK  status: ('A' for Active; 'I' for Inactive)
REMARK    1  A    between atoms: C_7  and  C_8 
REMARK    2  A    between atoms: C_8  and  N_9 
REMARK    3  A    between atoms: N_15  and  C_17 
REMARK    4  A    between atoms: C_21  and  C_22 
ROOT
HETATM    1  N   UNL     1       6.605  26.091  55.057  1.00  0.00    -0.067 N 
HETATM    2  H   UNL     1       6.146  25.597  54.277  1.00  0.00     0.280 HD
HETATM    3  C   UNL     1       5.489  26.622  55.910  1.00  0.00     0.236 C 
HETATM    4  C   UNL     1       6.022  27.570  56.987  1.00  0.00     0.039 C 
HETATM    5  C   UNL     1       6.898  28.732  56.438  1.00  0.00    -0.013 C 
HETATM    6  C   UNL     1       6.062  29.794  55.672  1.00  0.00     0.245 C 
HETATM    7  N   UNL     1       5.149  30.560  56.598  1.00  0.00    -0.065 N 
HETATM    8  H   UNL     1       4.499  29.925  57.083  1.00  0.00     0.280 HD
HETATM    9  C   UNL     1       5.918  31.302  57.685  1.00  0.00     0.244 C 
HETATM   10  C   UNL     1       6.731  30.293  58.506  1.00  0.00     0.045 C 
HETATM   11  C   UNL     1       7.645  29.446  57.602  1.00  0.00     0.022 C 
HETATM   12  C   UNL     1       7.979  28.117  55.499  1.00  0.00     0.039 C 
HETATM   13  C   UNL     1       7.438  27.168  54.432  1.00  0.00     0.236 C 
ENDROOT
BRANCH   7  14
HETATM   14  C   UNL     1       4.285  31.527  55.837  1.00  0.00     0.188 A 
HETATM   15  C   UNL     1       2.799  31.326  55.932  1.00  0.00     0.035 A 
HETATM   16  C   UNL     1       3.449  32.475  56.648  1.00  0.00     0.035 A 
ENDBRANCH   7  14
BRANCH  10  17
HETATM   17  C   UNL     1       7.515  30.996  59.597  1.00  0.00    -0.052 A 
HETATM   18  C   UNL     1       8.752  30.476  60.009  1.00  0.00     0.007 A 
HETATM   19  C   UNL     1       9.483  31.096  61.024  1.00  0.00     0.001 A 
HETATM   20  C   UNL     1       8.990  32.243  61.640  1.00  0.00     0.000 A 
HETATM   21  C   UNL     1       7.767  32.774  61.241  1.00  0.00     0.001 A 
HETATM   22  C   UNL     1       7.033  32.157  60.226  1.00  0.00     0.007 A 
ENDBRANCH  10  17
BRANCH   1  23
HETATM   23  C   UNL     1       7.424  24.968  55.695  1.00  0.00     0.277 C 
BRANCH  23  24
HETATM   24  C   UNL     1       7.529  23.797  54.793  1.00  0.00     0.011 A 
HETATM   25  C   UNL     1       7.941  22.501  55.079  1.00  0.00     0.035 A 
HETATM   26  C   UNL     1       8.333  21.844  56.355  1.00  0.00     0.070 C 
HETATM   27  N   UNL     1       7.899  21.823  53.879  1.00  0.00    -0.278 N 
HETATM   28  C   UNL     1       8.217  20.438  53.608  1.00  0.00     0.179 C 
HETATM   29  N   UNL     1       7.511  22.603  52.857  1.00  0.00    -0.185 NA
HETATM   30  C   UNL     1       7.228  23.774  53.414  1.00  0.00     0.149 A 
ENDBRANCH  23  24
ENDBRANCH   1  23
TORSDOF 4
ENDMDL
MODEL 4
REMARK VINA RESULT:      -8.6      3.066      7.567
REMARK  4 active torsions:
REMARK  status: ('A' for Active; 'I' for Inactive)
REMARK    1  A    between atoms: C_7  and  C_8 
REMARK    2  A    between atoms: C_8  and  N_9 
REMARK    3  A    between atoms: N_15  and  C_17 
REMARK    4  A    between atoms: C_21  and  C_22 
ROOT
HETATM    1  N   UNL     1       4.275  28.196  51.446  1.00  0.00    -0.067 N 
HETATM    2  H   UNL     1       3.910  29.157  51.378  1.00  0.00     0.280 HD
HETATM    3  C   UNL     1       3.964  27.744  52.844  1.00  0.00     0.236 C 
HETATM    4  C   UNL     1       4.649  26.412  53.158  1.00  0.00     0.039 C 
HETATM    5  C   UNL     1       6.183  26.408  52.906  1.00  0.00    -0.013 C 
HETATM    6  C   UNL     1       6.959  27.252  53.954  1.00  0.00     0.245 C 
HETATM    7  N   UNL     1       6.910  26.622  55.326  1.00  0.00    -0.065 N 
HETATM    8  H   UNL     1       5.939  26.519  55.649  1.00  0.00     0.280 HD
HETATM    9  C   UNL     1       7.521  25.226  55.342  1.00  0.00     0.244 C 
HETATM   10  C   UNL     1       6.763  24.331  54.354  1.00  0.00     0.045 C 
HETATM   11  C   UNL     1       6.737  24.954  52.946  1.00  0.00     0.022 C 
HETATM   12  C   UNL     1       6.436  26.964  51.472  1.00  0.00     0.039 C 
HETATM   13  C   UNL     1       5.744  28.290  51.166  1.00  0.00     0.236 C 
ENDROOT
BRANCH   7  14
HETATM   14  C   UNL     1       7.593  27.488  56.349  1.00  0.00     0.188 A 
HETATM   15  C   UNL     1       6.715  28.126  57.388  1.00  0.00     0.035 A 
HETATM   16  C   UNL     1       7.612  26.981  57.762  1.00  0.00     0.035 A 
ENDBRANCH   7  14
BRANCH  10  17
HETATM   17  C   UNL     1       7.346  22.932  54.339  1.00  0.00    -0.052 A 
HETATM   18  C   UNL     1       7.621  22.307  53.112  1.00  0.00     0.007 A 
HETATM   19  C   UNL     1       8.141  21.011  53.075  1.00  0.00     0.001 A 
HETATM   20  C   UNL     1       8.395  20.325  54.258  1.00  0.00     0.000 A 
HETATM   21  C   UNL     1       8.132  20.932  55.483  1.00  0.00     0.001 A 
HETATM   22  C   UNL     1       7.611  22.227  55.526  1.00  0.00     0.007 A 
ENDBRANCH  10  17
BRANCH   1  23
HETATM   23  C   UNL     1       3.483  27.484  50.349  1.00  0.00     0.277 C 
BRANCH  23  24
HETATM   24  C   UNL     1       3.054  28.431  49.292  1.00  0.00     0.011 A 
HETATM   25  C   UNL     1       3.710  28.800  48.123  1.00  0.00     0.035 A 
HETATM   26  C   UNL     1       4.984  28.335  47.512  1.00  0.00     0.070 C 
HETATM   27  N   UNL     1       2.902  29.743  47.525  1.00  0.00    -0.278 N 
HETATM   28  C   UNL     1       3.103  30.451  46.279  1.00  0.00     0.179 C 
HETATM   29  N   UNL     1       1.799  30.010  48.242  1.00  0.00    -0.185 NA
HETATM   30  C   UNL     1       1.857  29.177  49.273  1.00  0.00     0.149 A 
ENDBRANCH  23  24
ENDBRANCH   1  23
TORSDOF 4
ENDMDL
MODEL 5
REMARK VINA RESULT:      -8.2      1.251      4.553
REMARK  4 active torsions:
REMARK  status: ('A' for Active; 'I' for Inactive)
REMARK    1  A    between atoms: C_7  and  C_8 
REMARK    2  A    between atoms: C_8  and  N_9 
REMARK    3  A    between atoms: N_15  and  C_17 
REMARK    4  A    between atoms: C_21  and  C_22 
ROOT
HETATM    1  N   UNL     1       7.520  28.867  57.546  1.00  0.00    -0.067 N 
HETATM    2  H   UNL     1       7.901  28.720  58.493  1.00  0.00     0.280 HD
HETATM    3  C   UNL     1       6.607  27.702  57.295  1.00  0.00     0.236 C 
HETATM    4  C   UNL     1       6.141  27.671  55.837  1.00  0.00     0.039 C 
HETATM    5  C   UNL     1       7.297  27.700  54.797  1.00  0.00    -0.013 C 
HETATM    6  C   UNL     1       8.090  26.365  54.753  1.00  0.00     0.245 C 
HETATM    7  N   UNL     1       7.255  25.237  54.195  1.00  0.00    -0.065 N 
HETATM    8  H   UNL     1       6.408  25.092  54.761  1.00  0.00     0.280 HD
HETATM    9  C   UNL     1       6.781  25.518  52.774  1.00  0.00     0.244 C 
HETATM   10  C   UNL     1       5.951  26.808  52.763  1.00  0.00     0.045 C 
HETATM   11  C   UNL     1       6.739  27.983  53.371  1.00  0.00     0.022 C 
HETATM   12  C   UNL     1       8.247  28.879  55.167  1.00  0.00     0.039 C 
HETATM   13  C   UNL     1       8.701  28.905  56.625  1.00  0.00     0.236 C 
ENDROOT
BRANCH   7  14
HETATM   14  C   UNL     1       8.003  23.933  54.234  1.00  0.00     0.188 A 
HETATM   15  C   UNL     1       7.362  22.810  54.999  1.00  0.00     0.035 A 
HETATM   16  C   UNL     1       7.389  22.777  53.497  1.00  0.00     0.035 A 
ENDBRANCH   7  14
BRANCH  10  17
HETATM   17  C   UNL     1       5.465  27.122  51.362  1.00  0.00    -0.052 A 
HETATM   18  C   UNL     1       5.440  28.454  50.918  1.00  0.00     0.007 A 
HETATM   19  C   UNL     1       4.979  28.769  49.638  1.00  0.00     0.001 A 
HETATM   20  C   UNL     1       4.539  27.761  48.785  1.00  0.00     0.000 A 
HETATM   21  C   UNL     1       4.562  26.435  49.209  1.00  0.00     0.001 A 
HETATM   22  C   UNL     1       5.022  26.115  50.487  1.00  0.00     0.007 A 
ENDBRANCH  10  17
BRANCH   1  23
HETATM   23  C   UNL     1       6.815  30.215  57.701  1.00  0.00     0.277 C 
BRANCH  23  24
HETATM   24  C   UNL     1       7.175  30.868  58.982  1.00  0.00     0.011 A 
HETATM   25  C   UNL     1       6.579  31.953  59.614  1.00  0.00     0.035 A 
HETATM   26  C   UNL     1       5.374  32.757  59.277  1.00  0.00     0.070 C 
HETATM   27  N   UNL     1       7.332  32.184  60.746  1.00  0.00    -0.278 N 
HETATM   28  C   UNL     1       7.146  33.190  61.770  1.00  0.00     0.179 C 
HETATM   29  N   UNL     1       8.368  31.338  60.860  1.00  0.00    -0.185 NA
HETATM   30  C   UNL     1       8.240  30.506  59.834  1.00  0.00     0.149 A 
ENDBRANCH  23  24
ENDBRANCH   1  23
TORSDOF 4
ENDMDL
MODEL 6
REMARK VINA RESULT:      -8.1      1.935      8.862
REMARK  4 active torsions:
REMARK  status: ('A' for Active; 'I' for Inactive)
REMARK    1  A    between atoms: C_7  and  C_8 
REMARK    2  A    between atoms: C_8  and  N_9 
REMARK    3  A    between atoms: N_15  and  C_17 
REMARK    4  A    between atoms: C_21  and  C_22 
ROOT
HETATM    1  N   UNL     1       5.384  27.462  55.304  1.00  0.00    -0.067 N 
HETATM    2  H   UNL     1       4.866  27.162  54.465  1.00  0.00     0.280 HD
HETATM    3  C   UNL     1       4.392  28.220  56.139  1.00  0.00     0.236 C 
HETATM    4  C   UNL     1       5.081  28.918  57.315  1.00  0.00     0.039 C 
HETATM    5  C   UNL     1       6.271  29.832  56.906  1.00  0.00    -0.013 C 
HETATM    6  C   UNL     1       5.805  31.127  56.186  1.00  0.00     0.245 C 
HETATM    7  N   UNL     1       5.066  32.052  57.123  1.00  0.00    -0.065 N 
HETATM    8  H   UNL     1       4.238  31.587  57.521  1.00  0.00     0.280 HD
HETATM    9  C   UNL     1       5.926  32.487  58.304  1.00  0.00     0.244 C 
HETATM   10  C   UNL     1       6.380  31.245  59.082  1.00  0.00     0.045 C 
HETATM   11  C   UNL     1       7.097  30.242  58.160  1.00  0.00     0.022 C 
HETATM   12  C   UNL     1       7.213  29.007  55.978  1.00  0.00     0.039 C 
HETATM   13  C   UNL     1       6.516  28.311  54.811  1.00  0.00     0.236 C 
ENDROOT
BRANCH   7  14
HETATM   14  C   UNL     1       4.548  33.263  56.398  1.00  0.00     0.188 A 
HETATM   15  C   UNL     1       3.167  33.730  56.764  1.00  0.00     0.035 A 
HETATM   16  C   UNL     1       4.369  34.514  57.209  1.00  0.00     0.035 A 
ENDBRANCH   7  14
BRANCH  10  17
HETATM   17  C   UNL     1       7.244  31.639  60.264  1.00  0.00    -0.052 A 
HETATM   18  C   UNL     1       6.649  32.209  61.400  1.00  0.00     0.007 A 
HETATM   19  C   UNL     1       7.427  32.596  62.493  1.00  0.00     0.001 A 
HETATM   20  C   UNL     1       8.807  32.418  62.467  1.00  0.00     0.000 A 
HETATM   21  C   UNL     1       9.413  31.851  61.350  1.00  0.00     0.001 A 
HETATM   22  C   UNL     1       8.639  31.462  60.255  1.00  0.00     0.007 A 
ENDBRANCH  10  17
BRANCH   1  23
HETATM   23  C   UNL     1       5.827  26.121  55.891  1.00  0.00     0.277 C 
BRANCH  23  24
HETATM   24  C   UNL     1       6.151  25.146  54.824  1.00  0.00     0.011 A 
HETATM   25  C   UNL     1       7.177  24.209  54.771  1.00  0.00     0.035 A 
HETATM   26  C   UNL     1       8.218  23.822  55.760  1.00  0.00     0.070 C 
HETATM   27  N   UNL     1       7.057  23.595  53.542  1.00  0.00    -0.278 N 
HETATM   28  C   UNL     1       7.863  22.535  52.975  1.00  0.00     0.179 C 
HETATM   29  N   UNL     1       6.047  24.092  52.811  1.00  0.00    -0.185 NA
HETATM   30  C   UNL     1       5.462  24.981  53.604  1.00  0.00     0.149 A 
ENDBRANCH  23  24
ENDBRANCH   1  23
TORSDOF 4
ENDMDL
MODEL 7
REMARK VINA RESULT:      -7.9      3.015      7.387
REMARK  4 active torsions:
REMARK  status: ('A' for Active; 'I' for Inactive)
REMARK    1  A    between atoms: C_7  and  C_8 
REMARK    2  A    between atoms: C_8  and  N_9 
REMARK    3  A    between atoms: N_15  and  C_17 
REMARK    4  A    between atoms: C_21  and  C_22 
ROOT
HETATM    1  N   UNL     1       3.952  29.574  52.066  1.00  0.00    -0.067 N 
HETATM    2  H   UNL     1       3.610  30.546  52.108  1.00  0.00     0.280 HD
HETATM    3  C   UNL     1       3.753  29.017  53.447  1.00  0.00     0.236 C 
HETATM    4  C   UNL     1       4.424  27.649  53.592  1.00  0.00     0.039 C 
HETATM    5  C   UNL     1       5.930  27.632  53.201  1.00  0.00    -0.013 C 
HETATM    6  C   UNL     1       6.820  28.371  54.238  1.00  0.00     0.245 C 
HETATM    7  N   UNL     1       6.875  27.633  55.554  1.00  0.00    -0.065 N 
HETATM    8  H   UNL     1       5.933  27.525  55.955  1.00  0.00     0.280 HD
HETATM    9  C   UNL     1       7.444  26.227  55.404  1.00  0.00     0.244 C 
HETATM   10  C   UNL     1       6.575  25.432  54.421  1.00  0.00     0.045 C 
HETATM   11  C   UNL     1       6.442  26.167  53.075  1.00  0.00     0.022 C 
HETATM   12  C   UNL     1       6.070  28.297  51.799  1.00  0.00     0.039 C 
HETATM   13  C   UNL     1       5.393  29.658  51.663  1.00  0.00     0.236 C 
ENDROOT
BRANCH   7  14
HETATM   14  C   UNL     1       7.671  28.397  56.576  1.00  0.00     0.188 A 
HETATM   15  C   UNL     1       6.889  29.159  57.609  1.00  0.00     0.035 A 
HETATM   16  C   UNL     1       7.614  27.899  57.991  1.00  0.00     0.035 A 
ENDBRANCH   7  14
BRANCH  10  17
HETATM   17  C   UNL     1       7.114  24.026  54.243  1.00  0.00    -0.052 A 
HETATM   18  C   UNL     1       7.269  23.194  55.363  1.00  0.00     0.007 A 
HETATM   19  C   UNL     1       7.780  21.902  55.225  1.00  0.00     0.001 A 
HETATM   20  C   UNL     1       8.142  21.424  53.969  1.00  0.00     0.000 A 
HETATM   21  C   UNL     1       7.991  22.235  52.848  1.00  0.00     0.001 A 
HETATM   22  C   UNL     1       7.479  23.527  52.981  1.00  0.00     0.007 A 
ENDBRANCH  10  17
BRANCH   1  23
HETATM   23  C   UNL     1       3.045  28.971  50.993  1.00  0.00     0.277 C 
BRANCH  23  24
HETATM   24  C   UNL     1       3.381  29.493  49.648  1.00  0.00     0.011 A 
HETATM   25  C   UNL     1       3.062  30.718  49.074  1.00  0.00     0.035 A 
HETATM   26  C   UNL     1       2.366  31.915  49.617  1.00  0.00     0.070 C 
HETATM   27  N   UNL     1       3.571  30.674  47.794  1.00  0.00    -0.278 N 
HETATM   28  C   UNL     1       3.530  31.692  46.765  1.00  0.00     0.179 C 
HETATM   29  N   UNL     1       4.167  29.504  47.513  1.00  0.00    -0.185 NA
HETATM   30  C   UNL     1       4.109  28.816  48.646  1.00  0.00     0.149 A 
ENDBRANCH  23  24
ENDBRANCH   1  23
TORSDOF 4
ENDMDL
MODEL 8
REMARK VINA RESULT:      -7.8      3.376      8.351
REMARK  4 active torsions:
REMARK  status: ('A' for Active; 'I' for Inactive)
REMARK    1  A    between atoms: C_7  and  C_8 
REMARK    2  A    between atoms: C_8  and  N_9 
REMARK    3  A    between atoms: N_15  and  C_17 
REMARK    4  A    between atoms: C_21  and  C_22 
ROOT
HETATM    1  N   UNL     1       3.551  28.483  51.254  1.00  0.00    -0.067 N 
HETATM    2  H   UNL     1       2.931  28.031  50.565  1.00  0.00     0.280 HD
HETATM    3  C   UNL     1       4.894  27.835  51.072  1.00  0.00     0.236 C 
HETATM    4  C   UNL     1       5.861  28.251  52.184  1.00  0.00     0.039 C 
HETATM    5  C   UNL     1       5.322  28.009  53.622  1.00  0.00    -0.013 C 
HETATM    6  C   UNL     1       5.272  26.500  53.992  1.00  0.00     0.245 C 
HETATM    7  N   UNL     1       6.656  25.911  54.121  1.00  0.00    -0.065 N 
HETATM    8  H   UNL     1       7.183  26.012  53.242  1.00  0.00     0.280 HD
HETATM    9  C   UNL     1       7.481  26.604  55.199  1.00  0.00     0.244 C 
HETATM   10  C   UNL     1       7.602  28.096  54.862  1.00  0.00     0.045 C 
HETATM   11  C   UNL     1       6.216  28.737  54.668  1.00  0.00     0.022 C 
HETATM   12  C   UNL     1       3.897  28.633  53.713  1.00  0.00     0.039 C 
HETATM   13  C   UNL     1       2.941  28.217  52.596  1.00  0.00     0.236 C 
ENDROOT
BRANCH   7  14
HETATM   14  C   UNL     1       6.597  24.434  54.396  1.00  0.00     0.188 A 
HETATM   15  C   UNL     1       7.290  23.535  53.412  1.00  0.00     0.035 A 
HETATM   16  C   UNL     1       7.887  23.762  54.771  1.00  0.00     0.035 A 
ENDBRANCH   7  14
BRANCH  10  17
HETATM   17  C   UNL     1       8.414  28.821  55.917  1.00  0.00    -0.052 A 
HETATM   18  C   UNL     1       9.677  29.338  55.588  1.00  0.00     0.007 A 
HETATM   19  C   UNL     1      10.450  29.994  56.549  1.00  0.00     0.001 A 
HETATM   20  C   UNL     1       9.973  30.142  57.848  1.00  0.00     0.000 A 
HETATM   21  C   UNL     1       8.722  29.638  58.189  1.00  0.00     0.001 A 
HETATM   22  C   UNL     1       7.945  28.983  57.232  1.00  0.00     0.007 A 
ENDBRANCH  10  17
BRANCH   1  23
HETATM   23  C   UNL     1       3.480  29.948  50.822  1.00  0.00     0.277 C 
BRANCH  23  24
HETATM   24  C   UNL     1       2.548  30.131  49.685  1.00  0.00     0.011 A 
HETATM   25  C   UNL     1       2.724  29.810  48.343  1.00  0.00     0.035 A 
HETATM   26  C   UNL     1       3.833  29.129  47.624  1.00  0.00     0.070 C 
HETATM   27  N   UNL     1       1.576  30.231  47.706  1.00  0.00    -0.278 N 
HETATM   28  C   UNL     1       1.227  30.131  46.305  1.00  0.00     0.179 C 
HETATM   29  N   UNL     1       0.702  30.812  48.544  1.00  0.00    -0.185 NA
HETATM   30  C   UNL     1       1.257  30.697  49.744  1.00  0.00     0.149 A 
ENDBRANCH  23  24
ENDBRANCH   1  23
TORSDOF 4
ENDMDL
MODEL 9
REMARK VINA RESULT:      -7.8      3.402      7.598
REMARK  4 active torsions:
REMARK  status: ('A' for Active; 'I' for Inactive)
REMARK    1  A    between atoms: C_7  and  C_8 
REMARK    2  A    between atoms: C_8  and  N_9 
REMARK    3  A    between atoms: N_15  and  C_17 
REMARK    4  A    between atoms: C_21  and  C_22 
ROOT
HETATM    1  N   UNL     1       3.927  29.585  51.485  1.00  0.00    -0.067 N 
HETATM    2  H   UNL     1       3.577  30.554  51.442  1.00  0.00     0.280 HD
HETATM    3  C   UNL     1       3.630  29.111  52.879  1.00  0.00     0.236 C 
HETATM    4  C   UNL     1       4.296  27.761  53.156  1.00  0.00     0.039 C 
HETATM    5  C   UNL     1       5.827  27.737  52.880  1.00  0.00    -0.013 C 
HETATM    6  C   UNL     1       6.633  28.547  53.932  1.00  0.00     0.245 C 
HETATM    7  N   UNL     1       6.594  27.889  55.291  1.00  0.00    -0.065 N 
HETATM    8  H   UNL     1       5.626  27.796  55.627  1.00  0.00     0.280 HD
HETATM    9  C   UNL     1       7.181  26.483  55.270  1.00  0.00     0.244 C 
HETATM   10  C   UNL     1       6.393  25.621  54.276  1.00  0.00     0.045 C 
HETATM   11  C   UNL     1       6.356  26.273  52.881  1.00  0.00     0.022 C 
HETATM   12  C   UNL     1       6.067  28.317  51.453  1.00  0.00     0.039 C 
HETATM   13  C   UNL     1       5.393  29.661  51.185  1.00  0.00     0.236 C 
ENDROOT
BRANCH   7  14
HETATM   14  C   UNL     1       7.307  28.723  56.321  1.00  0.00     0.188 A 
HETATM   15  C   UNL     1       6.556  29.019  57.588  1.00  0.00     0.035 A 
HETATM   16  C   UNL     1       7.692  28.037  57.600  1.00  0.00     0.035 A 
ENDBRANCH   7  14
BRANCH  10  17
HETATM   17  C   UNL     1       6.952  24.213  54.224  1.00  0.00    -0.052 A 
HETATM   18  C   UNL     1       7.270  23.547  55.418  1.00  0.00     0.007 A 
HETATM   19  C   UNL     1       7.803  22.257  55.393  1.00  0.00     0.001 A 
HETATM   20  C   UNL     1       8.025  21.615  54.178  1.00  0.00     0.000 A 
HETATM   21  C   UNL     1       7.712  22.260  52.986  1.00  0.00     0.001 A 
HETATM   22  C   UNL     1       7.178  23.550  53.005  1.00  0.00     0.007 A 
ENDBRANCH  10  17
BRANCH   1  23
HETATM   23  C   UNL     1       3.106  28.909  50.387  1.00  0.00     0.277 C 
BRANCH  23  24
HETATM   24  C   UNL     1       2.553  29.904  49.437  1.00  0.00     0.011 A 
HETATM   25  C   UNL     1       3.119  30.423  48.278  1.00  0.00     0.035 A 
HETATM   26  C   UNL     1       4.393  30.115  47.574  1.00  0.00     0.070 C 
HETATM   27  N   UNL     1       2.212  31.344  47.801  1.00  0.00    -0.278 N 
HETATM   28  C   UNL     1       2.295  32.168  46.614  1.00  0.00     0.179 C 
HETATM   29  N   UNL     1       1.129  31.459  48.585  1.00  0.00    -0.185 NA
HETATM   30  C   UNL     1       1.302  30.549  49.536  1.00  0.00     0.149 A 
ENDBRANCH  23  24
ENDBRANCH   1  23
TORSDOF 4
ENDMDL
MODEL 10
REMARK VINA RESULT:      -7.8      2.888     10.224
REMARK  4 active torsions:
REMARK  status: ('A' for Active; 'I' for Inactive)
REMARK    1  A    between atoms: C_7  and  C_8 
REMARK    2  A    between atoms: C_8  and  N_9 
REMARK    3  A    between atoms: N_15  and  C_17 
REMARK    4  A    between atoms: C_21  and  C_22 
ROOT
HETATM    1  N   UNL     1       4.581  30.232  56.874  1.00  0.00    -0.067 N 
HETATM    2  H   UNL     1       4.167  30.106  55.938  1.00  0.00     0.280 HD
HETATM    3  C   UNL     1       3.473  30.767  57.735  1.00  0.00     0.236 C 
HETATM    4  C   UNL     1       4.002  31.212  59.101  1.00  0.00     0.039 C 
HETATM    5  C   UNL     1       5.183  32.222  59.029  1.00  0.00    -0.013 C 
HETATM    6  C   UNL     1       4.731  33.630  58.552  1.00  0.00     0.245 C 
HETATM    7  N   UNL     1       3.855  34.312  59.576  1.00  0.00    -0.065 N 
HETATM    8  H   UNL     1       3.014  33.752  59.772  1.00  0.00     0.280 HD
HETATM    9  C   UNL     1       4.567  34.504  60.910  1.00  0.00     0.244 C 
HETATM   10  C   UNL     1       4.999  33.136  61.453  1.00  0.00     0.045 C 
HETATM   11  C   UNL     1       5.855  32.373  60.425  1.00  0.00     0.022 C 
HETATM   12  C   UNL     1       6.254  31.641  58.058  1.00  0.00     0.039 C 
HETATM   13  C   UNL     1       5.715  31.195  56.700  1.00  0.00     0.236 C 
ENDROOT
BRANCH   7  14
HETATM   14  C   UNL     1       3.356  35.637  59.070  1.00  0.00     0.188 A 
HETATM   15  C   UNL     1       1.866  35.822  59.017  1.00  0.00     0.035 A 
HETATM   16  C   UNL     1       2.674  36.530  60.067  1.00  0.00     0.035 A 
ENDBRANCH   7  14
BRANCH  10  17
HETATM   17  C   UNL     1       5.716  33.287  62.780  1.00  0.00    -0.052 A 
HETATM   18  C   UNL     1       7.089  33.004  62.864  1.00  0.00     0.007 A 
HETATM   19  C   UNL     1       7.766  33.119  64.080  1.00  0.00     0.001 A 
HETATM   20  C   UNL     1       7.084  33.518  65.226  1.00  0.00     0.000 A 
HETATM   21  C   UNL     1       5.724  33.805  65.159  1.00  0.00     0.001 A 
HETATM   22  C   UNL     1       5.042  33.693  63.945  1.00  0.00     0.007 A 
ENDBRANCH  10  17
BRANCH   1  23
HETATM   23  C   UNL     1       5.026  28.808  57.210  1.00  0.00     0.277 C 
BRANCH  23  24
HETATM   24  C   UNL     1       5.016  27.942  56.007  1.00  0.00     0.011 A 
HETATM   25  C   UNL     1       5.429  26.622  55.870  1.00  0.00     0.035 A 
HETATM   26  C   UNL     1       5.936  25.634  56.860  1.00  0.00     0.070 C 
HETATM   27  N   UNL     1       5.252  26.312  54.538  1.00  0.00    -0.278 N 
HETATM   28  C   UNL     1       5.515  25.064  53.854  1.00  0.00     0.179 C 
HETATM   29  N   UNL     1       4.778  27.346  53.825  1.00  0.00    -0.185 NA
HETATM   30  C   UNL     1       4.576  28.307  54.717  1.00  0.00     0.149 A 
ENDBRANCH  23  24
ENDBRANCH   1  23
TORSDOF 4
ENDMDL
