MODEL 1
REMARK VINA RESULT:     -10.4      0.000      0.000
REMARK  3 active torsions:
REMARK  status: ('A' for Active; 'I' for Inactive)
REMARK    1  A    between atoms: C_9  and  C_10 
REMARK       I    between atoms: C_10  and  N_11 
REMARK    2  A    between atoms: N_11  and  C_12 
REMARK    3  A    between atoms: C_12  and  C_13 
ROOT
HETATM    1  C   UNL     1       7.779  25.470  55.461  1.00  0.00     0.273 C 
HETATM    2  N   UNL     1       7.819  26.539  56.329  1.00  0.00    -0.347 N 
HETATM    3  O   UNL     1       7.541  25.582  54.262  1.00  0.00    -0.266 OA
HETATM    4  H   UNL     1       7.972  26.292  57.303  1.00  0.00     0.163 HD
ENDROOT
BRANCH   2   5
HETATM    5  C   UNL     1       7.420  27.877  55.949  1.00  0.00     0.114 C 
HETATM    6  C   UNL     1       5.900  28.048  56.031  1.00  0.00     0.037 C 
BRANCH   5   7
HETATM    7  C   UNL     1       8.121  28.921  56.801  1.00  0.00    -0.034 A 
HETATM    8  C   UNL     1       7.564  29.307  58.032  1.00  0.00     0.041 A 
HETATM    9  C   UNL     1       8.217  30.236  58.845  1.00  0.00     0.069 A 
HETATM   10  C   UNL     1       9.428  30.799  58.441  1.00  0.00     0.096 A 
HETATM   11  N   UNL     1       7.664  30.572  60.080  1.00  0.00    -0.323 N 
HETATM   12  O   UNL     1      10.147  31.685  59.191  1.00  0.00    -0.340 OA
HETATM   13  C   UNL     1       9.993  30.421  57.226  1.00  0.00     0.040 A 
HETATM   14  C   UNL     1       9.467  32.211  60.321  1.00  0.00     0.278 C 
HETATM   15  C   UNL     1       8.244  31.499  60.898  1.00  0.00     0.246 C 
HETATM   16  O   UNL     1       7.770  31.765  62.000  1.00  0.00    -0.271 OA
HETATM   17  C   UNL     1       9.348  29.487  56.412  1.00  0.00     0.012 A 
HETATM   18  H   UNL     1       6.823  30.124  60.417  1.00  0.00     0.169 HD
ENDBRANCH   5   7
ENDBRANCH   2   5
BRANCH   1  19
HETATM   19  C   UNL     1       8.022  24.181  56.128  1.00  0.00     0.157 A 
HETATM   20  C   UNL     1       8.148  22.898  55.517  1.00  0.00     0.029 A 
HETATM   21  C   UNL     1       8.117  22.391  54.203  1.00  0.00     0.023 A 
HETATM   22  C   UNL     1       8.341  22.014  56.571  1.00  0.00     0.063 A 
HETATM   23  C   UNL     1       8.277  21.011  53.989  1.00  0.00    -0.061 A 
HETATM   24  C   UNL     1       8.246  20.448  52.597  1.00  0.00     0.048 C 
HETATM   25  C   UNL     1       8.467  20.155  55.080  1.00  0.00     0.009 A 
HETATM   26  C   UNL     1       8.503  20.637  56.393  1.00  0.00     0.032 A 
HETATM   27  N   UNL     1       8.324  22.786  57.699  1.00  0.00    -0.277 N 
HETATM   28  H   UNL     1       8.437  22.474  58.656  1.00  0.00     0.189 HD
HETATM   29  N   UNL     1       8.125  24.097  57.474  1.00  0.00    -0.168 NA
ENDBRANCH   1  19
TORSDOF 3
ENDMDL
MODEL 2
REMARK VINA RESULT:     -10.2      2.350      8.850
REMARK  3 active torsions:
REMARK  status: ('A' for Active; 'I' for Inactive)
REMARK    1  A    between atoms: C_9  and  C_10 
REMARK       I    between atoms: C_10  and  N_11 
REMARK    2  A    between atoms: N_11  and  C_12 
REMARK    3  A    between atoms: C_12  and  C_13 
ROOT
HETATM    1  C   UNL     1       8.022  27.604  57.040  1.00  0.00     0.273 C 
HETATM    2  N   UNL     1       7.418  27.528  55.804  1.00  0.00    -0.347 N 
HETATM    3  O   UNL     1       7.801  26.809  57.949  1.00  0.00    -0.266 OA
HETATM    4  H   UNL     1       7.654  28.285  55.168  1.00  0.00     0.163 HD
ENDROOT
BRANCH   2   5
HETATM    5  C   UNL     1       6.340  26.610  55.510  1.00  0.00     0.114 C 
HETATM    6  C   UNL     1       5.258  27.278  54.656  1.00  0.00     0.037 C 
BRANCH   5   7
HETATM    7  C   UNL     1       6.860  25.356  54.827  1.00  0.00    -0.034 A 
HETATM    8  C   UNL     1       7.086  24.192  55.582  1.00  0.00     0.041 A 
HETATM    9  C   UNL     1       7.526  23.020  54.963  1.00  0.00     0.069 A 
HETATM   10  C   UNL     1       7.754  22.992  53.587  1.00  0.00     0.096 A 
HETATM   11  N   UNL     1       7.704  21.868  55.728  1.00  0.00    -0.323 N 
HETATM   12  O   UNL     1       8.149  21.879  52.900  1.00  0.00    -0.340 OA
HETATM   13  C   UNL     1       7.529  24.137  52.827  1.00  0.00     0.040 A 
HETATM   14  C   UNL     1       8.567  20.789  53.707  1.00  0.00     0.278 C 
HETATM   15  C   UNL     1       8.163  20.705  55.179  1.00  0.00     0.246 C 
HETATM   16  O   UNL     1       8.286  19.685  55.851  1.00  0.00    -0.271 OA
HETATM   17  C   UNL     1       7.083  25.310  53.440  1.00  0.00     0.012 A 
HETATM   18  H   UNL     1       7.479  21.853  56.713  1.00  0.00     0.169 HD
ENDBRANCH   5   7
ENDBRANCH   2   5
BRANCH   1  19
HETATM   19  C   UNL     1       8.936  28.751  57.163  1.00  0.00     0.157 A 
HETATM   20  C   UNL     1       8.931  29.761  58.171  1.00  0.00     0.029 A 
HETATM   21  C   UNL     1       8.171  30.041  59.324  1.00  0.00     0.023 A 
HETATM   22  C   UNL     1       9.965  30.621  57.825  1.00  0.00     0.063 A 
HETATM   23  C   UNL     1       8.471  31.180  60.091  1.00  0.00    -0.061 A 
HETATM   24  C   UNL     1       7.675  31.501  61.322  1.00  0.00     0.048 C 
HETATM   25  C   UNL     1       9.522  32.022  59.705  1.00  0.00     0.009 A 
HETATM   26  C   UNL     1      10.291  31.761  58.565  1.00  0.00     0.032 A 
HETATM   27  N   UNL     1      10.507  30.096  56.685  1.00  0.00    -0.277 N 
HETATM   28  H   UNL     1      11.286  30.463  56.152  1.00  0.00     0.189 HD
HETATM   29  N   UNL     1       9.908  28.973  56.248  1.00  0.00    -0.168 NA
ENDBRANCH   1  19
TORSDOF 3
ENDMDL
MODEL 3
REMARK VINA RESULT:     -10.0      2.823      8.613
REMARK  3 active torsions:
REMARK  status: ('A' for Active; 'I' for Inactive)
REMARK    1  A    between atoms: C_9  and  C_10 
REMARK       I    between atoms: C_10  and  N_11 
REMARK    2  A    between atoms: N_11  and  C_12 
REMARK    3  A    between atoms: C_12  and  C_13 
ROOT
HETATM    1  C   UNL     1       5.652  28.394  55.827  1.00  0.00     0.273 C 
HETATM    2  N   UNL     1       6.550  27.357  55.699  1.00  0.00    -0.347 N 
HETATM    3  O   UNL     1       4.648  28.507  55.130  1.00  0.00    -0.266 OA
HETATM    4  H   UNL     1       7.364  27.422  56.304  1.00  0.00     0.163 HD
ENDROOT
BRANCH   2   5
HETATM    5  C   UNL     1       6.490  26.392  54.623  1.00  0.00     0.114 C 
HETATM    6  C   UNL     1       7.235  26.896  53.383  1.00  0.00     0.037 C 
BRANCH   5   7
HETATM    7  C   UNL     1       7.037  25.045  55.064  1.00  0.00    -0.034 A 
HETATM    8  C   UNL     1       7.210  24.018  54.119  1.00  0.00     0.041 A 
HETATM    9  C   UNL     1       7.749  22.787  54.502  1.00  0.00     0.069 A 
HETATM   10  C   UNL     1       8.115  22.559  55.828  1.00  0.00     0.096 A 
HETATM   11  N   UNL     1       7.947  21.799  53.538  1.00  0.00    -0.323 N 
HETATM   12  O   UNL     1       8.681  21.399  56.276  1.00  0.00    -0.340 OA
HETATM   13  C   UNL     1       7.954  23.570  56.772  1.00  0.00     0.040 A 
HETATM   14  C   UNL     1       8.650  20.319  55.357  1.00  0.00     0.278 C 
HETATM   15  C   UNL     1       8.439  20.568  53.864  1.00  0.00     0.246 C 
HETATM   16  O   UNL     1       8.644  19.714  53.005  1.00  0.00    -0.271 OA
HETATM   17  C   UNL     1       7.422  24.805  56.394  1.00  0.00     0.012 A 
HETATM   18  H   UNL     1       7.750  21.972  52.562  1.00  0.00     0.169 HD
ENDBRANCH   5   7
ENDBRANCH   2   5
BRANCH   1  19
HETATM   19  C   UNL     1       6.039  29.363  56.864  1.00  0.00     0.157 A 
HETATM   20  C   UNL     1       7.359  29.748  57.244  1.00  0.00     0.029 A 
HETATM   21  C   UNL     1       8.669  29.426  56.836  1.00  0.00     0.023 A 
HETATM   22  C   UNL     1       7.186  30.661  58.277  1.00  0.00     0.063 A 
HETATM   23  C   UNL     1       9.763  30.027  57.480  1.00  0.00    -0.061 A 
HETATM   24  C   UNL     1      11.167  29.698  57.063  1.00  0.00     0.048 C 
HETATM   25  C   UNL     1       9.543  30.941  58.518  1.00  0.00     0.009 A 
HETATM   26  C   UNL     1       8.252  31.277  58.939  1.00  0.00     0.032 A 
HETATM   27  N   UNL     1       5.833  30.767  58.443  1.00  0.00    -0.277 N 
HETATM   28  H   UNL     1       5.343  31.348  59.112  1.00  0.00     0.189 HD
HETATM   29  N   UNL     1       5.107  29.993  57.616  1.00  0.00    -0.168 NA
ENDBRANCH   1  19
TORSDOF 3
ENDMDL
MODEL 4
REMARK VINA RESULT:      -9.9      2.341      3.381
REMARK  3 active torsions:
REMARK  status: ('A' for Active; 'I' for Inactive)
REMARK    1  A    between atoms: C_9  and  C_10 
REMARK       I    between atoms: C_10  and  N_11 
REMARK    2  A    between atoms: N_11  and  C_12 
REMARK    3  A    between atoms: C_12  and  C_13 
ROOT
HETATM    1  C   UNL     1       7.863  27.204  56.961  1.00  0.00     0.273 C 
HETATM    2  N   UNL     1       8.339  28.479  56.746  1.00  0.00    -0.347 N 
HETATM    3  O   UNL     1       7.976  26.612  58.031  1.00  0.00    -0.266 OA
HETATM    4  H   UNL     1       8.224  28.821  55.796  1.00  0.00     0.163 HD
ENDROOT
BRANCH   2   5
HETATM    5  C   UNL     1       9.166  29.181  57.701  1.00  0.00     0.114 C 
HETATM    6  C   UNL     1      10.310  29.925  57.006  1.00  0.00     0.037 C 
BRANCH   5   7
HETATM    7  C   UNL     1       8.339  30.139  58.542  1.00  0.00    -0.034 A 
HETATM    8  C   UNL     1       8.735  30.435  59.858  1.00  0.00     0.041 A 
HETATM    9  C   UNL     1       8.007  31.344  60.630  1.00  0.00     0.069 A 
HETATM   10  C   UNL     1       6.874  31.965  60.105  1.00  0.00     0.096 A 
HETATM   11  N   UNL     1       8.443  31.649  61.918  1.00  0.00    -0.323 N 
HETATM   12  O   UNL     1       6.129  32.891  60.779  1.00  0.00    -0.340 OA
HETATM   13  C   UNL     1       6.475  31.685  58.801  1.00  0.00     0.040 A 
HETATM   14  C   UNL     1       6.424  33.011  62.162  1.00  0.00     0.278 C 
HETATM   15  C   UNL     1       7.752  32.506  62.726  1.00  0.00     0.246 C 
HETATM   16  O   UNL     1       8.159  32.797  63.847  1.00  0.00    -0.271 OA
HETATM   17  C   UNL     1       7.202  30.782  58.023  1.00  0.00     0.012 A 
HETATM   18  H   UNL     1       9.299  31.260  62.288  1.00  0.00     0.169 HD
ENDBRANCH   5   7
ENDBRANCH   2   5
BRANCH   1  19
HETATM   19  C   UNL     1       7.232  26.618  55.768  1.00  0.00     0.157 A 
HETATM   20  C   UNL     1       7.509  25.351  55.172  1.00  0.00     0.029 A 
HETATM   21  C   UNL     1       8.368  24.268  55.442  1.00  0.00     0.023 A 
HETATM   22  C   UNL     1       6.673  25.283  54.065  1.00  0.00     0.063 A 
HETATM   23  C   UNL     1       8.364  23.151  54.589  1.00  0.00    -0.061 A 
HETATM   24  C   UNL     1       9.272  21.986  54.856  1.00  0.00     0.048 C 
HETATM   25  C   UNL     1       7.507  23.124  53.482  1.00  0.00     0.009 A 
HETATM   26  C   UNL     1       6.644  24.188  53.196  1.00  0.00     0.032 A 
HETATM   27  N   UNL     1       5.974  26.457  54.066  1.00  0.00    -0.277 N 
HETATM   28  H   UNL     1       5.270  26.751  53.400  1.00  0.00     0.189 HD
HETATM   29  N   UNL     1       6.288  27.293  55.071  1.00  0.00    -0.168 NA
ENDBRANCH   1  19
TORSDOF 3
ENDMDL
MODEL 5
REMARK VINA RESULT:      -9.8      2.321      3.524
REMARK  3 active torsions:
REMARK  status: ('A' for Active; 'I' for Inactive)
REMARK    1  A    between atoms: C_9  and  C_10 
REMARK       I    between atoms: C_10  and  N_11 
REMARK    2  A    between atoms: N_11  and  C_12 
REMARK    3  A    between atoms: C_12  and  C_13 
ROOT
HETATM    1  C   UNL     1       7.945  27.149  56.706  1.00  0.00     0.273 C 
HETATM    2  N   UNL     1       8.463  28.396  56.436  1.00  0.00    -0.347 N 
HETATM    3  O   UNL     1       8.071  26.585  57.790  1.00  0.00    -0.266 OA
HETATM    4  H   UNL     1       8.329  28.715  55.480  1.00  0.00     0.163 HD
ENDROOT
BRANCH   2   5
HETATM    5  C   UNL     1       9.350  29.093  57.341  1.00  0.00     0.114 C 
HETATM    6  C   UNL     1      10.522  29.732  56.590  1.00  0.00     0.037 C 
BRANCH   5   7
HETATM    7  C   UNL     1       8.599  30.139  58.147  1.00  0.00    -0.034 A 
HETATM    8  C   UNL     1       7.200  30.232  58.039  1.00  0.00     0.041 A 
HETATM    9  C   UNL     1       6.491  31.162  58.804  1.00  0.00     0.069 A 
HETATM   10  C   UNL     1       7.164  32.015  59.679  1.00  0.00     0.096 A 
HETATM   11  N   UNL     1       5.101  31.208  58.707  1.00  0.00    -0.323 N 
HETATM   12  O   UNL     1       6.544  32.926  60.487  1.00  0.00    -0.340 OA
HETATM   13  C   UNL     1       8.548  31.928  59.799  1.00  0.00     0.040 A 
HETATM   14  C   UNL     1       5.169  33.142  60.207  1.00  0.00     0.278 C 
HETATM   15  C   UNL     1       4.363  32.119  59.407  1.00  0.00     0.246 C 
HETATM   16  O   UNL     1       3.136  32.132  59.344  1.00  0.00    -0.271 OA
HETATM   17  C   UNL     1       9.262  30.996  59.042  1.00  0.00     0.012 A 
HETATM   18  H   UNL     1       4.594  30.553  58.129  1.00  0.00     0.169 HD
ENDBRANCH   5   7
ENDBRANCH   2   5
BRANCH   1  19
HETATM   19  C   UNL     1       7.250  26.554  55.553  1.00  0.00     0.157 A 
HETATM   20  C   UNL     1       7.491  25.281  54.956  1.00  0.00     0.029 A 
HETATM   21  C   UNL     1       8.359  24.197  55.192  1.00  0.00     0.023 A 
HETATM   22  C   UNL     1       6.599  25.205  53.894  1.00  0.00     0.063 A 
HETATM   23  C   UNL     1       8.307  23.072  54.351  1.00  0.00    -0.061 A 
HETATM   24  C   UNL     1       9.223  21.905  54.582  1.00  0.00     0.048 C 
HETATM   25  C   UNL     1       7.394  23.038  53.290  1.00  0.00     0.009 A 
HETATM   26  C   UNL     1       6.521  24.102  53.039  1.00  0.00     0.032 A 
HETATM   27  N   UNL     1       5.905  26.383  53.920  1.00  0.00    -0.277 N 
HETATM   28  H   UNL     1       5.168  26.672  53.288  1.00  0.00     0.189 HD
HETATM   29  N   UNL     1       6.274  27.227  54.900  1.00  0.00    -0.168 NA
ENDBRANCH   1  19
TORSDOF 3
ENDMDL
MODEL 6
REMARK VINA RESULT:      -9.7      2.830      8.053
REMARK  3 active torsions:
REMARK  status: ('A' for Active; 'I' for Inactive)
REMARK    1  A    between atoms: C_9  and  C_10 
REMARK       I    between atoms: C_10  and  N_11 
REMARK    2  A    between atoms: N_11  and  C_12 
REMARK    3  A    between atoms: C_12  and  C_13 
ROOT
HETATM    1  C   UNL     1       6.283  28.029  54.673  1.00  0.00     0.273 C 
HETATM    2  N   UNL     1       5.236  27.138  54.577  1.00  0.00    -0.347 N 
HETATM    3  O   UNL     1       7.102  28.208  53.776  1.00  0.00    -0.266 OA
HETATM    4  H   UNL     1       4.671  27.053  55.417  1.00  0.00     0.163 HD
ENDROOT
BRANCH   2   5
HETATM    5  C   UNL     1       5.097  26.204  53.481  1.00  0.00     0.114 C 
HETATM    6  C   UNL     1       5.126  26.923  52.130  1.00  0.00     0.037 C 
BRANCH   5   7
HETATM    7  C   UNL     1       6.170  25.130  53.538  1.00  0.00    -0.034 A 
HETATM    8  C   UNL     1       6.357  24.391  54.719  1.00  0.00     0.041 A 
HETATM    9  C   UNL     1       7.313  23.373  54.774  1.00  0.00     0.069 A 
HETATM   10  C   UNL     1       8.098  23.082  53.659  1.00  0.00     0.096 A 
HETATM   11  N   UNL     1       7.452  22.629  55.944  1.00  0.00    -0.323 N 
HETATM   12  O   UNL     1       9.028  22.082  53.618  1.00  0.00    -0.340 OA
HETATM   13  C   UNL     1       7.919  23.804  52.481  1.00  0.00     0.040 A 
HETATM   14  C   UNL     1       9.340  21.498  54.873  1.00  0.00     0.278 C 
HETATM   15  C   UNL     1       8.391  21.645  56.062  1.00  0.00     0.246 C 
HETATM   16  O   UNL     1       8.486  20.970  57.084  1.00  0.00    -0.271 OA
HETATM   17  C   UNL     1       6.961  24.818  52.418  1.00  0.00     0.012 A 
HETATM   18  H   UNL     1       6.845  22.781  56.738  1.00  0.00     0.169 HD
ENDBRANCH   5   7
ENDBRANCH   2   5
BRANCH   1  19
HETATM   19  C   UNL     1       6.330  28.720  55.971  1.00  0.00     0.157 A 
HETATM   20  C   UNL     1       7.486  29.187  56.665  1.00  0.00     0.029 A 
HETATM   21  C   UNL     1       8.875  29.201  56.430  1.00  0.00     0.023 A 
HETATM   22  C   UNL     1       7.001  29.738  57.844  1.00  0.00     0.063 A 
HETATM   23  C   UNL     1       9.735  29.764  57.389  1.00  0.00    -0.061 A 
HETATM   24  C   UNL     1      11.218  29.789  57.161  1.00  0.00     0.048 C 
HETATM   25  C   UNL     1       9.204  30.307  58.565  1.00  0.00     0.009 A 
HETATM   26  C   UNL     1       7.828  30.306  58.818  1.00  0.00     0.032 A 
HETATM   27  N   UNL     1       5.645  29.580  57.787  1.00  0.00    -0.277 N 
HETATM   28  H   UNL     1       4.966  29.868  58.481  1.00  0.00     0.189 HD
HETATM   29  N   UNL     1       5.202  28.962  56.678  1.00  0.00    -0.168 NA
ENDBRANCH   1  19
TORSDOF 3
ENDMDL
MODEL 7
REMARK VINA RESULT:      -9.7      2.112      2.408
REMARK  3 active torsions:
REMARK  status: ('A' for Active; 'I' for Inactive)
REMARK    1  A    between atoms: C_9  and  C_10 
REMARK       I    between atoms: C_10  and  N_11 
REMARK    2  A    between atoms: N_11  and  C_12 
REMARK    3  A    between atoms: C_12  and  C_13 
ROOT
HETATM    1  C   UNL     1       7.488  25.786  55.246  1.00  0.00     0.273 C 
HETATM    2  N   UNL     1       6.924  26.761  56.040  1.00  0.00    -0.347 N 
HETATM    3  O   UNL     1       7.640  25.907  54.033  1.00  0.00    -0.266 OA
HETATM    4  H   UNL     1       6.811  26.502  57.016  1.00  0.00     0.163 HD
ENDROOT
BRANCH   2   5
HETATM    5  C   UNL     1       6.302  27.950  55.502  1.00  0.00     0.114 C 
HETATM    6  C   UNL     1       4.872  27.665  55.032  1.00  0.00     0.037 C 
BRANCH   5   7
HETATM    7  C   UNL     1       6.314  29.081  56.516  1.00  0.00    -0.034 A 
HETATM    8  C   UNL     1       5.102  29.573  57.029  1.00  0.00     0.041 A 
HETATM    9  C   UNL     1       5.099  30.586  57.992  1.00  0.00     0.069 A 
HETATM   10  C   UNL     1       6.300  31.127  58.450  1.00  0.00     0.096 A 
HETATM   11  N   UNL     1       3.884  31.029  58.513  1.00  0.00    -0.323 N 
HETATM   12  O   UNL     1       6.386  32.092  59.413  1.00  0.00    -0.340 OA
HETATM   13  C   UNL     1       7.508  30.644  57.953  1.00  0.00     0.040 A 
HETATM   14  C   UNL     1       5.156  32.711  59.757  1.00  0.00     0.278 C 
HETATM   15  C   UNL     1       3.823  32.038  59.432  1.00  0.00     0.246 C 
HETATM   16  O   UNL     1       2.752  32.400  59.913  1.00  0.00    -0.271 OA
HETATM   17  C   UNL     1       7.517  29.628  56.996  1.00  0.00     0.012 A 
HETATM   18  H   UNL     1       3.010  30.601  58.242  1.00  0.00     0.169 HD
ENDBRANCH   5   7
ENDBRANCH   2   5
BRANCH   1  19
HETATM   19  C   UNL     1       7.862  24.579  55.999  1.00  0.00     0.157 A 
HETATM   20  C   UNL     1       8.009  23.251  55.495  1.00  0.00     0.029 A 
HETATM   21  C   UNL     1       7.894  22.624  54.239  1.00  0.00     0.023 A 
HETATM   22  C   UNL     1       8.343  22.481  56.601  1.00  0.00     0.063 A 
HETATM   23  C   UNL     1       8.113  21.239  54.134  1.00  0.00    -0.061 A 
HETATM   24  C   UNL     1       7.994  20.548  52.807  1.00  0.00     0.048 C 
HETATM   25  C   UNL     1       8.446  20.499  55.275  1.00  0.00     0.009 A 
HETATM   26  C   UNL     1       8.568  21.103  56.532  1.00  0.00     0.032 A 
HETATM   27  N   UNL     1       8.380  23.353  57.652  1.00  0.00    -0.277 N 
HETATM   28  H   UNL     1       8.593  23.137  58.619  1.00  0.00     0.189 HD
HETATM   29  N   UNL     1       8.086  24.626  57.332  1.00  0.00    -0.168 NA
ENDBRANCH   1  19
TORSDOF 3
ENDMDL
MODEL 8
REMARK VINA RESULT:      -9.5      4.479      7.587
REMARK  3 active torsions:
REMARK  status: ('A' for Active; 'I' for Inactive)
REMARK    1  A    between atoms: C_9  and  C_10 
REMARK       I    between atoms: C_10  and  N_11 
REMARK    2  A    between atoms: N_11  and  C_12 
REMARK    3  A    between atoms: C_12  and  C_13 
ROOT
HETATM    1  C   UNL     1       7.895  31.648  59.621  1.00  0.00     0.273 C 
HETATM    2  N   UNL     1       7.714  30.870  60.744  1.00  0.00    -0.347 N 
HETATM    3  O   UNL     1       8.703  32.570  59.562  1.00  0.00    -0.266 OA
HETATM    4  H   UNL     1       6.972  30.180  60.669  1.00  0.00     0.163 HD
ENDROOT
BRANCH   2   5
HETATM    5  C   UNL     1       8.336  31.168  62.016  1.00  0.00     0.114 C 
HETATM    6  C   UNL     1       9.734  31.761  61.826  1.00  0.00     0.037 C 
BRANCH   5   7
HETATM    7  C   UNL     1       7.468  32.100  62.844  1.00  0.00    -0.034 A 
HETATM    8  C   UNL     1       6.086  32.172  62.597  1.00  0.00     0.041 A 
HETATM    9  C   UNL     1       5.269  32.995  63.376  1.00  0.00     0.069 A 
HETATM   10  C   UNL     1       5.816  33.763  64.404  1.00  0.00     0.096 A 
HETATM   11  N   UNL     1       3.896  33.018  63.136  1.00  0.00    -0.323 N 
HETATM   12  O   UNL     1       5.083  34.564  65.233  1.00  0.00    -0.340 OA
HETATM   13  C   UNL     1       7.183  33.697  64.661  1.00  0.00     0.040 A 
HETATM   14  C   UNL     1       3.739  34.777  64.832  1.00  0.00     0.278 C 
HETATM   15  C   UNL     1       3.057  33.829  63.846  1.00  0.00     0.246 C 
HETATM   16  O   UNL     1       1.843  33.819  63.654  1.00  0.00    -0.271 OA
HETATM   17  C   UNL     1       8.003  32.871  63.891  1.00  0.00     0.012 A 
HETATM   18  H   UNL     1       3.474  32.418  62.441  1.00  0.00     0.169 HD
ENDBRANCH   5   7
ENDBRANCH   2   5
BRANCH   1  19
HETATM   19  C   UNL     1       6.999  31.276  58.515  1.00  0.00     0.157 A 
HETATM   20  C   UNL     1       6.954  30.033  57.814  1.00  0.00     0.029 A 
HETATM   21  C   UNL     1       7.636  28.803  57.884  1.00  0.00     0.023 A 
HETATM   22  C   UNL     1       5.965  30.197  56.853  1.00  0.00     0.063 A 
HETATM   23  C   UNL     1       7.306  27.776  56.982  1.00  0.00    -0.061 A 
HETATM   24  C   UNL     1       8.021  26.457  57.036  1.00  0.00     0.048 C 
HETATM   25  C   UNL     1       6.304  27.984  56.028  1.00  0.00     0.009 A 
HETATM   26  C   UNL     1       5.612  29.197  55.942  1.00  0.00     0.032 A 
HETATM   27  N   UNL     1       5.494  31.468  57.031  1.00  0.00    -0.277 N 
HETATM   28  H   UNL     1       4.763  31.929  56.503  1.00  0.00     0.189 HD
HETATM   29  N   UNL     1       6.099  32.154  58.017  1.00  0.00    -0.168 NA
ENDBRANCH   1  19
TORSDOF 3
ENDMDL
MODEL 9
REMARK VINA RESULT:      -9.5      1.910      2.403
REMARK  3 active torsions:
REMARK  status: ('A' for Active; 'I' for Inactive)
REMARK    1  A    between atoms: C_9  and  C_10 
REMARK       I    between atoms: C_10  and  N_11 
REMARK    2  A    between atoms: N_11  and  C_12 
REMARK    3  A    between atoms: C_12  and  C_13 
ROOT
HETATM    1  C   UNL     1       6.719  25.945  55.065  1.00  0.00     0.273 C 
HETATM    2  N   UNL     1       6.128  27.050  54.492  1.00  0.00    -0.347 N 
HETATM    3  O   UNL     1       6.814  25.784  56.279  1.00  0.00    -0.266 OA
HETATM    4  H   UNL     1       6.170  27.076  53.477  1.00  0.00     0.163 HD
ENDROOT
BRANCH   2   5
HETATM    5  C   UNL     1       5.714  28.206  55.256  1.00  0.00     0.114 C 
HETATM    6  C   UNL     1       4.567  27.861  56.209  1.00  0.00     0.037 C 
BRANCH   5   7
HETATM    7  C   UNL     1       6.882  28.804  56.021  1.00  0.00    -0.034 A 
HETATM    8  C   UNL     1       6.703  29.231  57.349  1.00  0.00     0.041 A 
HETATM    9  C   UNL     1       7.777  29.746  58.079  1.00  0.00     0.069 A 
HETATM   10  C   UNL     1       9.040  29.850  57.497  1.00  0.00     0.096 A 
HETATM   11  N   UNL     1       7.582  30.125  59.406  1.00  0.00    -0.323 N 
HETATM   12  O   UNL     1      10.149  30.307  58.151  1.00  0.00    -0.340 OA
HETATM   13  C   UNL     1       9.232  29.425  56.184  1.00  0.00     0.040 A 
HETATM   14  C   UNL     1       9.897  30.921  59.406  1.00  0.00     0.278 C 
HETATM   15  C   UNL     1       8.589  30.664  60.154  1.00  0.00     0.246 C 
HETATM   16  O   UNL     1       8.420  30.965  61.333  1.00  0.00    -0.271 OA
HETATM   17  C   UNL     1       8.164  28.904  55.452  1.00  0.00     0.012 A 
HETATM   18  H   UNL     1       6.691  29.993  59.863  1.00  0.00     0.169 HD
ENDBRANCH   5   7
ENDBRANCH   2   5
BRANCH   1  19
HETATM   19  C   UNL     1       7.247  24.996  54.072  1.00  0.00     0.157 A 
HETATM   20  C   UNL     1       7.541  23.613  54.263  1.00  0.00     0.029 A 
HETATM   21  C   UNL     1       7.448  22.693  55.326  1.00  0.00     0.023 A 
HETATM   22  C   UNL     1       8.036  23.178  53.041  1.00  0.00     0.063 A 
HETATM   23  C   UNL     1       7.860  21.363  55.128  1.00  0.00    -0.061 A 
HETATM   24  C   UNL     1       7.771  20.364  56.245  1.00  0.00     0.048 C 
HETATM   25  C   UNL     1       8.354  20.966  53.880  1.00  0.00     0.009 A 
HETATM   26  C   UNL     1       8.454  21.864  52.810  1.00  0.00     0.032 A 
HETATM   27  N   UNL     1       8.006  24.275  52.226  1.00  0.00    -0.277 N 
HETATM   28  H   UNL     1       8.294  24.325  51.256  1.00  0.00     0.189 HD
HETATM   29  N   UNL     1       7.545  25.393  52.814  1.00  0.00    -0.168 NA
ENDBRANCH   1  19
TORSDOF 3
ENDMDL
MODEL 10
REMARK VINA RESULT:      -9.3      5.072      8.766
REMARK  3 active torsions:
REMARK  status: ('A' for Active; 'I' for Inactive)
REMARK    1  A    between atoms: C_9  and  C_10 
REMARK       I    between atoms: C_10  and  N_11 
REMARK    2  A    between atoms: N_11  and  C_12 
REMARK    3  A    between atoms: C_12  and  C_13 
ROOT
HETATM    1  C   UNL     1       5.554  27.601  52.472  1.00  0.00     0.273 C 
HETATM    2  N   UNL     1       6.789  27.802  53.050  1.00  0.00    -0.347 N 
HETATM    3  O   UNL     1       4.679  26.902  52.975  1.00  0.00    -0.266 OA
HETATM    4  H   UNL     1       7.433  28.358  52.495  1.00  0.00     0.163 HD
ENDROOT
BRANCH   2   5
HETATM    5  C   UNL     1       7.238  27.076  54.218  1.00  0.00     0.114 C 
HETATM    6  C   UNL     1       6.236  27.202  55.370  1.00  0.00     0.037 C 
BRANCH   5   7
HETATM    7  C   UNL     1       7.493  25.615  53.891  1.00  0.00    -0.034 A 
HETATM    8  C   UNL     1       7.436  24.649  54.911  1.00  0.00     0.041 A 
HETATM    9  C   UNL     1       7.629  23.297  54.618  1.00  0.00     0.069 A 
HETATM   10  C   UNL     1       7.889  22.888  53.311  1.00  0.00     0.096 A 
HETATM   11  N   UNL     1       7.528  22.356  55.642  1.00  0.00    -0.323 N 
HETATM   12  O   UNL     1       8.054  21.585  52.935  1.00  0.00    -0.340 OA
HETATM   13  C   UNL     1       7.944  23.835  52.290  1.00  0.00     0.040 A 
HETATM   14  C   UNL     1       8.199  20.664  54.004  1.00  0.00     0.278 C 
HETATM   15  C   UNL     1       7.740  21.025  55.416  1.00  0.00     0.246 C 
HETATM   16  O   UNL     1       7.615  20.197  56.315  1.00  0.00    -0.271 OA
HETATM   17  C   UNL     1       7.745  25.187  52.575  1.00  0.00     0.012 A 
HETATM   18  H   UNL     1       7.273  22.627  56.581  1.00  0.00     0.169 HD
ENDBRANCH   5   7
ENDBRANCH   2   5
BRANCH   1  19
HETATM   19  C   UNL     1       5.408  28.288  51.180  1.00  0.00     0.157 A 
HETATM   20  C   UNL     1       4.850  27.763  49.975  1.00  0.00     0.029 A 
HETATM   21  C   UNL     1       4.269  26.545  49.572  1.00  0.00     0.023 A 
HETATM   22  C   UNL     1       4.968  28.789  49.046  1.00  0.00     0.063 A 
HETATM   23  C   UNL     1       3.828  26.394  48.246  1.00  0.00    -0.061 A 
HETATM   24  C   UNL     1       3.206  25.104  47.793  1.00  0.00     0.048 C 
HETATM   25  C   UNL     1       3.967  27.453  47.341  1.00  0.00     0.009 A 
HETATM   26  C   UNL     1       4.540  28.672  47.721  1.00  0.00     0.032 A 
HETATM   27  N   UNL     1       5.558  29.822  49.720  1.00  0.00    -0.277 N 
HETATM   28  H   UNL     1       5.796  30.735  49.353  1.00  0.00     0.189 HD
HETATM   29  N   UNL     1       5.847  29.556  51.006  1.00  0.00    -0.168 NA
ENDBRANCH   1  19
TORSDOF 3
ENDMDL
