MODEL 1
REMARK VINA RESULT:      -9.7      0.000      0.000
REMARK  7 active torsions:
REMARK  status: ('A' for Active; 'I' for Inactive)
REMARK    1  A    between atoms: C_2  and  C_3 
REMARK    2  A    between atoms: C_5  and  N_6 
REMARK       I    between atoms: N_6  and  C_7 
REMARK    3  A    between atoms: C_7  and  C_8 
REMARK    4  A    between atoms: C_8  and  S_9 
REMARK    5  A    between atoms: S_9  and  C_10 
REMARK    6  A    between atoms: C_12  and  C_13 
REMARK    7  A    between atoms: C_14  and  O_15 
ROOT
HETATM    1  C   UNL     1       8.116  29.580  57.673  1.00  0.00     0.185 A 
HETATM    2  N   UNL     1       7.396  30.091  58.640  1.00  0.00    -0.201 NA
HETATM    3  C   UNL     1       8.352  30.665  59.468  1.00  0.00     0.184 A 
HETATM    4  N   UNL     1       9.611  30.547  59.011  1.00  0.00    -0.152 NA
HETATM    5  N   UNL     1       9.430  29.850  57.876  1.00  0.00    -0.253 N 
HETATM    6  H   UNL     1      10.227  29.588  57.307  1.00  0.00     0.191 HD
ENDROOT
BRANCH   1   7
HETATM    7  S   UNL     1       7.586  28.675  56.313  1.00  0.00    -0.081 SA
BRANCH   7   8
HETATM    8  C   UNL     1       6.597  27.382  57.120  1.00  0.00     0.185 C 
BRANCH   8   9
HETATM    9  C   UNL     1       6.372  26.192  56.192  1.00  0.00     0.231 C 
HETATM   10  N   UNL     1       7.556  25.608  55.765  1.00  0.00    -0.327 N 
HETATM   11  H   UNL     1       8.423  26.018  56.094  1.00  0.00     0.169 HD
HETATM   12  O   UNL     1       5.240  25.818  55.898  1.00  0.00    -0.272 OA
BRANCH  10  13
HETATM   13  C   UNL     1       7.713  24.522  54.875  1.00  0.00     0.035 A 
HETATM   14  C   UNL     1       7.851  23.191  55.277  1.00  0.00     0.044 A 
HETATM   15  C   UNL     1       7.992  22.171  54.324  1.00  0.00     0.011 A 
HETATM   16  C   UNL     1       7.995  22.492  52.962  1.00  0.00     0.015 A 
HETATM   17  C   UNL     1       7.857  23.815  52.553  1.00  0.00     0.003 A 
HETATM   18  C   UNL     1       7.718  24.824  53.506  1.00  0.00     0.029 A 
BRANCH  15  19
HETATM   19  C   UNL     1       8.139  20.736  54.713  1.00  0.00     0.155 C 
HETATM   20  C   UNL     1       7.887  20.334  56.143  1.00  0.00     0.096 C 
HETATM   21  O   UNL     1       8.462  19.904  53.867  1.00  0.00    -0.293 OA
ENDBRANCH  15  19
ENDBRANCH  10  13
ENDBRANCH   8   9
ENDBRANCH   7   8
ENDBRANCH   1   7
BRANCH   3  22
HETATM   22  C   UNL     1       7.979  31.315  60.722  1.00  0.00     0.048 A 
HETATM   23  C   UNL     1       8.482  30.867  61.959  1.00  0.00     0.080 A 
HETATM   24  C   UNL     1       8.142  31.506  63.150  1.00  0.00     0.039 A 
HETATM   25  C   UNL     1       7.284  32.603  63.127  1.00  0.00     0.022 A 
HETATM   26  C   UNL     1       6.771  33.052  61.912  1.00  0.00     0.012 A 
HETATM   27 BR   UNL     1       5.598  34.536  61.882  1.00  0.00    -0.051 Br
HETATM   28  C   UNL     1       7.112  32.419  60.715  1.00  0.00     0.037 A 
BRANCH  23  29
HETATM   29  O   UNL     1       9.323  29.787  62.070  1.00  0.00    -0.360 OA
HETATM   30  H   UNL     1       9.659  29.613  61.166  1.00  0.00     0.217 HD
ENDBRANCH  23  29
ENDBRANCH   3  22
TORSDOF 7
ENDMDL
MODEL 2
REMARK VINA RESULT:      -9.6      4.196      9.227
REMARK  7 active torsions:
REMARK  status: ('A' for Active; 'I' for Inactive)
REMARK    1  A    between atoms: C_2  and  C_3 
REMARK    2  A    between atoms: C_5  and  N_6 
REMARK       I    between atoms: N_6  and  C_7 
REMARK    3  A    between atoms: C_7  and  C_8 
REMARK    4  A    between atoms: C_8  and  S_9 
REMARK    5  A    between atoms: S_9  and  C_10 
REMARK    6  A    between atoms: C_12  and  C_13 
REMARK    7  A    between atoms: C_14  and  O_15 
ROOT
HETATM    1  C   UNL     1       4.856  27.045  53.635  1.00  0.00     0.185 A 
HETATM    2  N   UNL     1       5.977  26.597  54.141  1.00  0.00    -0.201 NA
HETATM    3  C   UNL     1       5.920  25.236  53.864  1.00  0.00     0.184 A 
HETATM    4  N   UNL     1       4.823  24.865  53.181  1.00  0.00    -0.152 NA
HETATM    5  N   UNL     1       4.165  26.031  53.056  1.00  0.00    -0.253 N 
HETATM    6  H   UNL     1       3.268  26.062  52.586  1.00  0.00     0.191 HD
ENDROOT
BRANCH   1   7
HETATM    7  S   UNL     1       4.244  28.650  53.656  1.00  0.00    -0.081 SA
BRANCH   7   8
HETATM    8  C   UNL     1       4.170  28.970  55.443  1.00  0.00     0.185 C 
BRANCH   8   9
HETATM    9  C   UNL     1       5.354  29.812  55.907  1.00  0.00     0.231 C 
HETATM   10  N   UNL     1       6.432  29.046  56.327  1.00  0.00    -0.327 N 
HETATM   11  H   UNL     1       6.329  28.038  56.291  1.00  0.00     0.169 HD
HETATM   12  O   UNL     1       5.316  31.040  55.876  1.00  0.00    -0.272 OA
BRANCH  10  13
HETATM   13  C   UNL     1       7.663  29.498  56.853  1.00  0.00     0.035 A 
HETATM   14  C   UNL     1       7.785  30.266  58.013  1.00  0.00     0.044 A 
HETATM   15  C   UNL     1       9.049  30.666  58.471  1.00  0.00     0.011 A 
HETATM   16  C   UNL     1      10.195  30.292  57.759  1.00  0.00     0.015 A 
HETATM   17  C   UNL     1      10.081  29.527  56.602  1.00  0.00     0.003 A 
HETATM   18  C   UNL     1       8.820  29.134  56.152  1.00  0.00     0.029 A 
BRANCH  15  19
HETATM   19  C   UNL     1       9.223  31.484  59.710  1.00  0.00     0.155 C 
HETATM   20  C   UNL     1       9.480  30.787  61.021  1.00  0.00     0.096 C 
HETATM   21  O   UNL     1       9.155  32.710  59.646  1.00  0.00    -0.293 OA
ENDBRANCH  15  19
ENDBRANCH  10  13
ENDBRANCH   8   9
ENDBRANCH   7   8
ENDBRANCH   1   7
BRANCH   3  22
HETATM   22  C   UNL     1       6.971  24.326  54.310  1.00  0.00     0.048 A 
HETATM   23  C   UNL     1       7.784  24.629  55.419  1.00  0.00     0.080 A 
HETATM   24  C   UNL     1       8.770  23.746  55.855  1.00  0.00     0.039 A 
HETATM   25  C   UNL     1       8.967  22.542  55.182  1.00  0.00     0.022 A 
HETATM   26  C   UNL     1       8.176  22.232  54.078  1.00  0.00     0.012 A 
HETATM   27 BR   UNL     1       8.450  20.600  53.160  1.00  0.00    -0.051 Br
HETATM   28  C   UNL     1       7.184  23.111  53.641  1.00  0.00     0.037 A 
BRANCH  23  29
HETATM   29  O   UNL     1       7.663  25.799  56.129  1.00  0.00    -0.360 OA
HETATM   30  H   UNL     1       8.087  26.492  55.580  1.00  0.00     0.217 HD
ENDBRANCH  23  29
ENDBRANCH   3  22
TORSDOF 7
ENDMDL
MODEL 3
REMARK VINA RESULT:      -9.5      3.829     10.715
REMARK  7 active torsions:
REMARK  status: ('A' for Active; 'I' for Inactive)
REMARK    1  A    between atoms: C_2  and  C_3 
REMARK    2  A    between atoms: C_5  and  N_6 
REMARK       I    between atoms: N_6  and  C_7 
REMARK    3  A    between atoms: C_7  and  C_8 
REMARK    4  A    between atoms: C_8  and  S_9 
REMARK    5  A    between atoms: S_9  and  C_10 
REMARK    6  A    between atoms: C_12  and  C_13 
REMARK    7  A    between atoms: C_14  and  O_15 
ROOT
HETATM    1  C   UNL     1       6.320  28.830  57.274  1.00  0.00     0.185 A 
HETATM    2  N   UNL     1       7.283  28.003  56.955  1.00  0.00    -0.201 NA
HETATM    3  C   UNL     1       6.601  26.825  56.677  1.00  0.00     0.184 A 
HETATM    4  N   UNL     1       5.265  26.931  56.784  1.00  0.00    -0.152 NA
HETATM    5  N   UNL     1       5.117  28.211  57.169  1.00  0.00    -0.253 N 
HETATM    6  H   UNL     1       4.193  28.585  57.350  1.00  0.00     0.191 HD
ENDROOT
BRANCH   1   7
HETATM    7  S   UNL     1       6.443  30.468  57.777  1.00  0.00    -0.081 SA
BRANCH   7   8
HETATM    8  C   UNL     1       7.900  30.389  58.861  1.00  0.00     0.185 C 
BRANCH   8   9
HETATM    9  C   UNL     1       7.888  31.514  59.892  1.00  0.00     0.231 C 
HETATM   10  N   UNL     1       7.191  31.184  61.046  1.00  0.00    -0.327 N 
HETATM   11  H   UNL     1       6.768  30.263  61.087  1.00  0.00     0.169 HD
HETATM   12  O   UNL     1       8.467  32.577  59.683  1.00  0.00    -0.272 OA
BRANCH  10  13
HETATM   13  C   UNL     1       6.951  31.999  62.174  1.00  0.00     0.035 A 
HETATM   14  C   UNL     1       5.703  32.533  62.504  1.00  0.00     0.044 A 
HETATM   15  C   UNL     1       5.550  33.327  63.651  1.00  0.00     0.011 A 
HETATM   16  C   UNL     1       6.657  33.584  64.468  1.00  0.00     0.015 A 
HETATM   17  C   UNL     1       7.903  33.055  64.145  1.00  0.00     0.003 A 
HETATM   18  C   UNL     1       8.048  32.267  63.003  1.00  0.00     0.029 A 
BRANCH  15  19
HETATM   19  C   UNL     1       4.232  33.913  64.041  1.00  0.00     0.155 C 
HETATM   20  C   UNL     1       4.198  35.050  65.030  1.00  0.00     0.096 C 
HETATM   21  O   UNL     1       3.196  33.464  63.554  1.00  0.00    -0.293 OA
ENDBRANCH  15  19
ENDBRANCH  10  13
ENDBRANCH   8   9
ENDBRANCH   7   8
ENDBRANCH   1   7
BRANCH   3  22
HETATM   22  C   UNL     1       7.313  25.601  56.322  1.00  0.00     0.048 A 
HETATM   23  C   UNL     1       8.071  24.890  57.272  1.00  0.00     0.080 A 
HETATM   24  C   UNL     1       8.729  23.709  56.934  1.00  0.00     0.039 A 
HETATM   25  C   UNL     1       8.647  23.219  55.631  1.00  0.00     0.022 A 
HETATM   26  C   UNL     1       7.909  23.917  54.678  1.00  0.00     0.012 A 
HETATM   27 BR   UNL     1       7.806  23.257  52.908  1.00  0.00    -0.051 Br
HETATM   28  C   UNL     1       7.244  25.098  55.013  1.00  0.00     0.037 A 
BRANCH  23  29
HETATM   29  O   UNL     1       8.212  25.309  58.572  1.00  0.00    -0.360 OA
HETATM   30  H   UNL     1       7.619  24.738  59.105  1.00  0.00     0.217 HD
ENDBRANCH  23  29
ENDBRANCH   3  22
TORSDOF 7
ENDMDL
MODEL 4
REMARK VINA RESULT:      -9.4      3.743     10.871
REMARK  7 active torsions:
REMARK  status: ('A' for Active; 'I' for Inactive)
REMARK    1  A    between atoms: C_2  and  C_3 
REMARK    2  A    between atoms: C_5  and  N_6 
REMARK       I    between atoms: N_6  and  C_7 
REMARK    3  A    between atoms: C_7  and  C_8 
REMARK    4  A    between atoms: C_8  and  S_9 
REMARK    5  A    between atoms: S_9  and  C_10 
REMARK    6  A    between atoms: C_12  and  C_13 
REMARK    7  A    between atoms: C_14  and  O_15 
ROOT
HETATM    1  C   UNL     1       7.068  27.750  56.990  1.00  0.00     0.185 A 
HETATM    2  N   UNL     1       6.796  27.028  55.933  1.00  0.00    -0.201 NA
HETATM    3  C   UNL     1       7.615  25.918  56.097  1.00  0.00     0.184 A 
HETATM    4  N   UNL     1       8.337  25.936  57.230  1.00  0.00    -0.152 NA
HETATM    5  N   UNL     1       7.974  27.111  57.773  1.00  0.00    -0.253 N 
HETATM    6  H   UNL     1       8.381  27.415  58.650  1.00  0.00     0.191 HD
ENDROOT
BRANCH   1   7
HETATM    7  S   UNL     1       6.444  29.292  57.418  1.00  0.00    -0.081 SA
BRANCH   7   8
HETATM    8  C   UNL     1       7.865  30.012  58.292  1.00  0.00     0.185 C 
BRANCH   8   9
HETATM    9  C   UNL     1       7.436  31.149  59.213  1.00  0.00     0.231 C 
HETATM   10  N   UNL     1       7.612  30.854  60.558  1.00  0.00    -0.327 N 
HETATM   11  H   UNL     1       7.991  29.942  60.788  1.00  0.00     0.169 HD
HETATM   12  O   UNL     1       7.000  32.206  58.761  1.00  0.00    -0.272 OA
BRANCH  10  13
HETATM   13  C   UNL     1       7.283  31.660  61.670  1.00  0.00     0.035 A 
HETATM   14  C   UNL     1       5.994  32.117  61.953  1.00  0.00     0.044 A 
HETATM   15  C   UNL     1       5.752  32.907  63.087  1.00  0.00     0.011 A 
HETATM   16  C   UNL     1       6.812  33.237  63.940  1.00  0.00     0.015 A 
HETATM   17  C   UNL     1       8.099  32.785  63.664  1.00  0.00     0.003 A 
HETATM   18  C   UNL     1       8.332  32.001  62.534  1.00  0.00     0.029 A 
BRANCH  15  19
HETATM   19  C   UNL     1       4.388  33.412  63.427  1.00  0.00     0.155 C 
HETATM   20  C   UNL     1       3.471  33.856  62.316  1.00  0.00     0.096 C 
HETATM   21  O   UNL     1       4.030  33.461  64.603  1.00  0.00    -0.293 OA
ENDBRANCH  15  19
ENDBRANCH  10  13
ENDBRANCH   8   9
ENDBRANCH   7   8
ENDBRANCH   1   7
BRANCH   3  22
HETATM   22  C   UNL     1       7.668  24.858  55.093  1.00  0.00     0.048 A 
HETATM   23  C   UNL     1       7.679  25.151  53.716  1.00  0.00     0.080 A 
HETATM   24  C   UNL     1       7.753  24.137  52.763  1.00  0.00     0.039 A 
HETATM   25  C   UNL     1       7.810  22.806  53.171  1.00  0.00     0.022 A 
HETATM   26  C   UNL     1       7.791  22.500  54.531  1.00  0.00     0.012 A 
HETATM   27 BR   UNL     1       7.859  20.692  55.084  1.00  0.00    -0.051 Br
HETATM   28  C   UNL     1       7.721  23.513  55.489  1.00  0.00     0.037 A 
BRANCH  23  29
HETATM   29  O   UNL     1       7.613  26.434  53.230  1.00  0.00    -0.360 OA
HETATM   30  H   UNL     1       8.537  26.764  53.217  1.00  0.00     0.217 HD
ENDBRANCH  23  29
ENDBRANCH   3  22
TORSDOF 7
ENDMDL
MODEL 5
REMARK VINA RESULT:      -9.3      3.745     10.129
REMARK  7 active torsions:
REMARK  status: ('A' for Active; 'I' for Inactive)
REMARK    1  A    between atoms: C_2  and  C_3 
REMARK    2  A    between atoms: C_5  and  N_6 
REMARK       I    between atoms: N_6  and  C_7 
REMARK    3  A    between atoms: C_7  and  C_8 
REMARK    4  A    between atoms: C_8  and  S_9 
REMARK    5  A    between atoms: S_9  and  C_10 
REMARK    6  A    between atoms: C_12  and  C_13 
REMARK    7  A    between atoms: C_14  and  O_15 
ROOT
HETATM    1  C   UNL     1       6.020  27.325  55.477  1.00  0.00     0.185 A 
HETATM    2  N   UNL     1       6.916  26.439  55.828  1.00  0.00    -0.201 NA
HETATM    3  C   UNL     1       6.470  25.281  55.205  1.00  0.00     0.184 A 
HETATM    4  N   UNL     1       5.361  25.453  54.465  1.00  0.00    -0.152 NA
HETATM    5  N   UNL     1       5.095  26.756  54.661  1.00  0.00    -0.253 N 
HETATM    6  H   UNL     1       4.282  27.181  54.231  1.00  0.00     0.191 HD
ENDROOT
BRANCH   1   7
HETATM    7  S   UNL     1       5.920  28.979  55.928  1.00  0.00    -0.081 SA
BRANCH   7   8
HETATM    8  C   UNL     1       7.655  29.334  56.333  1.00  0.00     0.185 C 
BRANCH   8   9
HETATM    9  C   UNL     1       7.871  29.413  57.841  1.00  0.00     0.231 C 
HETATM   10  N   UNL     1       7.897  30.717  58.317  1.00  0.00    -0.327 N 
HETATM   11  H   UNL     1       7.781  31.462  57.639  1.00  0.00     0.169 HD
HETATM   12  O   UNL     1       7.985  28.398  58.523  1.00  0.00    -0.272 OA
BRANCH  10  13
HETATM   13  C   UNL     1       8.116  31.148  59.644  1.00  0.00     0.035 A 
HETATM   14  C   UNL     1       7.116  31.650  60.481  1.00  0.00     0.044 A 
HETATM   15  C   UNL     1       7.420  32.049  61.791  1.00  0.00     0.011 A 
HETATM   16  C   UNL     1       8.734  31.942  62.261  1.00  0.00     0.015 A 
HETATM   17  C   UNL     1       9.735  31.443  61.433  1.00  0.00     0.003 A 
HETATM   18  C   UNL     1       9.426  31.049  60.131  1.00  0.00     0.029 A 
BRANCH  15  19
HETATM   19  C   UNL     1       6.379  32.587  62.718  1.00  0.00     0.155 C 
HETATM   20  C   UNL     1       6.793  33.075  64.083  1.00  0.00     0.096 C 
HETATM   21  O   UNL     1       5.203  32.625  62.361  1.00  0.00    -0.293 OA
ENDBRANCH  15  19
ENDBRANCH  10  13
ENDBRANCH   8   9
ENDBRANCH   7   8
ENDBRANCH   1   7
BRANCH   3  22
HETATM   22  C   UNL     1       7.165  24.008  55.379  1.00  0.00     0.048 A 
HETATM   23  C   UNL     1       7.720  23.638  56.619  1.00  0.00     0.080 A 
HETATM   24  C   UNL     1       8.362  22.412  56.786  1.00  0.00     0.039 A 
HETATM   25  C   UNL     1       8.467  21.533  55.709  1.00  0.00     0.022 A 
HETATM   26  C   UNL     1       7.931  21.890  54.473  1.00  0.00     0.012 A 
HETATM   27 BR   UNL     1       8.082  20.701  53.010  1.00  0.00    -0.051 Br
HETATM   28  C   UNL     1       7.283  23.115  54.303  1.00  0.00     0.037 A 
BRANCH  23  29
HETATM   29  O   UNL     1       7.670  24.449  57.725  1.00  0.00    -0.360 OA
HETATM   30  H   UNL     1       6.751  24.789  57.769  1.00  0.00     0.217 HD
ENDBRANCH  23  29
ENDBRANCH   3  22
TORSDOF 7
ENDMDL
MODEL 6
REMARK VINA RESULT:      -8.7      3.885      9.874
REMARK  7 active torsions:
REMARK  status: ('A' for Active; 'I' for Inactive)
REMARK    1  A    between atoms: C_2  and  C_3 
REMARK    2  A    between atoms: C_5  and  N_6 
REMARK       I    between atoms: N_6  and  C_7 
REMARK    3  A    between atoms: C_7  and  C_8 
REMARK    4  A    between atoms: C_8  and  S_9 
REMARK    5  A    between atoms: S_9  and  C_10 
REMARK    6  A    between atoms: C_12  and  C_13 
REMARK    7  A    between atoms: C_14  and  O_15 
ROOT
HETATM    1  C   UNL     1       4.886  27.772  55.749  1.00  0.00     0.185 A 
HETATM    2  N   UNL     1       5.865  27.044  55.277  1.00  0.00    -0.201 NA
HETATM    3  C   UNL     1       5.895  25.962  56.147  1.00  0.00     0.184 A 
HETATM    4  N   UNL     1       4.946  26.001  57.098  1.00  0.00    -0.152 NA
HETATM    5  N   UNL     1       4.326  27.162  56.825  1.00  0.00    -0.253 N 
HETATM    6  H   UNL     1       3.556  27.477  57.404  1.00  0.00     0.191 HD
ENDROOT
BRANCH   1   7
HETATM    7  S   UNL     1       4.316  29.291  55.185  1.00  0.00    -0.081 SA
BRANCH   7   8
HETATM    8  C   UNL     1       5.563  30.412  55.887  1.00  0.00     0.185 C 
BRANCH   8   9
HETATM    9  C   UNL     1       5.235  30.775  57.331  1.00  0.00     0.231 C 
HETATM   10  N   UNL     1       6.078  31.748  57.851  1.00  0.00    -0.327 N 
HETATM   11  H   UNL     1       6.807  32.104  57.243  1.00  0.00     0.169 HD
HETATM   12  O   UNL     1       4.298  30.246  57.926  1.00  0.00    -0.272 OA
BRANCH  10  13
HETATM   13  C   UNL     1       6.080  32.282  59.158  1.00  0.00     0.035 A 
HETATM   14  C   UNL     1       7.050  31.993  60.122  1.00  0.00     0.044 A 
HETATM   15  C   UNL     1       6.982  32.576  61.396  1.00  0.00     0.011 A 
HETATM   16  C   UNL     1       5.934  33.452  61.702  1.00  0.00     0.015 A 
HETATM   17  C   UNL     1       4.964  33.744  60.748  1.00  0.00     0.003 A 
HETATM   18  C   UNL     1       5.038  33.160  59.483  1.00  0.00     0.029 A 
BRANCH  15  19
HETATM   19  C   UNL     1       8.001  32.297  62.453  1.00  0.00     0.155 C 
HETATM   20  C   UNL     1       7.754  32.782  63.858  1.00  0.00     0.096 C 
HETATM   21  O   UNL     1       9.024  31.678  62.166  1.00  0.00    -0.293 OA
ENDBRANCH  15  19
ENDBRANCH  10  13
ENDBRANCH   8   9
ENDBRANCH   7   8
ENDBRANCH   1   7
BRANCH   3  22
HETATM   22  C   UNL     1       6.896  24.907  56.013  1.00  0.00     0.048 A 
HETATM   23  C   UNL     1       7.848  24.665  57.022  1.00  0.00     0.080 A 
HETATM   24  C   UNL     1       8.786  23.641  56.900  1.00  0.00     0.039 A 
HETATM   25  C   UNL     1       8.795  22.843  55.757  1.00  0.00     0.022 A 
HETATM   26  C   UNL     1       7.865  23.077  54.746  1.00  0.00     0.012 A 
HETATM   27 BR   UNL     1       7.883  21.999  53.192  1.00  0.00    -0.051 Br
HETATM   28  C   UNL     1       6.921  24.098  54.866  1.00  0.00     0.037 A 
BRANCH  23  29
HETATM   29  O   UNL     1       7.915  25.412  58.172  1.00  0.00    -0.360 OA
HETATM   30  H   UNL     1       8.706  25.983  58.077  1.00  0.00     0.217 HD
ENDBRANCH  23  29
ENDBRANCH   3  22
TORSDOF 7
ENDMDL
MODEL 7
REMARK VINA RESULT:      -8.6      2.224      3.054
REMARK  7 active torsions:
REMARK  status: ('A' for Active; 'I' for Inactive)
REMARK    1  A    between atoms: C_2  and  C_3 
REMARK    2  A    between atoms: C_5  and  N_6 
REMARK       I    between atoms: N_6  and  C_7 
REMARK    3  A    between atoms: C_7  and  C_8 
REMARK    4  A    between atoms: C_8  and  S_9 
REMARK    5  A    between atoms: S_9  and  C_10 
REMARK    6  A    between atoms: C_12  and  C_13 
REMARK    7  A    between atoms: C_14  and  O_15 
ROOT
HETATM    1  C   UNL     1       5.349  31.228  56.917  1.00  0.00     0.185 A 
HETATM    2  N   UNL     1       6.219  30.813  57.803  1.00  0.00    -0.201 NA
HETATM    3  C   UNL     1       6.433  31.944  58.581  1.00  0.00     0.184 A 
HETATM    4  N   UNL     1       5.695  33.005  58.214  1.00  0.00    -0.152 NA
HETATM    5  N   UNL     1       5.023  32.524  57.153  1.00  0.00    -0.253 N 
HETATM    6  H   UNL     1       4.384  33.121  56.642  1.00  0.00     0.191 HD
ENDROOT
BRANCH   1   7
HETATM    7  S   UNL     1       4.666  30.357  55.604  1.00  0.00    -0.081 SA
BRANCH   7   8
HETATM    8  C   UNL     1       4.608  28.677  56.294  1.00  0.00     0.185 C 
BRANCH   8   9
HETATM    9  C   UNL     1       5.847  27.875  55.911  1.00  0.00     0.231 C 
HETATM   10  N   UNL     1       5.876  26.613  56.488  1.00  0.00    -0.327 N 
HETATM   11  H   UNL     1       5.101  26.359  57.090  1.00  0.00     0.169 HD
HETATM   12  O   UNL     1       6.697  28.336  55.152  1.00  0.00    -0.272 OA
BRANCH  10  13
HETATM   13  C   UNL     1       6.888  25.634  56.379  1.00  0.00     0.035 A 
HETATM   14  C   UNL     1       7.065  24.809  55.266  1.00  0.00     0.044 A 
HETATM   15  C   UNL     1       8.105  23.867  55.236  1.00  0.00     0.011 A 
HETATM   16  C   UNL     1       8.971  23.757  56.330  1.00  0.00     0.015 A 
HETATM   17  C   UNL     1       8.801  24.576  57.443  1.00  0.00     0.003 A 
HETATM   18  C   UNL     1       7.764  25.509  57.465  1.00  0.00     0.029 A 
BRANCH  15  19
HETATM   19  C   UNL     1       8.329  22.969  54.064  1.00  0.00     0.155 C 
HETATM   20  C   UNL     1       7.804  23.380  52.712  1.00  0.00     0.096 C 
HETATM   21  O   UNL     1       8.937  21.910  54.213  1.00  0.00    -0.293 OA
ENDBRANCH  15  19
ENDBRANCH  10  13
ENDBRANCH   8   9
ENDBRANCH   7   8
ENDBRANCH   1   7
BRANCH   3  22
HETATM   22  C   UNL     1       7.395  31.938  59.680  1.00  0.00     0.048 A 
HETATM   23  C   UNL     1       8.730  31.534  59.486  1.00  0.00     0.080 A 
HETATM   24  C   UNL     1       9.650  31.553  60.532  1.00  0.00     0.039 A 
HETATM   25  C   UNL     1       9.249  31.972  61.799  1.00  0.00     0.022 A 
HETATM   26  C   UNL     1       7.929  32.367  62.009  1.00  0.00     0.012 A 
HETATM   27 BR   UNL     1       7.383  32.926  63.731  1.00  0.00    -0.051 Br
HETATM   28  C   UNL     1       7.005  32.353  60.963  1.00  0.00     0.037 A 
BRANCH  23  29
HETATM   29  O   UNL     1       9.203  31.097  58.273  1.00  0.00    -0.360 OA
HETATM   30  H   UNL     1       9.692  31.853  57.886  1.00  0.00     0.217 HD
ENDBRANCH  23  29
ENDBRANCH   3  22
TORSDOF 7
ENDMDL
MODEL 8
REMARK VINA RESULT:      -8.5      3.650     10.499
REMARK  7 active torsions:
REMARK  status: ('A' for Active; 'I' for Inactive)
REMARK    1  A    between atoms: C_2  and  C_3 
REMARK    2  A    between atoms: C_5  and  N_6 
REMARK       I    between atoms: N_6  and  C_7 
REMARK    3  A    between atoms: C_7  and  C_8 
REMARK    4  A    between atoms: C_8  and  S_9 
REMARK    5  A    between atoms: S_9  and  C_10 
REMARK    6  A    between atoms: C_12  and  C_13 
REMARK    7  A    between atoms: C_14  and  O_15 
ROOT
HETATM    1  C   UNL     1       5.290  27.794  55.031  1.00  0.00     0.185 A 
HETATM    2  N   UNL     1       6.273  26.933  55.105  1.00  0.00    -0.201 NA
HETATM    3  C   UNL     1       5.912  25.969  54.173  1.00  0.00     0.184 A 
HETATM    4  N   UNL     1       4.769  26.242  53.521  1.00  0.00    -0.152 NA
HETATM    5  N   UNL     1       4.394  27.401  54.090  1.00  0.00    -0.253 N 
HETATM    6  H   UNL     1       3.533  27.854  53.806  1.00  0.00     0.191 HD
ENDROOT
BRANCH   1   7
HETATM    7  S   UNL     1       5.057  29.229  55.946  1.00  0.00    -0.081 SA
BRANCH   7   8
HETATM    8  C   UNL     1       6.740  29.523  56.565  1.00  0.00     0.185 C 
BRANCH   8   9
HETATM    9  C   UNL     1       6.743  30.518  57.721  1.00  0.00     0.231 C 
HETATM   10  N   UNL     1       7.724  30.249  58.665  1.00  0.00    -0.327 N 
HETATM   11  H   UNL     1       8.318  29.443  58.502  1.00  0.00     0.169 HD
HETATM   12  O   UNL     1       5.949  31.455  57.758  1.00  0.00    -0.272 OA
BRANCH  10  13
HETATM   13  C   UNL     1       7.977  30.940  59.871  1.00  0.00     0.035 A 
HETATM   14  C   UNL     1       7.080  31.830  60.467  1.00  0.00     0.044 A 
HETATM   15  C   UNL     1       7.408  32.468  61.673  1.00  0.00     0.011 A 
HETATM   16  C   UNL     1       8.642  32.209  62.281  1.00  0.00     0.015 A 
HETATM   17  C   UNL     1       9.540  31.323  61.692  1.00  0.00     0.003 A 
HETATM   18  C   UNL     1       9.207  30.693  60.493  1.00  0.00     0.029 A 
BRANCH  15  19
HETATM   19  C   UNL     1       6.476  33.423  62.345  1.00  0.00     0.155 C 
HETATM   20  C   UNL     1       6.699  33.771  63.794  1.00  0.00     0.096 C 
HETATM   21  O   UNL     1       5.542  33.913  61.712  1.00  0.00    -0.293 OA
ENDBRANCH  15  19
ENDBRANCH  10  13
ENDBRANCH   8   9
ENDBRANCH   7   8
ENDBRANCH   1   7
BRANCH   3  22
HETATM   22  C   UNL     1       6.724  24.772  53.965  1.00  0.00     0.048 A 
HETATM   23  C   UNL     1       7.277  24.470  52.706  1.00  0.00     0.080 A 
HETATM   24  C   UNL     1       8.071  23.340  52.518  1.00  0.00     0.039 A 
HETATM   25  C   UNL     1       8.321  22.484  53.589  1.00  0.00     0.022 A 
HETATM   26  C   UNL     1       7.772  22.765  54.838  1.00  0.00     0.012 A 
HETATM   27 BR   UNL     1       8.103  21.597  56.289  1.00  0.00    -0.051 Br
HETATM   28  C   UNL     1       6.980  23.898  55.032  1.00  0.00     0.037 A 
BRANCH  23  29
HETATM   29  O   UNL     1       7.071  25.255  51.598  1.00  0.00    -0.360 OA
HETATM   30  H   UNL     1       7.133  26.183  51.909  1.00  0.00     0.217 HD
ENDBRANCH  23  29
ENDBRANCH   3  22
TORSDOF 7
ENDMDL
MODEL 9
REMARK VINA RESULT:      -8.5      3.748     10.748
REMARK  7 active torsions:
REMARK  status: ('A' for Active; 'I' for Inactive)
REMARK    1  A    between atoms: C_2  and  C_3 
REMARK    2  A    between atoms: C_5  and  N_6 
REMARK       I    between atoms: N_6  and  C_7 
REMARK    3  A    between atoms: C_7  and  C_8 
REMARK    4  A    between atoms: C_8  and  S_9 
REMARK    5  A    between atoms: S_9  and  C_10 
REMARK    6  A    between atoms: C_12  and  C_13 
REMARK    7  A    between atoms: C_14  and  O_15 
ROOT
HETATM    1  C   UNL     1       5.609  27.794  56.504  1.00  0.00     0.185 A 
HETATM    2  N   UNL     1       6.431  27.269  55.631  1.00  0.00    -0.201 NA
HETATM    3  C   UNL     1       6.055  25.931  55.617  1.00  0.00     0.184 A 
HETATM    4  N   UNL     1       5.016  25.649  56.422  1.00  0.00    -0.152 NA
HETATM    5  N   UNL     1       4.759  26.847  56.975  1.00  0.00    -0.253 N 
HETATM    6  H   UNL     1       4.016  26.944  57.658  1.00  0.00     0.191 HD
ENDROOT
BRANCH   1   7
HETATM    7  S   UNL     1       5.535  29.419  57.056  1.00  0.00    -0.081 SA
BRANCH   7   8
HETATM    8  C   UNL     1       7.265  29.702  57.534  1.00  0.00     0.185 C 
BRANCH   8   9
HETATM    9  C   UNL     1       7.395  30.896  58.474  1.00  0.00     0.231 C 
HETATM   10  N   UNL     1       6.277  31.078  59.277  1.00  0.00    -0.327 N 
HETATM   11  H   UNL     1       5.510  30.426  59.161  1.00  0.00     0.169 HD
HETATM   12  O   UNL     1       8.411  31.586  58.493  1.00  0.00    -0.272 OA
BRANCH  10  13
HETATM   13  C   UNL     1       6.049  32.102  60.222  1.00  0.00     0.035 A 
HETATM   14  C   UNL     1       6.696  32.189  61.457  1.00  0.00     0.044 A 
HETATM   15  C   UNL     1       6.416  33.248  62.334  1.00  0.00     0.011 A 
HETATM   16  C   UNL     1       5.480  34.223  61.967  1.00  0.00     0.015 A 
HETATM   17  C   UNL     1       4.831  34.142  60.738  1.00  0.00     0.003 A 
HETATM   18  C   UNL     1       5.115  33.087  59.872  1.00  0.00     0.029 A 
BRANCH  15  19
HETATM   19  C   UNL     1       7.089  33.379  63.661  1.00  0.00     0.155 C 
HETATM   20  C   UNL     1       6.498  34.301  64.697  1.00  0.00     0.096 C 
HETATM   21  O   UNL     1       8.113  32.738  63.893  1.00  0.00    -0.293 OA
ENDBRANCH  15  19
ENDBRANCH  10  13
ENDBRANCH   8   9
ENDBRANCH   7   8
ENDBRANCH   1   7
BRANCH   3  22
HETATM   22  C   UNL     1       6.764  24.952  54.799  1.00  0.00     0.048 A 
HETATM   23  C   UNL     1       7.236  25.274  53.512  1.00  0.00     0.080 A 
HETATM   24  C   UNL     1       7.934  24.343  52.744  1.00  0.00     0.039 A 
HETATM   25  C   UNL     1       8.166  23.065  53.248  1.00  0.00     0.022 A 
HETATM   26  C   UNL     1       7.697  22.729  54.517  1.00  0.00     0.012 A 
HETATM   27 BR   UNL     1       8.006  20.991  55.197  1.00  0.00    -0.051 Br
HETATM   28  C   UNL     1       7.003  23.659  55.291  1.00  0.00     0.037 A 
BRANCH  23  29
HETATM   29  O   UNL     1       7.039  26.506  52.937  1.00  0.00    -0.360 OA
HETATM   30  H   UNL     1       6.069  26.646  52.927  1.00  0.00     0.217 HD
ENDBRANCH  23  29
ENDBRANCH   3  22
TORSDOF 7
ENDMDL
MODEL 10
REMARK VINA RESULT:      -8.4      5.178      8.238
REMARK  7 active torsions:
REMARK  status: ('A' for Active; 'I' for Inactive)
REMARK    1  A    between atoms: C_2  and  C_3 
REMARK    2  A    between atoms: C_5  and  N_6 
REMARK       I    between atoms: N_6  and  C_7 
REMARK    3  A    between atoms: C_7  and  C_8 
REMARK    4  A    between atoms: C_8  and  S_9 
REMARK    5  A    between atoms: S_9  and  C_10 
REMARK    6  A    between atoms: C_12  and  C_13 
REMARK    7  A    between atoms: C_14  and  O_15 
ROOT
HETATM    1  C   UNL     1       6.696  27.590  56.992  1.00  0.00     0.185 A 
HETATM    2  N   UNL     1       6.493  26.682  56.072  1.00  0.00    -0.201 NA
HETATM    3  C   UNL     1       7.513  25.768  56.306  1.00  0.00     0.184 A 
HETATM    4  N   UNL     1       8.293  26.081  57.355  1.00  0.00    -0.152 NA
HETATM    5  N   UNL     1       7.756  27.243  57.766  1.00  0.00    -0.253 N 
HETATM    6  H   UNL     1       8.157  27.740  58.552  1.00  0.00     0.191 HD
ENDROOT
BRANCH   1   7
HETATM    7  S   UNL     1       5.827  29.046  57.264  1.00  0.00    -0.081 SA
BRANCH   7   8
HETATM    8  C   UNL     1       4.302  28.720  56.330  1.00  0.00     0.185 C 
BRANCH   8   9
HETATM    9  C   UNL     1       4.557  28.734  54.826  1.00  0.00     0.231 C 
HETATM   10  N   UNL     1       4.323  27.505  54.224  1.00  0.00    -0.327 N 
HETATM   11  H   UNL     1       4.023  26.744  54.823  1.00  0.00     0.169 HD
HETATM   12  O   UNL     1       4.914  29.759  54.249  1.00  0.00    -0.272 OA
BRANCH  10  13
HETATM   13  C   UNL     1       4.499  27.160  52.867  1.00  0.00     0.035 A 
HETATM   14  C   UNL     1       4.368  28.059  51.805  1.00  0.00     0.044 A 
HETATM   15  C   UNL     1       4.569  27.633  50.483  1.00  0.00     0.011 A 
HETATM   16  C   UNL     1       4.903  26.297  50.229  1.00  0.00     0.015 A 
HETATM   17  C   UNL     1       5.035  25.396  51.282  1.00  0.00     0.003 A 
HETATM   18  C   UNL     1       4.833  25.827  52.593  1.00  0.00     0.029 A 
BRANCH  15  19
HETATM   19  C   UNL     1       4.442  28.563  49.322  1.00  0.00     0.155 C 
HETATM   20  C   UNL     1       5.242  28.292  48.073  1.00  0.00     0.096 C 
HETATM   21  O   UNL     1       3.691  29.535  49.395  1.00  0.00    -0.293 OA
ENDBRANCH  15  19
ENDBRANCH  10  13
ENDBRANCH   8   9
ENDBRANCH   7   8
ENDBRANCH   1   7
BRANCH   3  22
HETATM   22  C   UNL     1       7.694  24.596  55.454  1.00  0.00     0.048 A 
HETATM   23  C   UNL     1       7.902  24.721  54.067  1.00  0.00     0.080 A 
HETATM   24  C   UNL     1       8.098  23.601  53.262  1.00  0.00     0.039 A 
HETATM   25  C   UNL     1       8.082  22.328  53.831  1.00  0.00     0.022 A 
HETATM   26  C   UNL     1       7.868  22.188  55.200  1.00  0.00     0.012 A 
HETATM   27 BR   UNL     1       7.837  20.460  55.970  1.00  0.00    -0.051 Br
HETATM   28  C   UNL     1       7.676  23.308  56.011  1.00  0.00     0.037 A 
BRANCH  23  29
HETATM   29  O   UNL     1       7.921  25.936  53.427  1.00  0.00    -0.360 OA
HETATM   30  H   UNL     1       7.304  26.513  53.925  1.00  0.00     0.217 HD
ENDBRANCH  23  29
ENDBRANCH   3  22
TORSDOF 7
ENDMDL
