MODEL 1
REMARK VINA RESULT:     -10.0      0.000      0.000
REMARK  5 active torsions:
REMARK  status: ('A' for Active; 'I' for Inactive)
REMARK    1  A    between atoms: C_2  and  C_3 
REMARK       I    between atoms: C_3  and  N_4 
REMARK    2  A    between atoms: N_4  and  N_5 
REMARK       I    between atoms: N_5  and  C_6 
REMARK       I    between atoms: C_6  and  N_7 
REMARK    3  A    between atoms: N_7  and  C_8 
REMARK    4  A    between atoms: C_18  and  N_19 
REMARK       I    between atoms: N_19  and  C_20 
REMARK       I    between atoms: C_20  and  N_21 
REMARK    5  A    between atoms: N_21  and  C_22 
ROOT
HETATM    1  C   UNL     1       7.113  33.032  64.384  1.00  0.00     0.019 A 
HETATM    2  C   UNL     1       5.728  33.186  64.503  1.00  0.00     0.033 A 
HETATM    3  C   UNL     1       4.896  32.670  63.504  1.00  0.00     0.019 A 
HETATM    4  C   UNL     1       5.449  31.991  62.407  1.00  0.00     0.030 A 
HETATM    5  C   UNL     1       6.831  31.811  62.306  1.00  0.00     0.036 A 
HETATM    6  C   UNL     1       7.659  32.350  63.295  1.00  0.00     0.030 A 
ENDROOT
BRANCH   2   7
HETATM    7  C   UNL     1       5.206  33.838  65.735  1.00  0.00     0.270 C 
HETATM    8  N   UNL     1       5.986  33.758  66.878  1.00  0.00    -0.262 N 
HETATM    9  H   UNL     1       6.634  32.982  66.985  1.00  0.00     0.190 HD
HETATM   10  O   UNL     1       4.108  34.391  65.721  1.00  0.00    -0.266 OA
BRANCH   8  11
HETATM   11  N   UNL     1       5.362  34.199  68.057  1.00  0.00    -0.249 N 
HETATM   12  C   UNL     1       6.038  34.519  69.206  1.00  0.00     0.335 C 
HETATM   13  N   UNL     1       7.390  34.628  69.034  1.00  0.00    -0.337 N 
HETATM   14  O   UNL     1       5.437  34.668  70.260  1.00  0.00    -0.246 OA
HETATM   15  H   UNL     1       7.617  34.907  68.090  1.00  0.00     0.164 HD
HETATM   16  H   UNL     1       4.347  34.113  68.103  1.00  0.00     0.192 HD
BRANCH  13  17
HETATM   17  C   UNL     1       8.368  34.997  70.058  1.00  0.00     0.086 C 
HETATM   18  C   UNL     1       8.216  36.438  70.562  1.00  0.00     0.025 C 
HETATM   19  C   UNL     1       7.322  36.596  71.786  1.00  0.00     0.002 C 
HETATM   20  C   UNL     1       7.708  35.628  72.897  1.00  0.00     0.000 C 
HETATM   21  C   UNL     1       7.685  34.181  72.424  1.00  0.00     0.002 C 
HETATM   22  C   UNL     1       8.540  33.959  71.178  1.00  0.00     0.025 C 
ENDBRANCH  13  17
ENDBRANCH   8  11
ENDBRANCH   2   7
BRANCH   5  23
HETATM   23  N   UNL     1       7.454  31.043  61.304  1.00  0.00    -0.309 N 
HETATM   24  C   UNL     1       7.479  31.282  59.945  1.00  0.00     0.321 C 
HETATM   25  N   UNL     1       7.877  30.145  59.269  1.00  0.00    -0.338 N 
HETATM   26  O   UNL     1       7.152  32.321  59.391  1.00  0.00    -0.247 OA
HETATM   27  H   UNL     1       8.477  29.528  59.791  1.00  0.00     0.164 HD
HETATM   28  H   UNL     1       7.913  30.202  61.613  1.00  0.00     0.170 HD
BRANCH  25  29
HETATM   29  C   UNL     1       8.007  30.059  57.812  1.00  0.00     0.086 C 
HETATM   30  C   UNL     1       8.698  28.732  57.449  1.00  0.00     0.025 C 
HETATM   31  C   UNL     1       7.799  27.521  57.721  1.00  0.00     0.002 C 
HETATM   32  C   UNL     1       6.453  27.642  57.014  1.00  0.00     0.000 C 
HETATM   33  C   UNL     1       5.758  28.965  57.327  1.00  0.00     0.002 C 
HETATM   34  C   UNL     1       6.674  30.155  57.051  1.00  0.00     0.025 C 
ENDBRANCH  25  29
ENDBRANCH   5  23
TORSDOF 5
ENDMDL
MODEL 2
REMARK VINA RESULT:      -9.7      5.210      7.765
REMARK  5 active torsions:
REMARK  status: ('A' for Active; 'I' for Inactive)
REMARK    1  A    between atoms: C_2  and  C_3 
REMARK       I    between atoms: C_3  and  N_4 
REMARK    2  A    between atoms: N_4  and  N_5 
REMARK       I    between atoms: N_5  and  C_6 
REMARK       I    between atoms: C_6  and  N_7 
REMARK    3  A    between atoms: N_7  and  C_8 
REMARK    4  A    between atoms: C_18  and  N_19 
REMARK       I    between atoms: N_19  and  C_20 
REMARK       I    between atoms: C_20  and  N_21 
REMARK    5  A    between atoms: N_21  and  C_22 
ROOT
HETATM    1  C   UNL     1       9.517  29.874  57.987  1.00  0.00     0.019 A 
HETATM    2  C   UNL     1       8.544  30.616  58.665  1.00  0.00     0.033 A 
HETATM    3  C   UNL     1       7.271  30.750  58.101  1.00  0.00     0.019 A 
HETATM    4  C   UNL     1       6.975  30.129  56.878  1.00  0.00     0.030 A 
HETATM    5  C   UNL     1       7.938  29.363  56.216  1.00  0.00     0.036 A 
HETATM    6  C   UNL     1       9.216  29.254  56.774  1.00  0.00     0.030 A 
ENDROOT
BRANCH   2   7
HETATM    7  C   UNL     1       8.900  31.171  60.000  1.00  0.00     0.270 C 
HETATM    8  N   UNL     1       8.486  30.462  61.116  1.00  0.00    -0.262 N 
HETATM    9  H   UNL     1       7.666  29.865  61.050  1.00  0.00     0.190 HD
HETATM   10  O   UNL     1       9.512  32.234  60.081  1.00  0.00    -0.266 OA
BRANCH   8  11
HETATM   11  N   UNL     1       8.659  31.127  62.342  1.00  0.00    -0.249 N 
HETATM   12  C   UNL     1       7.703  31.922  62.922  1.00  0.00     0.335 C 
HETATM   13  N   UNL     1       6.470  31.805  62.345  1.00  0.00    -0.337 N 
HETATM   14  O   UNL     1       7.989  32.654  63.858  1.00  0.00    -0.246 OA
HETATM   15  H   UNL     1       6.342  30.890  61.935  1.00  0.00     0.164 HD
HETATM   16  H   UNL     1       9.602  31.149  62.727  1.00  0.00     0.192 HD
BRANCH  13  17
HETATM   17  C   UNL     1       5.246  32.488  62.766  1.00  0.00     0.086 C 
HETATM   18  C   UNL     1       5.366  34.018  62.770  1.00  0.00     0.025 C 
HETATM   19  C   UNL     1       4.941  34.695  61.473  1.00  0.00     0.002 C 
HETATM   20  C   UNL     1       3.571  34.220  61.010  1.00  0.00     0.000 C 
HETATM   21  C   UNL     1       3.519  32.707  60.844  1.00  0.00     0.002 C 
HETATM   22  C   UNL     1       3.964  31.965  62.101  1.00  0.00     0.025 C 
ENDBRANCH  13  17
ENDBRANCH   8  11
ENDBRANCH   2   7
BRANCH   5  23
HETATM   23  N   UNL     1       7.686  28.615  55.051  1.00  0.00    -0.309 N 
HETATM   24  C   UNL     1       6.672  27.705  54.831  1.00  0.00     0.321 C 
HETATM   25  N   UNL     1       6.958  26.933  53.722  1.00  0.00    -0.338 N 
HETATM   26  O   UNL     1       5.682  27.548  55.529  1.00  0.00    -0.247 OA
HETATM   27  H   UNL     1       7.538  27.379  53.030  1.00  0.00     0.164 HD
HETATM   28  H   UNL     1       8.342  28.736  54.297  1.00  0.00     0.170 HD
BRANCH  25  29
HETATM   29  C   UNL     1       6.087  25.869  53.215  1.00  0.00     0.086 C 
HETATM   30  C   UNL     1       6.584  25.437  51.823  1.00  0.00     0.025 C 
HETATM   31  C   UNL     1       7.921  24.693  51.893  1.00  0.00     0.002 C 
HETATM   32  C   UNL     1       7.858  23.498  52.840  1.00  0.00     0.000 C 
HETATM   33  C   UNL     1       7.336  23.889  54.220  1.00  0.00     0.002 C 
HETATM   34  C   UNL     1       6.005  24.631  54.124  1.00  0.00     0.025 C 
ENDBRANCH  25  29
ENDBRANCH   5  23
TORSDOF 5
ENDMDL
MODEL 3
REMARK VINA RESULT:      -9.5      6.067     13.859
REMARK  5 active torsions:
REMARK  status: ('A' for Active; 'I' for Inactive)
REMARK    1  A    between atoms: C_2  and  C_3 
REMARK       I    between atoms: C_3  and  N_4 
REMARK    2  A    between atoms: N_4  and  N_5 
REMARK       I    between atoms: N_5  and  C_6 
REMARK       I    between atoms: C_6  and  N_7 
REMARK    3  A    between atoms: N_7  and  C_8 
REMARK    4  A    between atoms: C_18  and  N_19 
REMARK       I    between atoms: N_19  and  C_20 
REMARK       I    between atoms: C_20  and  N_21 
REMARK    5  A    between atoms: N_21  and  C_22 
ROOT
HETATM    1  C   UNL     1       5.929  27.599  56.363  1.00  0.00     0.019 A 
HETATM    2  C   UNL     1       5.102  27.805  55.255  1.00  0.00     0.033 A 
HETATM    3  C   UNL     1       4.225  28.895  55.250  1.00  0.00     0.019 A 
HETATM    4  C   UNL     1       4.194  29.778  56.340  1.00  0.00     0.030 A 
HETATM    5  C   UNL     1       5.043  29.589  57.434  1.00  0.00     0.036 A 
HETATM    6  C   UNL     1       5.900  28.483  57.443  1.00  0.00     0.030 A 
ENDROOT
BRANCH   2   7
HETATM    7  C   UNL     1       5.251  26.881  54.097  1.00  0.00     0.270 C 
HETATM    8  N   UNL     1       5.353  25.527  54.371  1.00  0.00    -0.262 N 
HETATM    9  H   UNL     1       5.718  25.228  55.271  1.00  0.00     0.190 HD
HETATM   10  O   UNL     1       5.310  27.331  52.954  1.00  0.00    -0.266 OA
BRANCH   8  11
HETATM   11  N   UNL     1       5.702  24.721  53.273  1.00  0.00    -0.249 N 
HETATM   12  C   UNL     1       6.810  23.915  53.239  1.00  0.00     0.335 C 
HETATM   13  N   UNL     1       7.408  23.752  54.458  1.00  0.00    -0.337 N 
HETATM   14  O   UNL     1       7.189  23.424  52.186  1.00  0.00    -0.246 OA
HETATM   15  H   UNL     1       6.738  23.845  55.209  1.00  0.00     0.164 HD
HETATM   16  H   UNL     1       5.194  24.880  52.404  1.00  0.00     0.192 HD
BRANCH  13  17
HETATM   17  C   UNL     1       8.576  22.921  54.748  1.00  0.00     0.086 C 
HETATM   18  C   UNL     1       8.590  22.358  56.175  1.00  0.00     0.025 C 
HETATM   19  C   UNL     1       7.948  20.984  56.327  1.00  0.00     0.002 C 
HETATM   20  C   UNL     1       8.486  19.992  55.305  1.00  0.00     0.000 C 
HETATM   21  C   UNL     1       8.306  20.492  53.878  1.00  0.00     0.002 C 
HETATM   22  C   UNL     1       8.903  21.881  53.664  1.00  0.00     0.025 C 
ENDBRANCH  13  17
ENDBRANCH   8  11
ENDBRANCH   2   7
BRANCH   5  23
HETATM   23  N   UNL     1       5.158  30.491  58.508  1.00  0.00    -0.309 N 
HETATM   24  C   UNL     1       6.094  31.491  58.679  1.00  0.00     0.321 C 
HETATM   25  N   UNL     1       6.098  31.920  59.992  1.00  0.00    -0.338 N 
HETATM   26  O   UNL     1       6.856  31.916  57.824  1.00  0.00    -0.247 OA
HETATM   27  H   UNL     1       5.221  31.816  60.476  1.00  0.00     0.164 HD
HETATM   28  H   UNL     1       4.495  30.375  59.257  1.00  0.00     0.170 HD
BRANCH  25  29
HETATM   29  C   UNL     1       6.976  32.972  60.509  1.00  0.00     0.086 C 
HETATM   30  C   UNL     1       6.450  33.433  61.881  1.00  0.00     0.025 C 
HETATM   31  C   UNL     1       6.634  32.361  62.959  1.00  0.00     0.002 C 
HETATM   32  C   UNL     1       8.086  31.901  63.062  1.00  0.00     0.000 C 
HETATM   33  C   UNL     1       8.647  31.470  61.710  1.00  0.00     0.002 C 
HETATM   34  C   UNL     1       8.449  32.553  60.652  1.00  0.00     0.025 C 
ENDBRANCH  25  29
ENDBRANCH   5  23
TORSDOF 5
ENDMDL
MODEL 4
REMARK VINA RESULT:      -9.5     12.073     16.122
REMARK  5 active torsions:
REMARK  status: ('A' for Active; 'I' for Inactive)
REMARK    1  A    between atoms: C_2  and  C_3 
REMARK       I    between atoms: C_3  and  N_4 
REMARK    2  A    between atoms: N_4  and  N_5 
REMARK       I    between atoms: N_5  and  C_6 
REMARK       I    between atoms: C_6  and  N_7 
REMARK    3  A    between atoms: N_7  and  C_8 
REMARK    4  A    between atoms: C_18  and  N_19 
REMARK       I    between atoms: N_19  and  C_20 
REMARK       I    between atoms: C_20  and  N_21 
REMARK    5  A    between atoms: N_21  and  C_22 
ROOT
HETATM    1  C   UNL     1       4.535  27.110  53.205  1.00  0.00     0.019 A 
HETATM    2  C   UNL     1       4.172  28.292  53.860  1.00  0.00     0.033 A 
HETATM    3  C   UNL     1       4.364  28.394  55.241  1.00  0.00     0.019 A 
HETATM    4  C   UNL     1       4.931  27.327  55.954  1.00  0.00     0.030 A 
HETATM    5  C   UNL     1       5.321  26.158  55.295  1.00  0.00     0.036 A 
HETATM    6  C   UNL     1       5.104  26.053  53.917  1.00  0.00     0.030 A 
ENDROOT
BRANCH   2   7
HETATM    7  C   UNL     1       3.661  29.416  53.028  1.00  0.00     0.270 C 
HETATM    8  N   UNL     1       2.592  29.150  52.186  1.00  0.00    -0.262 N 
HETATM    9  H   UNL     1       2.448  28.202  51.849  1.00  0.00     0.190 HD
HETATM   10  O   UNL     1       4.202  30.518  53.082  1.00  0.00    -0.266 OA
BRANCH   8  11
HETATM   11  N   UNL     1       2.284  30.175  51.274  1.00  0.00    -0.249 N 
HETATM   12  C   UNL     1       2.567  30.116  49.934  1.00  0.00     0.335 C 
HETATM   13  N   UNL     1       2.935  28.872  49.506  1.00  0.00    -0.337 N 
HETATM   14  O   UNL     1       2.491  31.119  49.239  1.00  0.00    -0.246 OA
HETATM   15  H   UNL     1       2.519  28.150  50.078  1.00  0.00     0.164 HD
HETATM   16  H   UNL     1       1.989  31.069  51.666  1.00  0.00     0.192 HD
BRANCH  13  17
HETATM   17  C   UNL     1       3.254  28.486  48.131  1.00  0.00     0.086 C 
HETATM   18  C   UNL     1       4.342  27.408  48.032  1.00  0.00     0.025 C 
HETATM   19  C   UNL     1       3.821  25.976  47.995  1.00  0.00     0.002 C 
HETATM   20  C   UNL     1       2.728  25.798  46.950  1.00  0.00     0.000 C 
HETATM   21  C   UNL     1       1.571  26.764  47.166  1.00  0.00     0.002 C 
HETATM   22  C   UNL     1       2.029  28.219  47.243  1.00  0.00     0.025 C 
ENDBRANCH  13  17
ENDBRANCH   8  11
ENDBRANCH   2   7
BRANCH   5  23
HETATM   23  N   UNL     1       6.003  25.093  55.914  1.00  0.00    -0.309 N 
HETATM   24  C   UNL     1       7.291  24.659  55.676  1.00  0.00     0.321 C 
HETATM   25  N   UNL     1       7.475  23.399  56.211  1.00  0.00    -0.338 N 
HETATM   26  O   UNL     1       8.147  25.259  55.043  1.00  0.00    -0.247 OA
HETATM   27  H   UNL     1       6.897  23.186  57.007  1.00  0.00     0.164 HD
HETATM   28  H   UNL     1       5.477  24.566  56.592  1.00  0.00     0.170 HD
BRANCH  25  29
HETATM   29  C   UNL     1       8.731  22.649  56.133  1.00  0.00     0.086 C 
HETATM   30  C   UNL     1       8.527  21.264  56.774  1.00  0.00     0.025 C 
HETATM   31  C   UNL     1       7.614  20.368  55.933  1.00  0.00     0.002 C 
HETATM   32  C   UNL     1       8.116  20.232  54.498  1.00  0.00     0.000 C 
HETATM   33  C   UNL     1       8.360  21.589  53.846  1.00  0.00     0.002 C 
HETATM   34  C   UNL     1       9.270  22.465  54.704  1.00  0.00     0.025 C 
ENDBRANCH  25  29
ENDBRANCH   5  23
TORSDOF 5
ENDMDL
MODEL 5
REMARK VINA RESULT:      -9.3      6.338     10.532
REMARK  5 active torsions:
REMARK  status: ('A' for Active; 'I' for Inactive)
REMARK    1  A    between atoms: C_2  and  C_3 
REMARK       I    between atoms: C_3  and  N_4 
REMARK    2  A    between atoms: N_4  and  N_5 
REMARK       I    between atoms: N_5  and  C_6 
REMARK       I    between atoms: C_6  and  N_7 
REMARK    3  A    between atoms: N_7  and  C_8 
REMARK    4  A    between atoms: C_18  and  N_19 
REMARK       I    between atoms: N_19  and  C_20 
REMARK       I    between atoms: C_20  and  N_21 
REMARK    5  A    between atoms: N_21  and  C_22 
ROOT
HETATM    1  C   UNL     1       5.995  28.500  55.414  1.00  0.00     0.019 A 
HETATM    2  C   UNL     1       6.451  27.445  56.212  1.00  0.00     0.033 A 
HETATM    3  C   UNL     1       6.187  26.129  55.820  1.00  0.00     0.019 A 
HETATM    4  C   UNL     1       5.487  25.876  54.629  1.00  0.00     0.030 A 
HETATM    5  C   UNL     1       5.059  26.930  53.818  1.00  0.00     0.036 A 
HETATM    6  C   UNL     1       5.305  28.244  54.228  1.00  0.00     0.030 A 
ENDROOT
BRANCH   2   7
HETATM    7  C   UNL     1       7.263  27.785  57.412  1.00  0.00     0.270 C 
HETATM    8  N   UNL     1       7.204  29.090  57.874  1.00  0.00    -0.262 N 
HETATM    9  H   UNL     1       6.976  29.838  57.224  1.00  0.00     0.190 HD
HETATM   10  O   UNL     1       7.974  26.930  57.936  1.00  0.00    -0.266 OA
BRANCH   8  11
HETATM   11  N   UNL     1       8.141  29.413  58.871  1.00  0.00    -0.249 N 
HETATM   12  C   UNL     1       8.077  30.544  59.643  1.00  0.00     0.335 C 
HETATM   13  N   UNL     1       6.883  31.204  59.550  1.00  0.00    -0.337 N 
HETATM   14  O   UNL     1       9.033  30.888  60.322  1.00  0.00    -0.246 OA
HETATM   15  H   UNL     1       6.130  30.568  59.327  1.00  0.00     0.164 HD
HETATM   16  H   UNL     1       8.996  28.859  58.897  1.00  0.00     0.192 HD
BRANCH  13  17
HETATM   17  C   UNL     1       6.499  32.411  60.282  1.00  0.00     0.086 C 
HETATM   18  C   UNL     1       5.203  33.053  59.770  1.00  0.00     0.025 C 
HETATM   19  C   UNL     1       3.936  32.585  60.475  1.00  0.00     0.002 C 
HETATM   20  C   UNL     1       4.068  32.666  61.990  1.00  0.00     0.000 C 
HETATM   21  C   UNL     1       5.265  31.877  62.500  1.00  0.00     0.002 C 
HETATM   22  C   UNL     1       6.568  32.277  61.811  1.00  0.00     0.025 C 
ENDBRANCH  13  17
ENDBRANCH   8  11
ENDBRANCH   2   7
BRANCH   5  23
HETATM   23  N   UNL     1       4.458  26.759  52.556  1.00  0.00    -0.309 N 
HETATM   24  C   UNL     1       5.066  26.396  51.371  1.00  0.00     0.321 C 
HETATM   25  N   UNL     1       4.232  26.673  50.305  1.00  0.00    -0.338 N 
HETATM   26  O   UNL     1       6.194  25.943  51.250  1.00  0.00    -0.247 OA
HETATM   27  H   UNL     1       3.248  26.653  50.518  1.00  0.00     0.164 HD
HETATM   28  H   UNL     1       3.472  26.954  52.505  1.00  0.00     0.170 HD
BRANCH  25  29
HETATM   29  C   UNL     1       4.574  26.410  48.905  1.00  0.00     0.086 C 
HETATM   30  C   UNL     1       3.372  25.741  48.214  1.00  0.00     0.025 C 
HETATM   31  C   UNL     1       2.198  26.708  48.037  1.00  0.00     0.002 C 
HETATM   32  C   UNL     1       2.612  27.976  47.296  1.00  0.00     0.000 C 
HETATM   33  C   UNL     1       3.824  28.644  47.938  1.00  0.00     0.002 C 
HETATM   34  C   UNL     1       4.980  27.660  48.107  1.00  0.00     0.025 C 
ENDBRANCH  25  29
ENDBRANCH   5  23
TORSDOF 5
ENDMDL
MODEL 6
REMARK VINA RESULT:      -9.3      5.552      8.894
REMARK  5 active torsions:
REMARK  status: ('A' for Active; 'I' for Inactive)
REMARK    1  A    between atoms: C_2  and  C_3 
REMARK       I    between atoms: C_3  and  N_4 
REMARK    2  A    between atoms: N_4  and  N_5 
REMARK       I    between atoms: N_5  and  C_6 
REMARK       I    between atoms: C_6  and  N_7 
REMARK    3  A    between atoms: N_7  and  C_8 
REMARK    4  A    between atoms: C_18  and  N_19 
REMARK       I    between atoms: N_19  and  C_20 
REMARK       I    between atoms: C_20  and  N_21 
REMARK    5  A    between atoms: N_21  and  C_22 
ROOT
HETATM    1  C   UNL     1       4.811  28.184  57.037  1.00  0.00     0.019 A 
HETATM    2  C   UNL     1       5.597  29.328  56.865  1.00  0.00     0.033 A 
HETATM    3  C   UNL     1       6.868  29.205  56.295  1.00  0.00     0.019 A 
HETATM    4  C   UNL     1       7.337  27.947  55.885  1.00  0.00     0.030 A 
HETATM    5  C   UNL     1       6.540  26.809  56.029  1.00  0.00     0.036 A 
HETATM    6  C   UNL     1       5.279  26.936  56.622  1.00  0.00     0.030 A 
ENDROOT
BRANCH   2   7
HETATM    7  C   UNL     1       5.001  30.640  57.240  1.00  0.00     0.270 C 
HETATM    8  N   UNL     1       4.269  30.696  58.416  1.00  0.00    -0.262 N 
HETATM    9  H   UNL     1       3.824  29.852  58.765  1.00  0.00     0.190 HD
HETATM   10  O   UNL     1       5.141  31.613  56.501  1.00  0.00    -0.266 OA
BRANCH   8  11
HETATM   11  N   UNL     1       3.556  31.890  58.617  1.00  0.00    -0.249 N 
HETATM   12  C   UNL     1       3.460  32.528  59.827  1.00  0.00     0.335 C 
HETATM   13  N   UNL     1       4.332  32.054  60.767  1.00  0.00    -0.337 N 
HETATM   14  O   UNL     1       2.644  33.422  59.994  1.00  0.00    -0.246 OA
HETATM   15  H   UNL     1       5.164  31.675  60.337  1.00  0.00     0.164 HD
HETATM   16  H   UNL     1       2.946  32.197  57.860  1.00  0.00     0.192 HD
BRANCH  13  17
HETATM   17  C   UNL     1       4.496  32.558  62.131  1.00  0.00     0.086 C 
HETATM   18  C   UNL     1       5.307  31.622  63.038  1.00  0.00     0.025 C 
HETATM   19  C   UNL     1       6.804  31.906  63.073  1.00  0.00     0.002 C 
HETATM   20  C   UNL     1       7.095  33.376  63.343  1.00  0.00     0.000 C 
HETATM   21  C   UNL     1       6.420  34.286  62.326  1.00  0.00     0.002 C 
HETATM   22  C   UNL     1       4.918  34.032  62.219  1.00  0.00     0.025 C 
ENDBRANCH  13  17
ENDBRANCH   8  11
ENDBRANCH   2   7
BRANCH   5  23
HETATM   23  N   UNL     1       6.886  25.536  55.538  1.00  0.00    -0.309 N 
HETATM   24  C   UNL     1       7.927  24.726  55.945  1.00  0.00     0.321 C 
HETATM   25  N   UNL     1       8.152  23.736  55.008  1.00  0.00    -0.338 N 
HETATM   26  O   UNL     1       8.601  24.872  56.954  1.00  0.00    -0.247 OA
HETATM   27  H   UNL     1       7.345  23.468  54.469  1.00  0.00     0.164 HD
HETATM   28  H   UNL     1       6.325  25.187  54.779  1.00  0.00     0.170 HD
BRANCH  25  29
HETATM   29  C   UNL     1       9.189  22.708  55.133  1.00  0.00     0.086 C 
HETATM   30  C   UNL     1       8.736  21.664  56.170  1.00  0.00     0.025 C 
HETATM   31  C   UNL     1       7.565  20.818  55.662  1.00  0.00     0.002 C 
HETATM   32  C   UNL     1       7.881  20.152  54.326  1.00  0.00     0.000 C 
HETATM   33  C   UNL     1       8.367  21.159  53.286  1.00  0.00     0.002 C 
HETATM   34  C   UNL     1       9.532  21.991  53.816  1.00  0.00     0.025 C 
ENDBRANCH  25  29
ENDBRANCH   5  23
TORSDOF 5
ENDMDL
MODEL 7
REMARK VINA RESULT:      -8.8      6.067     13.669
REMARK  5 active torsions:
REMARK  status: ('A' for Active; 'I' for Inactive)
REMARK    1  A    between atoms: C_2  and  C_3 
REMARK       I    between atoms: C_3  and  N_4 
REMARK    2  A    between atoms: N_4  and  N_5 
REMARK       I    between atoms: N_5  and  C_6 
REMARK       I    between atoms: C_6  and  N_7 
REMARK    3  A    between atoms: N_7  and  C_8 
REMARK    4  A    between atoms: C_18  and  N_19 
REMARK       I    between atoms: N_19  and  C_20 
REMARK       I    between atoms: C_20  and  N_21 
REMARK    5  A    between atoms: N_21  and  C_22 
ROOT
HETATM    1  C   UNL     1       4.886  29.550  55.724  1.00  0.00     0.019 A 
HETATM    2  C   UNL     1       3.868  30.235  55.054  1.00  0.00     0.033 A 
HETATM    3  C   UNL     1       3.146  31.221  55.734  1.00  0.00     0.019 A 
HETATM    4  C   UNL     1       3.457  31.527  57.068  1.00  0.00     0.030 A 
HETATM    5  C   UNL     1       4.495  30.863  57.727  1.00  0.00     0.036 A 
HETATM    6  C   UNL     1       5.197  29.861  57.048  1.00  0.00     0.030 A 
ENDROOT
BRANCH   2   7
HETATM    7  C   UNL     1       3.652  29.923  53.614  1.00  0.00     0.270 C 
HETATM    8  N   UNL     1       3.407  28.600  53.279  1.00  0.00    -0.262 N 
HETATM    9  H   UNL     1       3.759  27.861  53.881  1.00  0.00     0.190 HD
HETATM   10  O   UNL     1       3.725  30.816  52.773  1.00  0.00    -0.266 OA
BRANCH   8  11
HETATM   11  N   UNL     1       3.420  28.323  51.901  1.00  0.00    -0.249 N 
HETATM   12  C   UNL     1       4.168  27.326  51.330  1.00  0.00     0.335 C 
HETATM   13  N   UNL     1       4.699  26.450  52.236  1.00  0.00    -0.337 N 
HETATM   14  O   UNL     1       4.322  27.282  50.118  1.00  0.00    -0.246 OA
HETATM   15  H   UNL     1       4.124  26.389  53.065  1.00  0.00     0.164 HD
HETATM   16  H   UNL     1       2.981  29.008  51.288  1.00  0.00     0.192 HD
BRANCH  13  17
HETATM   17  C   UNL     1       5.502  25.266  51.931  1.00  0.00     0.086 C 
HETATM   18  C   UNL     1       6.943  25.591  51.517  1.00  0.00     0.025 C 
HETATM   19  C   UNL     1       7.949  25.610  52.661  1.00  0.00     0.002 C 
HETATM   20  C   UNL     1       7.857  24.352  53.515  1.00  0.00     0.000 C 
HETATM   21  C   UNL     1       6.454  24.137  54.064  1.00  0.00     0.002 C 
HETATM   22  C   UNL     1       5.390  24.137  52.968  1.00  0.00     0.025 C 
ENDBRANCH  13  17
ENDBRANCH   8  11
ENDBRANCH   2   7
BRANCH   5  23
HETATM   23  N   UNL     1       4.946  31.191  59.020  1.00  0.00    -0.309 N 
HETATM   24  C   UNL     1       5.967  32.052  59.367  1.00  0.00     0.321 C 
HETATM   25  N   UNL     1       6.336  31.846  60.682  1.00  0.00    -0.338 N 
HETATM   26  O   UNL     1       6.517  32.853  58.626  1.00  0.00    -0.247 OA
HETATM   27  H   UNL     1       5.606  31.493  61.279  1.00  0.00     0.164 HD
HETATM   28  H   UNL     1       4.488  30.719  59.781  1.00  0.00     0.170 HD
BRANCH  25  29
HETATM   29  C   UNL     1       7.394  32.595  61.365  1.00  0.00     0.086 C 
HETATM   30  C   UNL     1       7.595  32.006  62.774  1.00  0.00     0.025 C 
HETATM   31  C   UNL     1       8.225  30.610  62.729  1.00  0.00     0.002 C 
HETATM   32  C   UNL     1       9.535  30.603  61.947  1.00  0.00     0.000 C 
HETATM   33  C   UNL     1       9.376  31.214  60.558  1.00  0.00     0.002 C 
HETATM   34  C   UNL     1       8.743  32.602  60.627  1.00  0.00     0.025 C 
ENDBRANCH  25  29
ENDBRANCH   5  23
TORSDOF 5
ENDMDL
MODEL 8
REMARK VINA RESULT:      -8.8      6.486     14.929
REMARK  5 active torsions:
REMARK  status: ('A' for Active; 'I' for Inactive)
REMARK    1  A    between atoms: C_2  and  C_3 
REMARK       I    between atoms: C_3  and  N_4 
REMARK    2  A    between atoms: N_4  and  N_5 
REMARK       I    between atoms: N_5  and  C_6 
REMARK       I    between atoms: C_6  and  N_7 
REMARK    3  A    between atoms: N_7  and  C_8 
REMARK    4  A    between atoms: C_18  and  N_19 
REMARK       I    between atoms: N_19  and  C_20 
REMARK       I    between atoms: C_20  and  N_21 
REMARK    5  A    between atoms: N_21  and  C_22 
ROOT
HETATM    1  C   UNL     1       6.806  27.145  55.156  1.00  0.00     0.019 A 
HETATM    2  C   UNL     1       5.900  27.743  54.273  1.00  0.00     0.033 A 
HETATM    3  C   UNL     1       5.205  28.887  54.679  1.00  0.00     0.019 A 
HETATM    4  C   UNL     1       5.432  29.434  55.952  1.00  0.00     0.030 A 
HETATM    5  C   UNL     1       6.359  28.854  56.821  1.00  0.00     0.036 A 
HETATM    6  C   UNL     1       7.033  27.696  56.418  1.00  0.00     0.030 A 
ENDROOT
BRANCH   2   7
HETATM    7  C   UNL     1       5.777  27.163  52.908  1.00  0.00     0.270 C 
HETATM    8  N   UNL     1       4.639  26.421  52.631  1.00  0.00    -0.262 N 
HETATM    9  H   UNL     1       4.148  25.961  53.393  1.00  0.00     0.190 HD
HETATM   10  O   UNL     1       6.677  27.323  52.087  1.00  0.00    -0.266 OA
BRANCH   8  11
HETATM   11  N   UNL     1       4.665  25.723  51.412  1.00  0.00    -0.249 N 
HETATM   12  C   UNL     1       4.190  26.231  50.230  1.00  0.00     0.335 C 
HETATM   13  N   UNL     1       3.930  27.572  50.275  1.00  0.00    -0.337 N 
HETATM   14  O   UNL     1       4.024  25.502  49.263  1.00  0.00    -0.246 OA
HETATM   15  H   UNL     1       4.520  28.037  50.951  1.00  0.00     0.164 HD
HETATM   16  H   UNL     1       4.895  24.731  51.453  1.00  0.00     0.192 HD
BRANCH  13  17
HETATM   17  C   UNL     1       3.458  28.402  49.167  1.00  0.00     0.086 C 
HETATM   18  C   UNL     1       1.930  28.535  49.106  1.00  0.00     0.025 C 
HETATM   19  C   UNL     1       1.362  29.735  49.853  1.00  0.00     0.002 C 
HETATM   20  C   UNL     1       2.075  31.027  49.474  1.00  0.00     0.000 C 
HETATM   21  C   UNL     1       3.577  30.937  49.705  1.00  0.00     0.002 C 
HETATM   22  C   UNL     1       4.206  29.734  49.006  1.00  0.00     0.025 C 
ENDBRANCH  13  17
ENDBRANCH   8  11
ENDBRANCH   2   7
BRANCH   5  23
HETATM   23  N   UNL     1       6.730  29.406  58.062  1.00  0.00    -0.309 N 
HETATM   24  C   UNL     1       7.915  30.032  58.390  1.00  0.00     0.321 C 
HETATM   25  N   UNL     1       8.042  30.119  59.763  1.00  0.00    -0.338 N 
HETATM   26  O   UNL     1       8.769  30.415  57.604  1.00  0.00    -0.247 OA
HETATM   27  H   UNL     1       7.173  30.154  60.270  1.00  0.00     0.164 HD
HETATM   28  H   UNL     1       6.061  29.307  58.807  1.00  0.00     0.170 HD
BRANCH  25  29
HETATM   29  C   UNL     1       9.188  30.727  60.444  1.00  0.00     0.086 C 
HETATM   30  C   UNL     1       9.049  32.260  60.385  1.00  0.00     0.025 C 
HETATM   31  C   UNL     1       7.901  32.769  61.261  1.00  0.00     0.002 C 
HETATM   32  C   UNL     1       8.032  32.293  62.705  1.00  0.00     0.000 C 
HETATM   33  C   UNL     1       8.206  30.779  62.795  1.00  0.00     0.002 C 
HETATM   34  C   UNL     1       9.354  30.296  61.911  1.00  0.00     0.025 C 
ENDBRANCH  25  29
ENDBRANCH   5  23
TORSDOF 5
ENDMDL
MODEL 9
REMARK VINA RESULT:      -8.7      5.418     13.618
REMARK  5 active torsions:
REMARK  status: ('A' for Active; 'I' for Inactive)
REMARK    1  A    between atoms: C_2  and  C_3 
REMARK       I    between atoms: C_3  and  N_4 
REMARK    2  A    between atoms: N_4  and  N_5 
REMARK       I    between atoms: N_5  and  C_6 
REMARK       I    between atoms: C_6  and  N_7 
REMARK    3  A    between atoms: N_7  and  C_8 
REMARK    4  A    between atoms: C_18  and  N_19 
REMARK       I    between atoms: N_19  and  C_20 
REMARK       I    between atoms: C_20  and  N_21 
REMARK    5  A    between atoms: N_21  and  C_22 
ROOT
HETATM    1  C   UNL     1       3.382  29.974  56.213  1.00  0.00     0.019 A 
HETATM    2  C   UNL     1       4.563  29.525  55.613  1.00  0.00     0.033 A 
HETATM    3  C   UNL     1       5.789  29.802  56.227  1.00  0.00     0.019 A 
HETATM    4  C   UNL     1       5.826  30.508  57.439  1.00  0.00     0.030 A 
HETATM    5  C   UNL     1       4.644  30.930  58.053  1.00  0.00     0.036 A 
HETATM    6  C   UNL     1       3.423  30.671  57.422  1.00  0.00     0.030 A 
ENDROOT
BRANCH   2   7
HETATM    7  C   UNL     1       4.444  28.706  54.376  1.00  0.00     0.270 C 
HETATM    8  N   UNL     1       4.277  27.339  54.530  1.00  0.00    -0.262 N 
HETATM    9  H   UNL     1       4.625  26.887  55.371  1.00  0.00     0.190 HD
HETATM   10  O   UNL     1       4.525  29.242  53.273  1.00  0.00    -0.266 OA
BRANCH   8  11
HETATM   11  N   UNL     1       4.381  26.588  53.346  1.00  0.00    -0.249 N 
HETATM   12  C   UNL     1       5.493  25.868  52.993  1.00  0.00     0.335 C 
HETATM   13  N   UNL     1       6.396  25.722  54.009  1.00  0.00    -0.337 N 
HETATM   14  O   UNL     1       5.616  25.433  51.858  1.00  0.00    -0.246 OA
HETATM   15  H   UNL     1       5.940  25.746  54.910  1.00  0.00     0.164 HD
HETATM   16  H   UNL     1       3.655  26.729  52.645  1.00  0.00     0.192 HD
BRANCH  13  17
HETATM   17  C   UNL     1       7.652  24.974  53.952  1.00  0.00     0.086 C 
HETATM   18  C   UNL     1       8.053  24.345  55.294  1.00  0.00     0.025 C 
HETATM   19  C   UNL     1       7.561  22.919  55.505  1.00  0.00     0.002 C 
HETATM   20  C   UNL     1       7.895  22.024  54.319  1.00  0.00     0.000 C 
HETATM   21  C   UNL     1       7.338  22.576  53.014  1.00  0.00     0.002 C 
HETATM   22  C   UNL     1       7.770  24.017  52.756  1.00  0.00     0.025 C 
ENDBRANCH  13  17
ENDBRANCH   8  11
ENDBRANCH   2   7
BRANCH   5  23
HETATM   23  N   UNL     1       4.587  31.536  59.323  1.00  0.00    -0.309 N 
HETATM   24  C   UNL     1       4.833  32.856  59.642  1.00  0.00     0.321 C 
HETATM   25  N   UNL     1       5.020  32.988  61.005  1.00  0.00    -0.338 N 
HETATM   26  O   UNL     1       4.928  33.783  58.852  1.00  0.00    -0.247 OA
HETATM   27  H   UNL     1       4.545  32.302  61.568  1.00  0.00     0.164 HD
HETATM   28  H   UNL     1       4.369  30.928  60.094  1.00  0.00     0.170 HD
BRANCH  25  29
HETATM   29  C   UNL     1       5.303  34.260  61.675  1.00  0.00     0.086 C 
HETATM   30  C   UNL     1       3.984  34.848  62.209  1.00  0.00     0.025 C 
HETATM   31  C   UNL     1       3.422  34.034  63.379  1.00  0.00     0.002 C 
HETATM   32  C   UNL     1       4.440  33.879  64.505  1.00  0.00     0.000 C 
HETATM   33  C   UNL     1       5.772  33.330  64.000  1.00  0.00     0.002 C 
HETATM   34  C   UNL     1       6.310  34.155  62.833  1.00  0.00     0.025 C 
ENDBRANCH  25  29
ENDBRANCH   5  23
TORSDOF 5
ENDMDL
MODEL 10
REMARK VINA RESULT:      -8.6      5.587     13.779
REMARK  5 active torsions:
REMARK  status: ('A' for Active; 'I' for Inactive)
REMARK    1  A    between atoms: C_2  and  C_3 
REMARK       I    between atoms: C_3  and  N_4 
REMARK    2  A    between atoms: N_4  and  N_5 
REMARK       I    between atoms: N_5  and  C_6 
REMARK       I    between atoms: C_6  and  N_7 
REMARK    3  A    between atoms: N_7  and  C_8 
REMARK    4  A    between atoms: C_18  and  N_19 
REMARK       I    between atoms: N_19  and  C_20 
REMARK       I    between atoms: C_20  and  N_21 
REMARK    5  A    between atoms: N_21  and  C_22 
ROOT
HETATM    1  C   UNL     1       5.669  28.653  56.364  1.00  0.00     0.019 A 
HETATM    2  C   UNL     1       4.719  28.942  55.379  1.00  0.00     0.033 A 
HETATM    3  C   UNL     1       3.827  30.000  55.581  1.00  0.00     0.019 A 
HETATM    4  C   UNL     1       3.901  30.771  56.752  1.00  0.00     0.030 A 
HETATM    5  C   UNL     1       4.871  30.501  57.721  1.00  0.00     0.036 A 
HETATM    6  C   UNL     1       5.744  29.426  57.524  1.00  0.00     0.030 A 
ENDROOT
BRANCH   2   7
HETATM    7  C   UNL     1       4.755  28.142  54.125  1.00  0.00     0.270 C 
HETATM    8  N   UNL     1       4.630  26.766  54.242  1.00  0.00    -0.262 N 
HETATM    9  H   UNL     1       4.913  26.313  55.106  1.00  0.00     0.190 HD
HETATM   10  O   UNL     1       4.921  28.701  53.043  1.00  0.00    -0.266 OA
BRANCH   8  11
HETATM   11  N   UNL     1       4.880  26.043  53.063  1.00  0.00    -0.249 N 
HETATM   12  C   UNL     1       6.008  25.291  52.852  1.00  0.00     0.335 C 
HETATM   13  N   UNL     1       6.749  25.087  53.983  1.00  0.00    -0.337 N 
HETATM   14  O   UNL     1       6.280  24.880  51.734  1.00  0.00    -0.246 OA
HETATM   15  H   UNL     1       6.169  25.105  54.810  1.00  0.00     0.164 HD
HETATM   16  H   UNL     1       4.268  26.227  52.269  1.00  0.00     0.192 HD
BRANCH  13  17
HETATM   17  C   UNL     1       7.975  24.295  54.085  1.00  0.00     0.086 C 
HETATM   18  C   UNL     1       8.212  23.707  55.482  1.00  0.00     0.025 C 
HETATM   19  C   UNL     1       7.646  22.308  55.691  1.00  0.00     0.002 C 
HETATM   20  C   UNL     1       8.068  21.356  54.580  1.00  0.00     0.000 C 
HETATM   21  C   UNL     1       7.670  21.875  53.205  1.00  0.00     0.002 C 
HETATM   22  C   UNL     1       8.181  23.289  52.942  1.00  0.00     0.025 C 
ENDBRANCH  13  17
ENDBRANCH   8  11
ENDBRANCH   2   7
BRANCH   5  23
HETATM   23  N   UNL     1       5.088  31.296  58.862  1.00  0.00    -0.309 N 
HETATM   24  C   UNL     1       4.145  31.927  59.646  1.00  0.00     0.321 C 
HETATM   25  N   UNL     1       4.750  32.879  60.444  1.00  0.00    -0.338 N 
HETATM   26  O   UNL     1       2.939  31.730  59.621  1.00  0.00    -0.247 OA
HETATM   27  H   UNL     1       5.711  32.690  60.678  1.00  0.00     0.164 HD
HETATM   28  H   UNL     1       6.050  31.445  59.120  1.00  0.00     0.170 HD
BRANCH  25  29
HETATM   29  C   UNL     1       4.031  33.731  61.395  1.00  0.00     0.086 C 
HETATM   30  C   UNL     1       3.886  32.979  62.730  1.00  0.00     0.025 C 
HETATM   31  C   UNL     1       5.228  32.824  63.453  1.00  0.00     0.002 C 
HETATM   32  C   UNL     1       5.920  34.169  63.661  1.00  0.00     0.000 C 
HETATM   33  C   UNL     1       6.047  34.954  62.359  1.00  0.00     0.002 C 
HETATM   34  C   UNL     1       4.698  35.092  61.656  1.00  0.00     0.025 C 
ENDBRANCH  25  29
ENDBRANCH   5  23
TORSDOF 5
ENDMDL
