MODEL 1
REMARK VINA RESULT:     -10.8      0.000      0.000
REMARK  5 active torsions:
REMARK  status: ('A' for Active; 'I' for Inactive)
REMARK    1  A    between atoms: O_2  and  C_3 
REMARK    2  A    between atoms: C_5  and  C_6 
REMARK    3  A    between atoms: C_6  and  N_7 
REMARK       I    between atoms: N_7  and  C_8 
REMARK    4  A    between atoms: C_8  and  C_9 
REMARK    5  A    between atoms: C_19  and  C_20 
ROOT
HETATM    1  C   UNL     1       7.191  24.312  56.299  1.00  0.00     0.159 A 
HETATM    2  O   UNL     1       7.742  23.360  57.201  1.00  0.00    -0.268 OA
HETATM    3  C   UNL     1       8.231  22.151  56.827  1.00  0.00     0.299 A 
HETATM    4  O   UNL     1       8.711  21.367  57.634  1.00  0.00    -0.259 OA
HETATM    5  C   UNL     1       8.158  21.841  55.388  1.00  0.00     0.051 A 
HETATM    6  C   UNL     1       7.641  22.776  54.489  1.00  0.00    -0.006 A 
HETATM    7  C   UNL     1       8.622  20.591  54.946  1.00  0.00     0.018 A 
HETATM    8  C   UNL     1       8.573  20.263  53.595  1.00  0.00     0.001 A 
HETATM    9  C   UNL     1       8.064  21.183  52.685  1.00  0.00     0.001 A 
HETATM   10  C   UNL     1       7.603  22.428  53.127  1.00  0.00     0.013 A 
HETATM   11  C   UNL     1       7.139  24.091  54.966  1.00  0.00     0.025 A 
ENDROOT
BRANCH   1  12
HETATM   12  C   UNL     1       6.681  25.563  56.983  1.00  0.00     0.276 C 
HETATM   13  N   UNL     1       7.672  26.504  57.165  1.00  0.00    -0.351 N 
HETATM   14  H   UNL     1       8.552  26.355  56.690  1.00  0.00     0.163 HD
HETATM   15  O   UNL     1       5.531  25.734  57.359  1.00  0.00    -0.265 OA
BRANCH  13  16
HETATM   16  C   UNL     1       7.378  27.791  57.746  1.00  0.00     0.161 C 
BRANCH  16  17
HETATM   17  C   UNL     1       8.485  28.817  57.660  1.00  0.00    -0.038 A 
HETATM   18  C   UNL     1       8.464  30.059  58.313  1.00  0.00     0.045 A 
HETATM   19  C   UNL     1       9.538  30.954  58.213  1.00  0.00     0.068 A 
HETATM   20  C   UNL     1      10.639  30.622  57.427  1.00  0.00     0.037 A 
HETATM   21  C   UNL     1      10.673  29.398  56.758  1.00  0.00     0.003 A 
HETATM   22  C   UNL     1       9.609  28.503  56.879  1.00  0.00     0.009 A 
BRANCH  19  23
HETATM   23  O   UNL     1       9.379  32.113  58.924  1.00  0.00    -0.356 OA
HETATM   24  C   UNL     1       9.339  31.996  60.341  1.00  0.00     0.210 C 
ENDBRANCH  19  23
ENDBRANCH  16  17
ENDBRANCH  13  16
ENDBRANCH   1  12
BRANCH  11  25
HETATM   25  C   UNL     1       6.627  25.127  54.038  1.00  0.00    -0.022 A 
HETATM   26  C   UNL     1       5.283  25.104  53.637  1.00  0.00     0.012 A 
HETATM   27  C   UNL     1       4.784  26.103  52.798  1.00  0.00     0.001 A 
HETATM   28  C   UNL     1       5.621  27.130  52.361  1.00  0.00     0.000 A 
HETATM   29  C   UNL     1       6.956  27.160  52.758  1.00  0.00     0.001 A 
HETATM   30  C   UNL     1       7.460  26.163  53.597  1.00  0.00     0.012 A 
ENDBRANCH  11  25
TORSDOF 5
ENDMDL
MODEL 2
REMARK VINA RESULT:     -10.1      2.347      3.015
REMARK  5 active torsions:
REMARK  status: ('A' for Active; 'I' for Inactive)
REMARK    1  A    between atoms: O_2  and  C_3 
REMARK    2  A    between atoms: C_5  and  C_6 
REMARK    3  A    between atoms: C_6  and  N_7 
REMARK       I    between atoms: N_7  and  C_8 
REMARK    4  A    between atoms: C_8  and  C_9 
REMARK    5  A    between atoms: C_19  and  C_20 
ROOT
HETATM    1  C   UNL     1       7.201  23.928  56.158  1.00  0.00     0.159 A 
HETATM    2  O   UNL     1       7.749  23.027  57.113  1.00  0.00    -0.268 OA
HETATM    3  C   UNL     1       8.283  21.819  56.801  1.00  0.00     0.299 A 
HETATM    4  O   UNL     1       8.758  21.081  57.653  1.00  0.00    -0.259 OA
HETATM    5  C   UNL     1       8.264  21.452  55.374  1.00  0.00     0.051 A 
HETATM    6  C   UNL     1       7.751  22.337  54.424  1.00  0.00    -0.006 A 
HETATM    7  C   UNL     1       8.776  20.200  54.997  1.00  0.00     0.018 A 
HETATM    8  C   UNL     1       8.779  19.819  53.658  1.00  0.00     0.001 A 
HETATM    9  C   UNL     1       8.275  20.689  52.697  1.00  0.00     0.001 A 
HETATM   10  C   UNL     1       7.767  21.936  53.076  1.00  0.00     0.013 A 
HETATM   11  C   UNL     1       7.198  23.655  54.833  1.00  0.00     0.025 A 
ENDROOT
BRANCH   1  12
HETATM   12  C   UNL     1       6.637  25.189  56.776  1.00  0.00     0.276 C 
HETATM   13  N   UNL     1       7.574  26.195  56.869  1.00  0.00    -0.351 N 
HETATM   14  H   UNL     1       8.449  26.067  56.378  1.00  0.00     0.163 HD
HETATM   15  O   UNL     1       5.488  25.317  57.175  1.00  0.00    -0.265 OA
BRANCH  13  16
HETATM   16  C   UNL     1       7.219  27.498  57.375  1.00  0.00     0.161 C 
BRANCH  16  17
HETATM   17  C   UNL     1       6.162  28.241  56.590  1.00  0.00    -0.038 A 
HETATM   18  C   UNL     1       5.081  28.923  57.168  1.00  0.00     0.045 A 
HETATM   19  C   UNL     1       4.150  29.615  56.382  1.00  0.00     0.068 A 
HETATM   20  C   UNL     1       4.279  29.606  54.995  1.00  0.00     0.037 A 
HETATM   21  C   UNL     1       5.339  28.922  54.400  1.00  0.00     0.003 A 
HETATM   22  C   UNL     1       6.273  28.251  55.190  1.00  0.00     0.009 A 
BRANCH  19  23
HETATM   23  O   UNL     1       3.167  30.250  57.092  1.00  0.00    -0.356 OA
HETATM   24  C   UNL     1       3.583  31.053  58.189  1.00  0.00     0.210 C 
ENDBRANCH  19  23
ENDBRANCH  16  17
ENDBRANCH  13  16
ENDBRANCH   1  12
BRANCH  11  25
HETATM   25  C   UNL     1       6.688  24.639  53.850  1.00  0.00    -0.022 A 
HETATM   26  C   UNL     1       7.587  25.437  53.128  1.00  0.00     0.012 A 
HETATM   27  C   UNL     1       7.115  26.335  52.169  1.00  0.00     0.001 A 
HETATM   28  C   UNL     1       5.746  26.438  51.924  1.00  0.00     0.000 A 
HETATM   29  C   UNL     1       4.847  25.646  52.636  1.00  0.00     0.001 A 
HETATM   30  C   UNL     1       5.314  24.747  53.596  1.00  0.00     0.012 A 
ENDBRANCH  11  25
TORSDOF 5
ENDMDL
MODEL 3
REMARK VINA RESULT:      -9.7      3.484      5.397
REMARK  5 active torsions:
REMARK  status: ('A' for Active; 'I' for Inactive)
REMARK    1  A    between atoms: O_2  and  C_3 
REMARK    2  A    between atoms: C_5  and  C_6 
REMARK    3  A    between atoms: C_6  and  N_7 
REMARK       I    between atoms: N_7  and  C_8 
REMARK    4  A    between atoms: C_8  and  C_9 
REMARK    5  A    between atoms: C_19  and  C_20 
ROOT
HETATM    1  C   UNL     1       7.411  23.758  53.280  1.00  0.00     0.159 A 
HETATM    2  O   UNL     1       7.755  22.572  52.573  1.00  0.00    -0.268 OA
HETATM    3  C   UNL     1       8.148  21.418  53.169  1.00  0.00     0.299 A 
HETATM    4  O   UNL     1       8.421  20.415  52.524  1.00  0.00    -0.259 OA
HETATM    5  C   UNL     1       8.218  21.441  54.641  1.00  0.00     0.051 A 
HETATM    6  C   UNL     1       7.860  22.591  55.347  1.00  0.00    -0.006 A 
HETATM    7  C   UNL     1       8.648  20.284  55.311  1.00  0.00     0.018 A 
HETATM    8  C   UNL     1       8.724  20.266  56.700  1.00  0.00     0.001 A 
HETATM    9  C   UNL     1       8.368  21.401  57.420  1.00  0.00     0.001 A 
HETATM   10  C   UNL     1       7.939  22.552  56.751  1.00  0.00     0.013 A 
HETATM   11  C   UNL     1       7.420  23.817  54.631  1.00  0.00     0.025 A 
ENDROOT
BRANCH   1  12
HETATM   12  C   UNL     1       7.046  24.913  52.372  1.00  0.00     0.276 C 
HETATM   13  N   UNL     1       5.717  24.896  52.006  1.00  0.00    -0.351 N 
HETATM   14  H   UNL     1       5.105  24.256  52.494  1.00  0.00     0.163 HD
HETATM   15  O   UNL     1       7.829  25.766  51.978  1.00  0.00    -0.265 OA
BRANCH  13  16
HETATM   16  C   UNL     1       5.156  25.945  51.191  1.00  0.00     0.161 C 
BRANCH  16  17
HETATM   17  C   UNL     1       4.870  27.247  51.905  1.00  0.00    -0.038 A 
HETATM   18  C   UNL     1       5.087  28.517  51.350  1.00  0.00     0.045 A 
HETATM   19  C   UNL     1       4.775  29.686  52.057  1.00  0.00     0.068 A 
HETATM   20  C   UNL     1       4.266  29.592  53.350  1.00  0.00     0.037 A 
HETATM   21  C   UNL     1       4.057  28.339  53.926  1.00  0.00     0.003 A 
HETATM   22  C   UNL     1       4.352  27.179  53.208  1.00  0.00     0.009 A 
BRANCH  19  23
HETATM   23  O   UNL     1       5.021  30.847  51.374  1.00  0.00    -0.356 OA
HETATM   24  C   UNL     1       5.566  30.719  50.067  1.00  0.00     0.210 C 
ENDBRANCH  19  23
ENDBRANCH  16  17
ENDBRANCH  13  16
ENDBRANCH   1  12
BRANCH  11  25
HETATM   25  C   UNL     1       6.987  25.040  55.346  1.00  0.00    -0.022 A 
HETATM   26  C   UNL     1       5.719  25.091  55.942  1.00  0.00     0.012 A 
HETATM   27  C   UNL     1       5.324  26.224  56.656  1.00  0.00     0.001 A 
HETATM   28  C   UNL     1       6.192  27.308  56.780  1.00  0.00     0.000 A 
HETATM   29  C   UNL     1       7.454  27.264  56.192  1.00  0.00     0.001 A 
HETATM   30  C   UNL     1       7.855  26.133  55.478  1.00  0.00     0.012 A 
ENDBRANCH  11  25
TORSDOF 5
ENDMDL
MODEL 4
REMARK VINA RESULT:      -9.6      1.956      2.573
REMARK  5 active torsions:
REMARK  status: ('A' for Active; 'I' for Inactive)
REMARK    1  A    between atoms: O_2  and  C_3 
REMARK    2  A    between atoms: C_5  and  C_6 
REMARK    3  A    between atoms: C_6  and  N_7 
REMARK       I    between atoms: N_7  and  C_8 
REMARK    4  A    between atoms: C_8  and  C_9 
REMARK    5  A    between atoms: C_19  and  C_20 
ROOT
HETATM    1  C   UNL     1       7.682  25.816  55.988  1.00  0.00     0.159 A 
HETATM    2  O   UNL     1       8.359  25.625  57.225  1.00  0.00    -0.268 OA
HETATM    3  C   UNL     1       8.701  24.411  57.726  1.00  0.00     0.299 A 
HETATM    4  O   UNL     1       9.296  24.292  58.788  1.00  0.00    -0.259 OA
HETATM    5  C   UNL     1       8.319  23.244  56.912  1.00  0.00     0.051 A 
HETATM    6  C   UNL     1       7.675  23.419  55.684  1.00  0.00    -0.006 A 
HETATM    7  C   UNL     1       8.619  21.960  57.396  1.00  0.00     0.018 A 
HETATM    8  C   UNL     1       8.278  20.834  56.653  1.00  0.00     0.001 A 
HETATM    9  C   UNL     1       7.640  20.989  55.427  1.00  0.00     0.001 A 
HETATM   10  C   UNL     1       7.342  22.268  54.947  1.00  0.00     0.013 A 
HETATM   11  C   UNL     1       7.347  24.780  55.185  1.00  0.00     0.025 A 
ENDROOT
BRANCH   1  12
HETATM   12  C   UNL     1       7.387  27.269  55.684  1.00  0.00     0.276 C 
HETATM   13  N   UNL     1       6.552  27.844  56.618  1.00  0.00    -0.351 N 
HETATM   14  H   UNL     1       6.372  27.325  57.467  1.00  0.00     0.163 HD
HETATM   15  O   UNL     1       7.813  27.880  54.714  1.00  0.00    -0.265 OA
BRANCH  13  16
HETATM   16  C   UNL     1       6.198  29.239  56.542  1.00  0.00     0.161 C 
BRANCH  16  17
HETATM   17  C   UNL     1       6.636  30.092  57.711  1.00  0.00    -0.038 A 
HETATM   18  C   UNL     1       7.714  29.784  58.554  1.00  0.00     0.045 A 
HETATM   19  C   UNL     1       8.084  30.633  59.606  1.00  0.00     0.068 A 
HETATM   20  C   UNL     1       7.353  31.794  59.842  1.00  0.00     0.037 A 
HETATM   21  C   UNL     1       6.268  32.112  59.023  1.00  0.00     0.003 A 
HETATM   22  C   UNL     1       5.918  31.271  57.966  1.00  0.00     0.009 A 
BRANCH  19  23
HETATM   23  O   UNL     1       9.169  30.208  60.324  1.00  0.00    -0.356 OA
HETATM   24  C   UNL     1       9.287  30.693  61.655  1.00  0.00     0.210 C 
ENDBRANCH  19  23
ENDBRANCH  16  17
ENDBRANCH  13  16
ENDBRANCH   1  12
BRANCH  11  25
HETATM   25  C   UNL     1       6.708  25.008  53.869  1.00  0.00    -0.022 A 
HETATM   26  C   UNL     1       5.313  25.113  53.777  1.00  0.00     0.012 A 
HETATM   27  C   UNL     1       4.708  25.373  52.545  1.00  0.00     0.001 A 
HETATM   28  C   UNL     1       5.492  25.533  51.403  1.00  0.00     0.000 A 
HETATM   29  C   UNL     1       6.879  25.432  51.487  1.00  0.00     0.001 A 
HETATM   30  C   UNL     1       7.489  25.173  52.717  1.00  0.00     0.012 A 
ENDBRANCH  11  25
TORSDOF 5
ENDMDL
MODEL 5
REMARK VINA RESULT:      -9.5      4.267      7.807
REMARK  5 active torsions:
REMARK  status: ('A' for Active; 'I' for Inactive)
REMARK    1  A    between atoms: O_2  and  C_3 
REMARK    2  A    between atoms: C_5  and  C_6 
REMARK    3  A    between atoms: C_6  and  N_7 
REMARK       I    between atoms: N_7  and  C_8 
REMARK    4  A    between atoms: C_8  and  C_9 
REMARK    5  A    between atoms: C_19  and  C_20 
ROOT
HETATM    1  C   UNL     1       7.421  30.464  58.765  1.00  0.00     0.159 A 
HETATM    2  O   UNL     1       8.255  29.344  58.490  1.00  0.00    -0.268 OA
HETATM    3  C   UNL     1       7.919  28.332  57.653  1.00  0.00     0.299 A 
HETATM    4  O   UNL     1       8.673  27.394  57.433  1.00  0.00    -0.259 OA
HETATM    5  C   UNL     1       6.593  28.431  57.017  1.00  0.00     0.051 A 
HETATM    6  C   UNL     1       5.774  29.537  57.260  1.00  0.00    -0.006 A 
HETATM    7  C   UNL     1       6.178  27.396  56.163  1.00  0.00     0.018 A 
HETATM    8  C   UNL     1       4.935  27.457  55.541  1.00  0.00     0.001 A 
HETATM    9  C   UNL     1       4.107  28.551  55.769  1.00  0.00     0.001 A 
HETATM   10  C   UNL     1       4.523  29.582  56.618  1.00  0.00     0.013 A 
HETATM   11  C   UNL     1       6.214  30.622  58.175  1.00  0.00     0.025 A 
ENDROOT
BRANCH   1  12
HETATM   12  C   UNL     1       8.020  31.428  59.766  1.00  0.00     0.276 C 
HETATM   13  N   UNL     1       7.823  31.025  61.069  1.00  0.00    -0.351 N 
HETATM   14  H   UNL     1       7.477  30.087  61.222  1.00  0.00     0.163 HD
HETATM   15  O   UNL     1       8.602  32.464  59.476  1.00  0.00    -0.265 OA
BRANCH  13  16
HETATM   16  C   UNL     1       8.371  31.776  62.172  1.00  0.00     0.161 C 
BRANCH  16  17
HETATM   17  C   UNL     1       7.360  32.445  63.076  1.00  0.00    -0.038 A 
HETATM   18  C   UNL     1       5.980  32.482  62.827  1.00  0.00     0.045 A 
HETATM   19  C   UNL     1       5.094  33.098  63.721  1.00  0.00     0.068 A 
HETATM   20  C   UNL     1       5.591  33.713  64.868  1.00  0.00     0.037 A 
HETATM   21  C   UNL     1       6.961  33.699  65.126  1.00  0.00     0.003 A 
HETATM   22  C   UNL     1       7.836  33.067  64.241  1.00  0.00     0.009 A 
BRANCH  19  23
HETATM   23  O   UNL     1       3.777  33.031  63.352  1.00  0.00    -0.356 OA
HETATM   24  C   UNL     1       2.998  34.206  63.541  1.00  0.00     0.210 C 
ENDBRANCH  19  23
ENDBRANCH  16  17
ENDBRANCH  13  16
ENDBRANCH   1  12
BRANCH  11  25
HETATM   25  C   UNL     1       5.395  31.831  58.421  1.00  0.00    -0.022 A 
HETATM   26  C   UNL     1       5.444  32.905  57.520  1.00  0.00     0.012 A 
HETATM   27  C   UNL     1       4.640  34.029  57.723  1.00  0.00     0.001 A 
HETATM   28  C   UNL     1       3.783  34.084  58.822  1.00  0.00     0.000 A 
HETATM   29  C   UNL     1       3.728  33.020  59.720  1.00  0.00     0.001 A 
HETATM   30  C   UNL     1       4.529  31.894  59.521  1.00  0.00     0.012 A 
ENDBRANCH  11  25
TORSDOF 5
ENDMDL
MODEL 6
REMARK VINA RESULT:      -9.1      3.152      6.915
REMARK  5 active torsions:
REMARK  status: ('A' for Active; 'I' for Inactive)
REMARK    1  A    between atoms: O_2  and  C_3 
REMARK    2  A    between atoms: C_5  and  C_6 
REMARK    3  A    between atoms: C_6  and  N_7 
REMARK       I    between atoms: N_7  and  C_8 
REMARK    4  A    between atoms: C_8  and  C_9 
REMARK    5  A    between atoms: C_19  and  C_20 
ROOT
HETATM    1  C   UNL     1       4.640  28.058  52.673  1.00  0.00     0.159 A 
HETATM    2  O   UNL     1       3.723  29.105  52.373  1.00  0.00    -0.268 OA
HETATM    3  C   UNL     1       3.145  29.284  51.159  1.00  0.00     0.299 A 
HETATM    4  O   UNL     1       2.349  30.190  50.947  1.00  0.00    -0.259 OA
HETATM    5  C   UNL     1       3.524  28.320  50.112  1.00  0.00     0.051 A 
HETATM    6  C   UNL     1       4.405  27.274  50.400  1.00  0.00    -0.006 A 
HETATM    7  C   UNL     1       2.980  28.475  48.826  1.00  0.00     0.018 A 
HETATM    8  C   UNL     1       3.311  27.582  47.813  1.00  0.00     0.001 A 
HETATM    9  C   UNL     1       4.184  26.533  48.082  1.00  0.00     0.001 A 
HETATM   10  C   UNL     1       4.724  26.379  49.363  1.00  0.00     0.013 A 
HETATM   11  C   UNL     1       4.988  27.125  51.759  1.00  0.00     0.025 A 
ENDROOT
BRANCH   1  12
HETATM   12  C   UNL     1       5.166  28.110  54.091  1.00  0.00     0.276 C 
HETATM   13  N   UNL     1       4.508  27.236  54.930  1.00  0.00    -0.351 N 
HETATM   14  H   UNL     1       3.896  26.552  54.506  1.00  0.00     0.163 HD
HETATM   15  O   UNL     1       6.060  28.850  54.478  1.00  0.00    -0.265 OA
BRANCH  13  16
HETATM   16  C   UNL     1       4.902  27.090  56.310  1.00  0.00     0.161 C 
BRANCH  16  17
HETATM   17  C   UNL     1       6.133  26.247  56.555  1.00  0.00    -0.038 A 
HETATM   18  C   UNL     1       6.218  24.874  56.282  1.00  0.00     0.045 A 
HETATM   19  C   UNL     1       7.400  24.157  56.509  1.00  0.00     0.068 A 
HETATM   20  C   UNL     1       8.509  24.810  57.043  1.00  0.00     0.037 A 
HETATM   21  C   UNL     1       8.440  26.172  57.335  1.00  0.00     0.003 A 
HETATM   22  C   UNL     1       7.265  26.884  57.088  1.00  0.00     0.009 A 
BRANCH  19  23
HETATM   23  O   UNL     1       7.334  22.831  56.172  1.00  0.00    -0.356 OA
HETATM   24  C   UNL     1       8.441  22.020  56.542  1.00  0.00     0.210 C 
ENDBRANCH  19  23
ENDBRANCH  16  17
ENDBRANCH  13  16
ENDBRANCH   1  12
BRANCH  11  25
HETATM   25  C   UNL     1       5.887  26.003  52.115  1.00  0.00    -0.022 A 
HETATM   26  C   UNL     1       7.278  26.180  52.073  1.00  0.00     0.012 A 
HETATM   27  C   UNL     1       8.130  25.141  52.452  1.00  0.00     0.001 A 
HETATM   28  C   UNL     1       7.599  23.923  52.876  1.00  0.00     0.000 A 
HETATM   29  C   UNL     1       6.218  23.741  52.922  1.00  0.00     0.001 A 
HETATM   30  C   UNL     1       5.362  24.777  52.546  1.00  0.00     0.012 A 
ENDBRANCH  11  25
TORSDOF 5
ENDMDL
MODEL 7
REMARK VINA RESULT:      -9.0      4.882     10.713
REMARK  5 active torsions:
REMARK  status: ('A' for Active; 'I' for Inactive)
REMARK    1  A    between atoms: O_2  and  C_3 
REMARK    2  A    between atoms: C_5  and  C_6 
REMARK    3  A    between atoms: C_6  and  N_7 
REMARK       I    between atoms: N_7  and  C_8 
REMARK    4  A    between atoms: C_8  and  C_9 
REMARK    5  A    between atoms: C_19  and  C_20 
ROOT
HETATM    1  C   UNL     1       5.004  33.023  60.755  1.00  0.00     0.159 A 
HETATM    2  O   UNL     1       3.737  33.655  60.900  1.00  0.00    -0.268 OA
HETATM    3  C   UNL     1       3.256  34.136  62.073  1.00  0.00     0.299 A 
HETATM    4  O   UNL     1       2.166  34.687  62.150  1.00  0.00    -0.259 OA
HETATM    5  C   UNL     1       4.127  33.964  63.249  1.00  0.00     0.051 A 
HETATM    6  C   UNL     1       5.383  33.367  63.117  1.00  0.00    -0.006 A 
HETATM    7  C   UNL     1       3.667  34.416  64.497  1.00  0.00     0.018 A 
HETATM    8  C   UNL     1       4.463  34.275  65.629  1.00  0.00     0.001 A 
HETATM    9  C   UNL     1       5.718  33.686  65.517  1.00  0.00     0.001 A 
HETATM   10  C   UNL     1       6.174  33.237  64.273  1.00  0.00     0.013 A 
HETATM   11  C   UNL     1       5.856  32.878  61.796  1.00  0.00     0.025 A 
ENDROOT
BRANCH   1  12
HETATM   12  C   UNL     1       5.279  32.543  59.346  1.00  0.00     0.276 C 
HETATM   13  N   UNL     1       4.970  31.210  59.174  1.00  0.00    -0.351 N 
HETATM   14  H   UNL     1       4.450  30.751  59.910  1.00  0.00     0.163 HD
HETATM   15  O   UNL     1       5.740  33.235  58.450  1.00  0.00    -0.265 OA
BRANCH  13  16
HETATM   16  C   UNL     1       5.103  30.576  57.886  1.00  0.00     0.161 C 
BRANCH  16  17
HETATM   17  C   UNL     1       6.341  29.728  57.698  1.00  0.00    -0.038 A 
HETATM   18  C   UNL     1       7.653  30.202  57.839  1.00  0.00     0.045 A 
HETATM   19  C   UNL     1       8.757  29.354  57.676  1.00  0.00     0.068 A 
HETATM   20  C   UNL     1       8.554  28.018  57.340  1.00  0.00     0.037 A 
HETATM   21  C   UNL     1       7.257  27.530  57.181  1.00  0.00     0.003 A 
HETATM   22  C   UNL     1       6.162  28.376  57.364  1.00  0.00     0.009 A 
BRANCH  19  23
HETATM   23  O   UNL     1       9.971  29.958  57.868  1.00  0.00    -0.356 OA
HETATM   24  C   UNL     1      10.986  29.676  56.913  1.00  0.00     0.210 C 
ENDBRANCH  19  23
ENDBRANCH  16  17
ENDBRANCH  13  16
ENDBRANCH   1  12
BRANCH  11  25
HETATM   25  C   UNL     1       7.199  32.282  61.606  1.00  0.00    -0.022 A 
HETATM   26  C   UNL     1       7.542  31.101  62.280  1.00  0.00     0.012 A 
HETATM   27  C   UNL     1       8.790  30.511  62.071  1.00  0.00     0.001 A 
HETATM   28  C   UNL     1       9.698  31.093  61.188  1.00  0.00     0.000 A 
HETATM   29  C   UNL     1       9.364  32.266  60.514  1.00  0.00     0.001 A 
HETATM   30  C   UNL     1       8.117  32.860  60.719  1.00  0.00     0.012 A 
ENDBRANCH  11  25
TORSDOF 5
ENDMDL
MODEL 8
REMARK VINA RESULT:      -8.8      4.115     10.917
REMARK  5 active torsions:
REMARK  status: ('A' for Active; 'I' for Inactive)
REMARK    1  A    between atoms: O_2  and  C_3 
REMARK    2  A    between atoms: C_5  and  C_6 
REMARK    3  A    between atoms: C_6  and  N_7 
REMARK       I    between atoms: N_7  and  C_8 
REMARK    4  A    between atoms: C_8  and  C_9 
REMARK    5  A    between atoms: C_19  and  C_20 
ROOT
HETATM    1  C   UNL     1       5.383  33.194  60.899  1.00  0.00     0.159 A 
HETATM    2  O   UNL     1       4.227  33.953  61.232  1.00  0.00    -0.268 OA
HETATM    3  C   UNL     1       3.983  34.468  62.463  1.00  0.00     0.299 A 
HETATM    4  O   UNL     1       2.982  35.129  62.703  1.00  0.00    -0.259 OA
HETATM    5  C   UNL     1       5.000  34.191  63.493  1.00  0.00     0.051 A 
HETATM    6  C   UNL     1       6.151  33.468  63.173  1.00  0.00    -0.006 A 
HETATM    7  C   UNL     1       4.785  34.674  64.795  1.00  0.00     0.018 A 
HETATM    8  C   UNL     1       5.725  34.437  65.793  1.00  0.00     0.001 A 
HETATM    9  C   UNL     1       6.879  33.720  65.493  1.00  0.00     0.001 A 
HETATM   10  C   UNL     1       7.090  33.242  64.196  1.00  0.00     0.013 A 
HETATM   11  C   UNL     1       6.364  32.948  61.797  1.00  0.00     0.025 A 
ENDROOT
BRANCH   1  12
HETATM   12  C   UNL     1       5.388  32.705  59.466  1.00  0.00     0.276 C 
HETATM   13  N   UNL     1       5.032  31.377  59.362  1.00  0.00    -0.351 N 
HETATM   14  H   UNL     1       4.648  30.929  60.183  1.00  0.00     0.163 HD
HETATM   15  O   UNL     1       5.689  33.386  58.497  1.00  0.00    -0.265 OA
BRANCH  13  16
HETATM   16  C   UNL     1       4.918  30.736  58.075  1.00  0.00     0.161 C 
BRANCH  16  17
HETATM   17  C   UNL     1       5.944  29.665  57.783  1.00  0.00    -0.038 A 
HETATM   18  C   UNL     1       5.653  28.440  57.163  1.00  0.00     0.045 A 
HETATM   19  C   UNL     1       6.657  27.500  56.897  1.00  0.00     0.068 A 
HETATM   20  C   UNL     1       7.970  27.769  57.280  1.00  0.00     0.037 A 
HETATM   21  C   UNL     1       8.277  28.974  57.911  1.00  0.00     0.003 A 
HETATM   22  C   UNL     1       7.275  29.914  58.155  1.00  0.00     0.009 A 
BRANCH  19  23
HETATM   23  O   UNL     1       6.222  26.366  56.266  1.00  0.00    -0.356 OA
HETATM   24  C   UNL     1       5.366  25.507  57.010  1.00  0.00     0.210 C 
ENDBRANCH  19  23
ENDBRANCH  16  17
ENDBRANCH  13  16
ENDBRANCH   1  12
BRANCH  11  25
HETATM   25  C   UNL     1       7.592  32.217  61.408  1.00  0.00    -0.022 A 
HETATM   26  C   UNL     1       8.465  32.771  60.460  1.00  0.00     0.012 A 
HETATM   27  C   UNL     1       9.647  32.108  60.122  1.00  0.00     0.001 A 
HETATM   28  C   UNL     1       9.964  30.894  60.731  1.00  0.00     0.000 A 
HETATM   29  C   UNL     1       9.102  30.340  61.675  1.00  0.00     0.001 A 
HETATM   30  C   UNL     1       7.920  30.999  62.017  1.00  0.00     0.012 A 
ENDBRANCH  11  25
TORSDOF 5
ENDMDL
MODEL 9
REMARK VINA RESULT:      -8.8      2.684      8.988
REMARK  5 active torsions:
REMARK  status: ('A' for Active; 'I' for Inactive)
REMARK    1  A    between atoms: O_2  and  C_3 
REMARK    2  A    between atoms: C_5  and  C_6 
REMARK    3  A    between atoms: C_6  and  N_7 
REMARK       I    between atoms: N_7  and  C_8 
REMARK    4  A    between atoms: C_8  and  C_9 
REMARK    5  A    between atoms: C_19  and  C_20 
ROOT
HETATM    1  C   UNL     1       6.038  31.298  58.736  1.00  0.00     0.159 A 
HETATM    2  O   UNL     1       4.988  31.970  59.422  1.00  0.00    -0.268 OA
HETATM    3  C   UNL     1       5.110  32.506  60.662  1.00  0.00     0.299 A 
HETATM    4  O   UNL     1       4.185  33.089  61.211  1.00  0.00    -0.259 OA
HETATM    5  C   UNL     1       6.426  32.352  61.308  1.00  0.00     0.051 A 
HETATM    6  C   UNL     1       7.472  31.716  60.635  1.00  0.00    -0.006 A 
HETATM    7  C   UNL     1       6.601  32.861  62.605  1.00  0.00     0.018 A 
HETATM    8  C   UNL     1       7.830  32.738  63.245  1.00  0.00     0.001 A 
HETATM    9  C   UNL     1       8.885  32.110  62.590  1.00  0.00     0.001 A 
HETATM   10  C   UNL     1       8.708  31.605  61.298  1.00  0.00     0.013 A 
HETATM   11  C   UNL     1       7.274  31.167  59.268  1.00  0.00     0.025 A 
ENDROOT
BRANCH   1  12
HETATM   12  C   UNL     1       5.624  30.761  57.383  1.00  0.00     0.276 C 
HETATM   13  N   UNL     1       5.126  29.477  57.456  1.00  0.00    -0.351 N 
HETATM   14  H   UNL     1       4.926  29.104  58.374  1.00  0.00     0.163 HD
HETATM   15  O   UNL     1       5.727  31.370  56.328  1.00  0.00    -0.265 OA
BRANCH  13  16
HETATM   16  C   UNL     1       4.620  28.808  56.283  1.00  0.00     0.161 C 
BRANCH  16  17
HETATM   17  C   UNL     1       5.556  27.807  55.645  1.00  0.00    -0.038 A 
HETATM   18  C   UNL     1       5.638  26.455  56.012  1.00  0.00     0.045 A 
HETATM   19  C   UNL     1       6.510  25.574  55.360  1.00  0.00     0.068 A 
HETATM   20  C   UNL     1       7.337  26.049  54.345  1.00  0.00     0.037 A 
HETATM   21  C   UNL     1       7.281  27.393  53.975  1.00  0.00     0.003 A 
HETATM   22  C   UNL     1       6.396  28.261  54.615  1.00  0.00     0.009 A 
BRANCH  19  23
HETATM   23  O   UNL     1       6.459  24.283  55.815  1.00  0.00    -0.356 OA
HETATM   24  C   UNL     1       7.281  23.335  55.148  1.00  0.00     0.210 C 
ENDBRANCH  19  23
ENDBRANCH  16  17
ENDBRANCH  13  16
ENDBRANCH   1  12
BRANCH  11  25
HETATM   25  C   UNL     1       8.372  30.528  58.505  1.00  0.00    -0.022 A 
HETATM   26  C   UNL     1       8.218  29.220  58.022  1.00  0.00     0.012 A 
HETATM   27  C   UNL     1       9.231  28.629  57.264  1.00  0.00     0.001 A 
HETATM   28  C   UNL     1      10.397  29.340  56.982  1.00  0.00     0.000 A 
HETATM   29  C   UNL     1      10.555  30.641  57.458  1.00  0.00     0.001 A 
HETATM   30  C   UNL     1       9.545  31.236  58.215  1.00  0.00     0.012 A 
ENDBRANCH  11  25
TORSDOF 5
ENDMDL
MODEL 10
REMARK VINA RESULT:      -8.7      4.138      8.606
REMARK  5 active torsions:
REMARK  status: ('A' for Active; 'I' for Inactive)
REMARK    1  A    between atoms: O_2  and  C_3 
REMARK    2  A    between atoms: C_5  and  C_6 
REMARK    3  A    between atoms: C_6  and  N_7 
REMARK       I    between atoms: N_7  and  C_8 
REMARK    4  A    between atoms: C_8  and  C_9 
REMARK    5  A    between atoms: C_19  and  C_20 
ROOT
HETATM    1  C   UNL     1       5.554  26.746  53.674  1.00  0.00     0.159 A 
HETATM    2  O   UNL     1       4.996  28.052  53.771  1.00  0.00    -0.268 OA
HETATM    3  C   UNL     1       5.324  28.950  54.732  1.00  0.00     0.299 A 
HETATM    4  O   UNL     1       4.831  30.069  54.770  1.00  0.00    -0.259 OA
HETATM    5  C   UNL     1       6.317  28.502  55.725  1.00  0.00     0.051 A 
HETATM    6  C   UNL     1       6.890  27.232  55.627  1.00  0.00    -0.006 A 
HETATM    7  C   UNL     1       6.673  29.380  56.762  1.00  0.00     0.018 A 
HETATM    8  C   UNL     1       7.610  28.994  57.715  1.00  0.00     0.001 A 
HETATM    9  C   UNL     1       8.193  27.734  57.633  1.00  0.00     0.001 A 
HETATM   10  C   UNL     1       7.838  26.862  56.599  1.00  0.00     0.013 A 
HETATM   11  C   UNL     1       6.497  26.304  54.535  1.00  0.00     0.025 A 
ENDROOT
BRANCH   1  12
HETATM   12  C   UNL     1       4.984  25.933  52.531  1.00  0.00     0.276 C 
HETATM   13  N   UNL     1       5.209  26.521  51.304  1.00  0.00    -0.351 N 
HETATM   14  H   UNL     1       5.852  27.300  51.268  1.00  0.00     0.163 HD
HETATM   15  O   UNL     1       4.373  24.882  52.658  1.00  0.00    -0.265 OA
BRANCH  13  16
HETATM   16  C   UNL     1       4.797  25.873  50.083  1.00  0.00     0.161 C 
BRANCH  16  17
HETATM   17  C   UNL     1       4.114  26.762  49.068  1.00  0.00    -0.038 A 
HETATM   18  C   UNL     1       3.033  26.363  48.268  1.00  0.00     0.045 A 
HETATM   19  C   UNL     1       2.428  27.246  47.364  1.00  0.00     0.068 A 
HETATM   20  C   UNL     1       2.925  28.541  47.231  1.00  0.00     0.037 A 
HETATM   21  C   UNL     1       4.009  28.953  48.007  1.00  0.00     0.003 A 
HETATM   22  C   UNL     1       4.594  28.073  48.919  1.00  0.00     0.009 A 
BRANCH  19  23
HETATM   23  O   UNL     1       1.371  26.718  46.674  1.00  0.00    -0.356 OA
HETATM   24  C   UNL     1       0.345  27.620  46.282  1.00  0.00     0.210 C 
ENDBRANCH  19  23
ENDBRANCH  16  17
ENDBRANCH  13  16
ENDBRANCH   1  12
BRANCH  11  25
HETATM   25  C   UNL     1       7.116  24.968  54.371  1.00  0.00    -0.022 A 
HETATM   26  C   UNL     1       6.868  23.961  55.316  1.00  0.00     0.012 A 
HETATM   27  C   UNL     1       7.412  22.687  55.143  1.00  0.00     0.001 A 
HETATM   28  C   UNL     1       8.202  22.411  54.027  1.00  0.00     0.000 A 
HETATM   29  C   UNL     1       8.450  23.406  53.083  1.00  0.00     0.001 A 
HETATM   30  C   UNL     1       7.908  24.681  53.251  1.00  0.00     0.012 A 
ENDBRANCH  11  25
TORSDOF 5
ENDMDL
