MODEL 1
REMARK VINA RESULT:      -9.4      0.000      0.000
REMARK  5 active torsions:
REMARK  status: ('A' for Active; 'I' for Inactive)
REMARK    1  A    between atoms: C_4  and  N_5 
REMARK    2  A    between atoms: N_8  and  C_10 
REMARK    3  A    between atoms: N_13  and  C_15 
REMARK    4  A    between atoms: C_15  and  C_16 
REMARK    5  A    between atoms: C_17  and  O_18 
ROOT
HETATM    1  C   UNL     1       5.178  27.481  54.962  1.00  0.00     0.191 C 
HETATM    2  C   UNL     1       5.707  28.921  54.992  1.00  0.00     0.061 C 
HETATM    3  C   UNL     1       7.073  29.118  55.650  1.00  0.00     0.237 C 
HETATM    4  N   UNL     1       7.246  28.320  56.910  1.00  0.00    -0.067 N 
HETATM    5  H   UNL     1       6.744  28.796  57.687  1.00  0.00     0.280 HD
HETATM    6  C   UNL     1       6.760  26.898  56.863  1.00  0.00     0.237 C 
HETATM    7  C   UNL     1       5.338  26.855  56.347  1.00  0.00     0.061 C 
ENDROOT
BRANCH   1   8
HETATM    8  N   UNL     1       5.699  26.631  53.788  1.00  0.00    -0.064 N 
HETATM    9  C   UNL     1       7.216  26.369  53.674  1.00  0.00     0.255 C 
HETATM   10  C   UNL     1       7.572  25.513  52.439  1.00  0.00     0.150 C 
HETATM   11  N   UNL     1       6.812  24.253  52.492  1.00  0.00    -0.378 N 
HETATM   12  C   UNL     1       5.366  24.505  52.344  1.00  0.00     0.150 C 
HETATM   13  C   UNL     1       4.854  25.336  53.541  1.00  0.00     0.255 C 
HETATM   14  H   UNL     1       5.499  27.188  52.942  1.00  0.00     0.280 HD
BRANCH  11  15
HETATM   15  C   UNL     1       7.270  23.254  53.368  1.00  0.00     0.030 A 
HETATM   16  C   UNL     1       7.136  23.337  54.765  1.00  0.00     0.029 A 
HETATM   17  C   UNL     1       7.647  22.353  55.626  1.00  0.00     0.002 A 
HETATM   18  C   UNL     1       8.282  21.233  55.110  1.00  0.00     0.000 A 
HETATM   19  C   UNL     1       8.378  21.084  53.734  1.00  0.00     0.002 A 
HETATM   20  C   UNL     1       7.867  22.074  52.883  1.00  0.00     0.029 A 
ENDBRANCH  11  15
ENDBRANCH   1   8
BRANCH   4  21
HETATM   21  C   UNL     1       8.702  28.407  57.394  1.00  0.00     0.276 C 
BRANCH  21  22
HETATM   22  C   UNL     1       9.021  29.670  58.137  1.00  0.00     0.002 A 
HETATM   23  C   UNL     1      10.086  30.486  57.739  1.00  0.00     0.073 A 
HETATM   24  C   UNL     1      10.383  31.668  58.413  1.00  0.00     0.038 A 
HETATM   25  C   UNL     1       9.594  32.057  59.497  1.00  0.00     0.022 A 
HETATM   26  C   UNL     1       8.525  31.260  59.899  1.00  0.00     0.011 A 
HETATM   27 BR   UNL     1       7.431  31.802  61.341  1.00  0.00    -0.051 Br
HETATM   28  C   UNL     1       8.238  30.068  59.232  1.00  0.00     0.030 A 
BRANCH  23  29
HETATM   29  O   UNL     1      10.803  30.109  56.635  1.00  0.00    -0.360 OA
HETATM   30  H   UNL     1      11.242  29.256  56.846  1.00  0.00     0.217 HD
ENDBRANCH  23  29
ENDBRANCH  21  22
ENDBRANCH   4  21
TORSDOF 5
ENDMDL
MODEL 2
REMARK VINA RESULT:      -9.3      2.272      3.802
REMARK  5 active torsions:
REMARK  status: ('A' for Active; 'I' for Inactive)
REMARK    1  A    between atoms: C_4  and  N_5 
REMARK    2  A    between atoms: N_8  and  C_10 
REMARK    3  A    between atoms: N_13  and  C_15 
REMARK    4  A    between atoms: C_15  and  C_16 
REMARK    5  A    between atoms: C_17  and  O_18 
ROOT
HETATM    1  C   UNL     1       7.180  29.065  56.579  1.00  0.00     0.191 C 
HETATM    2  C   UNL     1       8.630  29.473  56.289  1.00  0.00     0.061 C 
HETATM    3  C   UNL     1       9.448  29.936  57.495  1.00  0.00     0.237 C 
HETATM    4  N   UNL     1       8.680  30.829  58.426  1.00  0.00    -0.067 N 
HETATM    5  H   UNL     1       8.636  31.786  58.022  1.00  0.00     0.280 HD
HETATM    6  C   UNL     1       7.271  30.405  58.736  1.00  0.00     0.237 C 
HETATM    7  C   UNL     1       6.520  30.133  57.452  1.00  0.00     0.061 C 
ENDROOT
BRANCH   1   8
HETATM    8  N   UNL     1       7.006  27.614  57.065  1.00  0.00    -0.064 N 
HETATM    9  C   UNL     1       5.822  26.785  56.527  1.00  0.00     0.255 C 
HETATM   10  C   UNL     1       5.785  25.360  57.123  1.00  0.00     0.150 C 
HETATM   11  N   UNL     1       7.071  24.695  56.857  1.00  0.00    -0.378 N 
HETATM   12  C   UNL     1       8.167  25.357  57.590  1.00  0.00     0.150 C 
HETATM   13  C   UNL     1       8.345  26.802  57.072  1.00  0.00     0.255 C 
HETATM   14  H   UNL     1       6.793  27.692  58.073  1.00  0.00     0.280 HD
BRANCH  11  15
HETATM   15  C   UNL     1       7.288  24.193  55.562  1.00  0.00     0.030 A 
HETATM   16  C   UNL     1       6.513  24.572  54.452  1.00  0.00     0.029 A 
HETATM   17  C   UNL     1       6.711  24.019  53.177  1.00  0.00     0.002 A 
HETATM   18  C   UNL     1       7.720  23.090  52.966  1.00  0.00     0.000 A 
HETATM   19  C   UNL     1       8.546  22.738  54.023  1.00  0.00     0.002 A 
HETATM   20  C   UNL     1       8.337  23.293  55.293  1.00  0.00     0.029 A 
ENDBRANCH  11  15
ENDBRANCH   1   8
BRANCH   4  21
HETATM   21  C   UNL     1       9.492  31.081  59.707  1.00  0.00     0.276 C 
BRANCH  21  22
HETATM   22  C   UNL     1       8.658  31.492  60.884  1.00  0.00     0.002 A 
HETATM   23  C   UNL     1       8.668  30.742  62.065  1.00  0.00     0.073 A 
HETATM   24  C   UNL     1       7.908  31.121  63.169  1.00  0.00     0.038 A 
HETATM   25  C   UNL     1       7.132  32.280  63.103  1.00  0.00     0.022 A 
HETATM   26  C   UNL     1       7.121  33.042  61.937  1.00  0.00     0.011 A 
HETATM   27 BR   UNL     1       6.104  34.632  61.857  1.00  0.00    -0.051 Br
HETATM   28  C   UNL     1       7.871  32.652  60.828  1.00  0.00     0.030 A 
BRANCH  23  29
HETATM   29  O   UNL     1       9.484  29.644  62.120  1.00  0.00    -0.360 OA
HETATM   30  H   UNL     1       8.941  28.889  62.434  1.00  0.00     0.217 HD
ENDBRANCH  23  29
ENDBRANCH  21  22
ENDBRANCH   4  21
TORSDOF 5
ENDMDL
MODEL 3
REMARK VINA RESULT:      -9.1      1.663      1.923
REMARK  5 active torsions:
REMARK  status: ('A' for Active; 'I' for Inactive)
REMARK    1  A    between atoms: C_4  and  N_5 
REMARK    2  A    between atoms: N_8  and  C_10 
REMARK    3  A    between atoms: N_13  and  C_15 
REMARK    4  A    between atoms: C_15  and  C_16 
REMARK    5  A    between atoms: C_17  and  O_18 
ROOT
HETATM    1  C   UNL     1       4.905  26.921  55.417  1.00  0.00     0.191 C 
HETATM    2  C   UNL     1       4.501  28.388  55.226  1.00  0.00     0.061 C 
HETATM    3  C   UNL     1       5.549  29.428  55.624  1.00  0.00     0.237 C 
HETATM    4  N   UNL     1       6.259  29.096  56.904  1.00  0.00    -0.067 N 
HETATM    5  H   UNL     1       5.642  29.333  57.708  1.00  0.00     0.280 HD
HETATM    6  C   UNL     1       6.686  27.664  57.071  1.00  0.00     0.237 C 
HETATM    7  C   UNL     1       5.515  26.742  56.807  1.00  0.00     0.061 C 
ENDROOT
BRANCH   1   8
HETATM    8  N   UNL     1       5.722  26.324  54.255  1.00  0.00    -0.064 N 
HETATM    9  C   UNL     1       7.228  26.060  54.462  1.00  0.00     0.255 C 
HETATM   10  C   UNL     1       7.900  25.474  53.201  1.00  0.00     0.150 C 
HETATM   11  N   UNL     1       7.189  24.247  52.805  1.00  0.00    -0.378 N 
HETATM   12  C   UNL     1       5.815  24.555  52.364  1.00  0.00     0.150 C 
HETATM   13  C   UNL     1       5.002  25.128  53.547  1.00  0.00     0.255 C 
HETATM   14  H   UNL     1       5.715  27.050  53.521  1.00  0.00     0.280 HD
BRANCH  11  15
HETATM   15  C   UNL     1       7.452  23.078  53.539  1.00  0.00     0.030 A 
HETATM   16  C   UNL     1       7.356  23.012  54.940  1.00  0.00     0.029 A 
HETATM   17  C   UNL     1       7.675  21.849  55.658  1.00  0.00     0.002 A 
HETATM   18  C   UNL     1       8.067  20.699  54.989  1.00  0.00     0.000 A 
HETATM   19  C   UNL     1       8.112  20.705  53.603  1.00  0.00     0.002 A 
HETATM   20  C   UNL     1       7.796  21.873  52.895  1.00  0.00     0.029 A 
ENDBRANCH  11  15
ENDBRANCH   1   8
BRANCH   4  21
HETATM   21  C   UNL     1       7.429  30.067  57.127  1.00  0.00     0.276 C 
BRANCH  21  22
HETATM   22  C   UNL     1       7.409  30.747  58.465  1.00  0.00     0.002 A 
HETATM   23  C   UNL     1       6.500  31.776  58.730  1.00  0.00     0.073 A 
HETATM   24  C   UNL     1       6.462  32.405  59.972  1.00  0.00     0.038 A 
HETATM   25  C   UNL     1       7.337  31.991  60.978  1.00  0.00     0.022 A 
HETATM   26  C   UNL     1       8.240  30.960  60.731  1.00  0.00     0.011 A 
HETATM   27 BR   UNL     1       9.399  30.369  62.102  1.00  0.00    -0.051 Br
HETATM   28  C   UNL     1       8.287  30.342  59.482  1.00  0.00     0.030 A 
BRANCH  23  29
HETATM   29  O   UNL     1       5.614  32.119  57.744  1.00  0.00    -0.360 OA
HETATM   30  H   UNL     1       5.574  31.370  57.111  1.00  0.00     0.217 HD
ENDBRANCH  23  29
ENDBRANCH  21  22
ENDBRANCH   4  21
TORSDOF 5
ENDMDL
MODEL 4
REMARK VINA RESULT:      -9.0      4.197      6.585
REMARK  5 active torsions:
REMARK  status: ('A' for Active; 'I' for Inactive)
REMARK    1  A    between atoms: C_4  and  N_5 
REMARK    2  A    between atoms: N_8  and  C_10 
REMARK    3  A    between atoms: N_13  and  C_15 
REMARK    4  A    between atoms: C_15  and  C_16 
REMARK    5  A    between atoms: C_17  and  O_18 
ROOT
HETATM    1  C   UNL     1       7.442  28.376  55.633  1.00  0.00     0.191 C 
HETATM    2  C   UNL     1       6.372  29.461  55.808  1.00  0.00     0.061 C 
HETATM    3  C   UNL     1       5.196  29.406  54.832  1.00  0.00     0.237 C 
HETATM    4  N   UNL     1       5.611  29.104  53.421  1.00  0.00    -0.067 N 
HETATM    5  H   UNL     1       5.999  29.965  52.987  1.00  0.00     0.280 HD
HETATM    6  C   UNL     1       6.632  28.014  53.251  1.00  0.00     0.237 C 
HETATM    7  C   UNL     1       7.818  28.272  54.155  1.00  0.00     0.061 C 
ENDROOT
BRANCH   1   8
HETATM    8  N   UNL     1       7.120  27.039  56.327  1.00  0.00    -0.064 N 
HETATM    9  C   UNL     1       5.950  26.185  55.795  1.00  0.00     0.255 C 
HETATM   10  C   UNL     1       5.754  24.887  56.608  1.00  0.00     0.150 C 
HETATM   11  N   UNL     1       7.015  24.127  56.612  1.00  0.00    -0.378 N 
HETATM   12  C   UNL     1       8.064  24.854  57.352  1.00  0.00     0.150 C 
HETATM   13  C   UNL     1       8.393  26.179  56.629  1.00  0.00     0.255 C 
HETATM   14  H   UNL     1       6.802  27.299  57.275  1.00  0.00     0.280 HD
BRANCH  11  15
HETATM   15  C   UNL     1       7.340  23.401  55.453  1.00  0.00     0.030 A 
HETATM   16  C   UNL     1       7.422  23.987  54.178  1.00  0.00     0.029 A 
HETATM   17  C   UNL     1       7.696  23.234  53.025  1.00  0.00     0.002 A 
HETATM   18  C   UNL     1       7.933  21.871  53.119  1.00  0.00     0.000 A 
HETATM   19  C   UNL     1       7.924  21.268  54.368  1.00  0.00     0.002 A 
HETATM   20  C   UNL     1       7.645  22.028  55.513  1.00  0.00     0.029 A 
ENDBRANCH  11  15
ENDBRANCH   1   8
BRANCH   4  21
HETATM   21  C   UNL     1       4.370  28.860  52.546  1.00  0.00     0.276 C 
BRANCH  21  22
HETATM   22  C   UNL     1       4.666  28.793  51.077  1.00  0.00     0.002 A 
HETATM   23  C   UNL     1       5.386  29.813  50.445  1.00  0.00     0.073 A 
HETATM   24  C   UNL     1       5.678  29.756  49.085  1.00  0.00     0.038 A 
HETATM   25  C   UNL     1       5.259  28.653  48.338  1.00  0.00     0.022 A 
HETATM   26  C   UNL     1       4.551  27.625  48.956  1.00  0.00     0.011 A 
HETATM   27 BR   UNL     1       4.016  26.113  47.958  1.00  0.00    -0.051 Br
HETATM   28  C   UNL     1       4.246  27.692  50.316  1.00  0.00     0.030 A 
BRANCH  23  29
HETATM   29  O   UNL     1       5.835  30.852  51.215  1.00  0.00    -0.360 OA
HETATM   30  H   UNL     1       6.707  30.590  51.584  1.00  0.00     0.217 HD
ENDBRANCH  23  29
ENDBRANCH  21  22
ENDBRANCH   4  21
TORSDOF 5
ENDMDL
MODEL 5
REMARK VINA RESULT:      -8.9      4.671      7.444
REMARK  5 active torsions:
REMARK  status: ('A' for Active; 'I' for Inactive)
REMARK    1  A    between atoms: C_4  and  N_5 
REMARK    2  A    between atoms: N_8  and  C_10 
REMARK    3  A    between atoms: N_13  and  C_15 
REMARK    4  A    between atoms: C_15  and  C_16 
REMARK    5  A    between atoms: C_17  and  O_18 
ROOT
HETATM    1  C   UNL     1       4.407  28.568  53.465  1.00  0.00     0.191 C 
HETATM    2  C   UNL     1       5.661  28.866  54.296  1.00  0.00     0.061 C 
HETATM    3  C   UNL     1       6.876  27.981  54.014  1.00  0.00     0.237 C 
HETATM    4  N   UNL     1       6.527  26.532  53.834  1.00  0.00    -0.067 N 
HETATM    5  H   UNL     1       6.364  26.102  54.767  1.00  0.00     0.280 HD
HETATM    6  C   UNL     1       5.318  26.245  52.988  1.00  0.00     0.237 C 
HETATM    7  C   UNL     1       4.141  27.063  53.473  1.00  0.00     0.061 C 
ENDROOT
BRANCH   1   8
HETATM    8  N   UNL     1       4.384  29.236  52.077  1.00  0.00    -0.064 N 
HETATM    9  C   UNL     1       5.377  28.751  51.001  1.00  0.00     0.255 C 
HETATM   10  C   UNL     1       5.232  29.530  49.675  1.00  0.00     0.150 C 
HETATM   11  N   UNL     1       3.840  29.427  49.207  1.00  0.00    -0.378 N 
HETATM   12  C   UNL     1       2.923  30.123  50.130  1.00  0.00     0.150 C 
HETATM   13  C   UNL     1       2.938  29.425  51.508  1.00  0.00     0.255 C 
HETATM   14  H   UNL     1       4.683  30.211  52.243  1.00  0.00     0.280 HD
BRANCH  11  15
HETATM   15  C   UNL     1       3.449  28.225  48.592  1.00  0.00     0.030 A 
HETATM   16  C   UNL     1       2.112  27.924  48.276  1.00  0.00     0.029 A 
HETATM   17  C   UNL     1       1.735  26.696  47.710  1.00  0.00     0.002 A 
HETATM   18  C   UNL     1       2.695  25.741  47.409  1.00  0.00     0.000 A 
HETATM   19  C   UNL     1       4.031  26.026  47.646  1.00  0.00     0.002 A 
HETATM   20  C   UNL     1       4.397  27.254  48.216  1.00  0.00     0.029 A 
ENDBRANCH  11  15
ENDBRANCH   1   8
BRANCH   4  21
HETATM   21  C   UNL     1       7.758  25.747  53.351  1.00  0.00     0.276 C 
BRANCH  21  22
HETATM   22  C   UNL     1       7.939  24.423  54.032  1.00  0.00     0.002 A 
HETATM   23  C   UNL     1       7.982  24.336  55.428  1.00  0.00     0.073 A 
HETATM   24  C   UNL     1       8.136  23.111  56.072  1.00  0.00     0.038 A 
HETATM   25  C   UNL     1       8.235  21.944  55.312  1.00  0.00     0.022 A 
HETATM   26  C   UNL     1       8.184  22.014  53.922  1.00  0.00     0.011 A 
HETATM   27 BR   UNL     1       8.278  20.434  52.891  1.00  0.00    -0.051 Br
HETATM   28  C   UNL     1       8.045  23.244  53.279  1.00  0.00     0.030 A 
BRANCH  23  29
HETATM   29  O   UNL     1       7.821  25.490  56.147  1.00  0.00    -0.360 OA
HETATM   30  H   UNL     1       6.991  25.915  55.840  1.00  0.00     0.217 HD
ENDBRANCH  23  29
ENDBRANCH  21  22
ENDBRANCH   4  21
TORSDOF 5
ENDMDL
MODEL 6
REMARK VINA RESULT:      -8.8      3.318      8.739
REMARK  5 active torsions:
REMARK  status: ('A' for Active; 'I' for Inactive)
REMARK    1  A    between atoms: C_4  and  N_5 
REMARK    2  A    between atoms: N_8  and  C_10 
REMARK    3  A    between atoms: N_13  and  C_15 
REMARK    4  A    between atoms: C_15  and  C_16 
REMARK    5  A    between atoms: C_17  and  O_18 
ROOT
HETATM    1  C   UNL     1       5.923  27.533  57.396  1.00  0.00     0.191 C 
HETATM    2  C   UNL     1       6.821  26.360  57.808  1.00  0.00     0.061 C 
HETATM    3  C   UNL     1       7.668  25.742  56.694  1.00  0.00     0.237 C 
HETATM    4  N   UNL     1       6.924  25.587  55.399  1.00  0.00    -0.067 N 
HETATM    5  H   UNL     1       6.303  24.756  55.460  1.00  0.00     0.280 HD
HETATM    6  C   UNL     1       6.074  26.755  54.982  1.00  0.00     0.237 C 
HETATM    7  C   UNL     1       5.166  27.166  56.120  1.00  0.00     0.061 C 
ENDROOT
BRANCH   1   8
HETATM    8  N   UNL     1       6.627  28.903  57.375  1.00  0.00    -0.064 N 
HETATM    9  C   UNL     1       5.892  30.127  57.960  1.00  0.00     0.255 C 
HETATM   10  C   UNL     1       6.728  31.422  57.850  1.00  0.00     0.150 C 
HETATM   11  N   UNL     1       8.027  31.211  58.508  1.00  0.00    -0.378 N 
HETATM   12  C   UNL     1       8.829  30.208  57.781  1.00  0.00     0.150 C 
HETATM   13  C   UNL     1       8.123  28.836  57.834  1.00  0.00     0.255 C 
HETATM   14  H   UNL     1       6.715  29.145  56.375  1.00  0.00     0.280 HD
BRANCH  11  15
HETATM   15  C   UNL     1       8.060  31.260  59.913  1.00  0.00     0.030 A 
HETATM   16  C   UNL     1       9.045  30.615  60.681  1.00  0.00     0.029 A 
HETATM   17  C   UNL     1       9.030  30.631  62.084  1.00  0.00     0.002 A 
HETATM   18  C   UNL     1       8.042  31.327  62.765  1.00  0.00     0.000 A 
HETATM   19  C   UNL     1       7.090  32.030  62.042  1.00  0.00     0.002 A 
HETATM   20  C   UNL     1       7.111  32.003  60.641  1.00  0.00     0.029 A 
ENDBRANCH  11  15
ENDBRANCH   1   8
BRANCH   4  21
HETATM   21  C   UNL     1       7.890  25.160  54.283  1.00  0.00     0.276 C 
BRANCH  21  22
HETATM   22  C   UNL     1       7.992  23.673  54.104  1.00  0.00     0.002 A 
HETATM   23  C   UNL     1       7.846  23.094  52.839  1.00  0.00     0.073 A 
HETATM   24  C   UNL     1       7.951  21.716  52.659  1.00  0.00     0.038 A 
HETATM   25  C   UNL     1       8.225  20.899  53.757  1.00  0.00     0.022 A 
HETATM   26  C   UNL     1       8.383  21.464  55.020  1.00  0.00     0.011 A 
HETATM   27 BR   UNL     1       8.792  20.366  56.503  1.00  0.00    -0.051 Br
HETATM   28  C   UNL     1       8.261  22.842  55.202  1.00  0.00     0.030 A 
BRANCH  23  29
HETATM   29  O   UNL     1       7.639  23.926  51.772  1.00  0.00    -0.360 OA
HETATM   30  H   UNL     1       7.587  23.366  50.967  1.00  0.00     0.217 HD
ENDBRANCH  23  29
ENDBRANCH  21  22
ENDBRANCH   4  21
TORSDOF 5
ENDMDL
MODEL 7
REMARK VINA RESULT:      -8.7      1.823      2.335
REMARK  5 active torsions:
REMARK  status: ('A' for Active; 'I' for Inactive)
REMARK    1  A    between atoms: C_4  and  N_5 
REMARK    2  A    between atoms: N_8  and  C_10 
REMARK    3  A    between atoms: N_13  and  C_15 
REMARK    4  A    between atoms: C_15  and  C_16 
REMARK    5  A    between atoms: C_17  and  O_18 
ROOT
HETATM    1  C   UNL     1       4.857  28.314  56.102  1.00  0.00     0.191 C 
HETATM    2  C   UNL     1       4.330  29.749  56.211  1.00  0.00     0.061 C 
HETATM    3  C   UNL     1       5.309  30.781  56.773  1.00  0.00     0.237 C 
HETATM    4  N   UNL     1       6.099  30.273  57.944  1.00  0.00    -0.067 N 
HETATM    5  H   UNL     1       5.503  30.297  58.795  1.00  0.00     0.280 HD
HETATM    6  C   UNL     1       6.646  28.878  57.816  1.00  0.00     0.237 C 
HETATM    7  C   UNL     1       5.542  27.926  57.412  1.00  0.00     0.061 C 
ENDROOT
BRANCH   1   8
HETATM    8  N   UNL     1       5.666  28.023  54.823  1.00  0.00    -0.064 N 
HETATM    9  C   UNL     1       7.183  27.769  54.943  1.00  0.00     0.255 C 
HETATM   10  C   UNL     1       7.845  27.507  53.572  1.00  0.00     0.150 C 
HETATM   11  N   UNL     1       7.162  26.379  52.917  1.00  0.00    -0.378 N 
HETATM   12  C   UNL     1       5.770  26.732  52.578  1.00  0.00     0.150 C 
HETATM   13  C   UNL     1       4.967  26.995  53.871  1.00  0.00     0.255 C 
HETATM   14  H   UNL     1       5.622  28.896  54.273  1.00  0.00     0.280 HD
BRANCH  11  15
HETATM   15  C   UNL     1       7.475  25.083  53.363  1.00  0.00     0.030 A 
HETATM   16  C   UNL     1       7.557  24.737  54.723  1.00  0.00     0.029 A 
HETATM   17  C   UNL     1       7.923  23.450  55.147  1.00  0.00     0.002 A 
HETATM   18  C   UNL     1       8.185  22.455  54.217  1.00  0.00     0.000 A 
HETATM   19  C   UNL     1       8.052  22.740  52.866  1.00  0.00     0.002 A 
HETATM   20  C   UNL     1       7.690  24.030  52.452  1.00  0.00     0.029 A 
ENDBRANCH  11  15
ENDBRANCH   1   8
BRANCH   4  21
HETATM   21  C   UNL     1       7.198  31.281  58.317  1.00  0.00     0.276 C 
BRANCH  21  22
HETATM   22  C   UNL     1       7.590  31.244  59.765  1.00  0.00     0.002 A 
HETATM   23  C   UNL     1       8.780  30.630  60.169  1.00  0.00     0.073 A 
HETATM   24  C   UNL     1       9.161  30.601  61.508  1.00  0.00     0.038 A 
HETATM   25  C   UNL     1       8.348  31.210  62.466  1.00  0.00     0.022 A 
HETATM   26  C   UNL     1       7.165  31.833  62.077  1.00  0.00     0.011 A 
HETATM   27 BR   UNL     1       6.081  32.692  63.365  1.00  0.00    -0.051 Br
HETATM   28  C   UNL     1       6.778  31.848  60.737  1.00  0.00     0.030 A 
BRANCH  23  29
HETATM   29  O   UNL     1       9.586  30.096  59.200  1.00  0.00    -0.360 OA
HETATM   30  H   UNL     1       9.085  30.115  58.356  1.00  0.00     0.217 HD
ENDBRANCH  23  29
ENDBRANCH  21  22
ENDBRANCH   4  21
TORSDOF 5
ENDMDL
MODEL 8
REMARK VINA RESULT:      -8.5      4.262      6.680
REMARK  5 active torsions:
REMARK  status: ('A' for Active; 'I' for Inactive)
REMARK    1  A    between atoms: C_4  and  N_5 
REMARK    2  A    between atoms: N_8  and  C_10 
REMARK    3  A    between atoms: N_13  and  C_15 
REMARK    4  A    between atoms: C_15  and  C_16 
REMARK    5  A    between atoms: C_17  and  O_18 
ROOT
HETATM    1  C   UNL     1       6.833  28.536  55.730  1.00  0.00     0.191 C 
HETATM    2  C   UNL     1       5.470  29.034  55.234  1.00  0.00     0.061 C 
HETATM    3  C   UNL     1       4.979  28.435  53.915  1.00  0.00     0.237 C 
HETATM    4  N   UNL     1       6.059  28.313  52.880  1.00  0.00    -0.067 N 
HETATM    5  H   UNL     1       6.230  29.246  52.453  1.00  0.00     0.280 HD
HETATM    6  C   UNL     1       7.383  27.790  53.364  1.00  0.00     0.237 C 
HETATM    7  C   UNL     1       7.835  28.574  54.577  1.00  0.00     0.061 C 
ENDROOT
BRANCH   1   8
HETATM    8  N   UNL     1       6.785  27.215  56.520  1.00  0.00    -0.064 N 
HETATM    9  C   UNL     1       5.787  26.122  56.084  1.00  0.00     0.255 C 
HETATM   10  C   UNL     1       5.856  24.869  56.985  1.00  0.00     0.150 C 
HETATM   11  N   UNL     1       7.238  24.362  56.996  1.00  0.00    -0.378 N 
HETATM   12  C   UNL     1       8.146  25.322  57.652  1.00  0.00     0.150 C 
HETATM   13  C   UNL     1       8.203  26.631  56.833  1.00  0.00     0.255 C 
HETATM   14  H   UNL     1       6.443  27.475  57.460  1.00  0.00     0.280 HD
BRANCH  11  15
HETATM   15  C   UNL     1       7.670  23.630  55.876  1.00  0.00     0.030 A 
HETATM   16  C   UNL     1       7.115  23.789  54.594  1.00  0.00     0.029 A 
HETATM   17  C   UNL     1       7.524  23.011  53.500  1.00  0.00     0.002 A 
HETATM   18  C   UNL     1       8.532  22.069  53.649  1.00  0.00     0.000 A 
HETATM   19  C   UNL     1       9.149  21.929  54.883  1.00  0.00     0.002 A 
HETATM   20  C   UNL     1       8.730  22.708  55.971  1.00  0.00     0.029 A 
ENDBRANCH  11  15
ENDBRANCH   1   8
BRANCH   4  21
HETATM   21  C   UNL     1       5.543  27.519  51.668  1.00  0.00     0.276 C 
BRANCH  21  22
HETATM   22  C   UNL     1       5.224  28.371  50.475  1.00  0.00     0.002 A 
HETATM   23  C   UNL     1       4.393  27.892  49.456  1.00  0.00     0.073 A 
HETATM   24  C   UNL     1       4.079  28.678  48.350  1.00  0.00     0.038 A 
HETATM   25  C   UNL     1       4.589  29.975  48.263  1.00  0.00     0.022 A 
HETATM   26  C   UNL     1       5.409  30.468  49.275  1.00  0.00     0.011 A 
HETATM   27 BR   UNL     1       6.070  32.236  49.179  1.00  0.00    -0.051 Br
HETATM   28  C   UNL     1       5.735  29.674  50.374  1.00  0.00     0.030 A 
BRANCH  23  29
HETATM   29  O   UNL     1       3.860  26.640  49.600  1.00  0.00    -0.360 OA
HETATM   30  H   UNL     1       2.990  26.636  49.143  1.00  0.00     0.217 HD
ENDBRANCH  23  29
ENDBRANCH  21  22
ENDBRANCH   4  21
TORSDOF 5
ENDMDL
MODEL 9
REMARK VINA RESULT:      -8.4      3.508      5.030
REMARK  5 active torsions:
REMARK  status: ('A' for Active; 'I' for Inactive)
REMARK    1  A    between atoms: C_4  and  N_5 
REMARK    2  A    between atoms: N_8  and  C_10 
REMARK    3  A    between atoms: N_13  and  C_15 
REMARK    4  A    between atoms: C_15  and  C_16 
REMARK    5  A    between atoms: C_17  and  O_18 
ROOT
HETATM    1  C   UNL     1       7.124  29.556  57.031  1.00  0.00     0.191 C 
HETATM    2  C   UNL     1       8.368  30.008  57.805  1.00  0.00     0.061 C 
HETATM    3  C   UNL     1       8.122  30.539  59.217  1.00  0.00     0.237 C 
HETATM    4  N   UNL     1       6.918  31.430  59.315  1.00  0.00    -0.067 N 
HETATM    5  H   UNL     1       7.160  32.372  58.947  1.00  0.00     0.280 HD
HETATM    6  C   UNL     1       5.689  30.963  58.585  1.00  0.00     0.237 C 
HETATM    7  C   UNL     1       6.037  30.624  57.153  1.00  0.00     0.061 C 
ENDROOT
BRANCH   1   8
HETATM    8  N   UNL     1       6.670  28.115  57.332  1.00  0.00    -0.064 N 
HETATM    9  C   UNL     1       5.437  27.552  56.594  1.00  0.00     0.255 C 
HETATM   10  C   UNL     1       5.109  26.104  57.018  1.00  0.00     0.150 C 
HETATM   11  N   UNL     1       6.296  25.260  56.802  1.00  0.00    -0.378 N 
HETATM   12  C   UNL     1       7.394  25.654  57.705  1.00  0.00     0.150 C 
HETATM   13  C   UNL     1       7.854  27.091  57.373  1.00  0.00     0.255 C 
HETATM   14  H   UNL     1       6.361  28.131  58.317  1.00  0.00     0.280 HD
BRANCH  11  15
HETATM   15  C   UNL     1       6.574  24.855  55.484  1.00  0.00     0.030 A 
HETATM   16  C   UNL     1       5.690  25.069  54.412  1.00  0.00     0.029 A 
HETATM   17  C   UNL     1       5.963  24.610  53.114  1.00  0.00     0.002 A 
HETATM   18  C   UNL     1       7.151  23.949  52.841  1.00  0.00     0.000 A 
HETATM   19  C   UNL     1       8.078  23.775  53.859  1.00  0.00     0.002 A 
HETATM   20  C   UNL     1       7.794  24.234  55.153  1.00  0.00     0.029 A 
ENDBRANCH  11  15
ENDBRANCH   1   8
BRANCH   4  21
HETATM   21  C   UNL     1       6.616  31.752  60.788  1.00  0.00     0.276 C 
BRANCH  21  22
HETATM   22  C   UNL     1       5.381  32.579  60.988  1.00  0.00     0.002 A 
HETATM   23  C   UNL     1       4.444  32.240  61.971  1.00  0.00     0.073 A 
HETATM   24  C   UNL     1       3.300  33.008  62.175  1.00  0.00     0.038 A 
HETATM   25  C   UNL     1       3.090  34.147  61.396  1.00  0.00     0.022 A 
HETATM   26  C   UNL     1       4.019  34.502  60.420  1.00  0.00     0.011 A 
HETATM   27 BR   UNL     1       3.758  36.064  59.390  1.00  0.00    -0.051 Br
HETATM   28  C   UNL     1       5.156  33.723  60.207  1.00  0.00     0.030 A 
BRANCH  23  29
HETATM   29  O   UNL     1       4.708  31.153  62.760  1.00  0.00    -0.360 OA
HETATM   30  H   UNL     1       5.672  30.972  62.700  1.00  0.00     0.217 HD
ENDBRANCH  23  29
ENDBRANCH  21  22
ENDBRANCH   4  21
TORSDOF 5
ENDMDL
MODEL 10
REMARK VINA RESULT:      -8.3      1.844      3.113
REMARK  5 active torsions:
REMARK  status: ('A' for Active; 'I' for Inactive)
REMARK    1  A    between atoms: C_4  and  N_5 
REMARK    2  A    between atoms: N_8  and  C_10 
REMARK    3  A    between atoms: N_13  and  C_15 
REMARK    4  A    between atoms: C_15  and  C_16 
REMARK    5  A    between atoms: C_17  and  O_18 
ROOT
HETATM    1  C   UNL     1       8.407  28.022  56.331  1.00  0.00     0.191 C 
HETATM    2  C   UNL     1       8.686  28.188  57.830  1.00  0.00     0.061 C 
HETATM    3  C   UNL     1       7.839  29.233  58.556  1.00  0.00     0.237 C 
HETATM    4  N   UNL     1       7.656  30.499  57.771  1.00  0.00    -0.067 N 
HETATM    5  H   UNL     1       8.521  31.073  57.842  1.00  0.00     0.280 HD
HETATM    6  C   UNL     1       7.346  30.331  56.309  1.00  0.00     0.237 C 
HETATM    7  C   UNL     1       8.354  29.400  55.671  1.00  0.00     0.061 C 
ENDROOT
BRANCH   1   8
HETATM    8  N   UNL     1       7.231  27.084  55.997  1.00  0.00    -0.064 N 
HETATM    9  C   UNL     1       6.955  26.732  54.520  1.00  0.00     0.255 C 
HETATM   10  C   UNL     1       5.738  25.795  54.358  1.00  0.00     0.150 C 
HETATM   11  N   UNL     1       5.951  24.585  55.168  1.00  0.00    -0.378 N 
HETATM   12  C   UNL     1       5.960  24.910  56.607  1.00  0.00     0.150 C 
HETATM   13  C   UNL     1       7.159  25.829  56.929  1.00  0.00     0.255 C 
HETATM   14  H   UNL     1       6.384  27.608  56.270  1.00  0.00     0.280 HD
BRANCH  11  15
HETATM   15  C   UNL     1       6.824  23.607  54.658  1.00  0.00     0.030 A 
HETATM   16  C   UNL     1       7.162  23.515  53.297  1.00  0.00     0.029 A 
HETATM   17  C   UNL     1       7.993  22.499  52.800  1.00  0.00     0.002 A 
HETATM   18  C   UNL     1       8.542  21.560  53.661  1.00  0.00     0.000 A 
HETATM   19  C   UNL     1       8.283  21.656  55.020  1.00  0.00     0.002 A 
HETATM   20  C   UNL     1       7.448  22.672  55.506  1.00  0.00     0.029 A 
ENDBRANCH  11  15
ENDBRANCH   1   8
BRANCH   4  21
HETATM   21  C   UNL     1       6.632  31.411  58.467  1.00  0.00     0.276 C 
BRANCH  21  22
HETATM   22  C   UNL     1       7.058  31.873  59.829  1.00  0.00     0.002 A 
HETATM   23  C   UNL     1       8.373  32.290  60.065  1.00  0.00     0.073 A 
HETATM   24  C   UNL     1       8.776  32.734  61.322  1.00  0.00     0.038 A 
HETATM   25  C   UNL     1       7.849  32.779  62.364  1.00  0.00     0.022 A 
HETATM   26  C   UNL     1       6.534  32.376  62.142  1.00  0.00     0.011 A 
HETATM   27 BR   UNL     1       5.266  32.472  63.539  1.00  0.00    -0.051 Br
HETATM   28  C   UNL     1       6.136  31.917  60.886  1.00  0.00     0.030 A 
BRANCH  23  29
HETATM   29  O   UNL     1       9.243  32.292  59.008  1.00  0.00    -0.360 OA
HETATM   30  H   UNL     1       9.473  31.357  58.814  1.00  0.00     0.217 HD
ENDBRANCH  23  29
ENDBRANCH  21  22
ENDBRANCH   4  21
TORSDOF 5
ENDMDL
