MODEL 1
REMARK VINA RESULT:      -9.3      0.000      0.000
REMARK  4 active torsions:
REMARK  status: ('A' for Active; 'I' for Inactive)
REMARK    1  A    between atoms: C_3  and  C_4 
REMARK    2  A    between atoms: C_5  and  C_6 
REMARK       I    between atoms: C_6  and  N_7 
REMARK    3  A    between atoms: N_7  and  C_8 
REMARK    4  A    between atoms: C_15  and  C_16 
REMARK       I    between atoms: C_16  and  N_17 
ROOT
HETATM    1  C   UNL     1       7.995  28.410  57.529  1.00  0.00     0.035 A 
HETATM    2  C   UNL     1       7.901  29.413  58.504  1.00  0.00     0.046 A 
HETATM    3  C   UNL     1       8.872  30.439  58.546  1.00  0.00     0.030 A 
HETATM    4  C   UNL     1       9.904  30.423  57.616  1.00  0.00     0.063 A 
HETATM    5  N   UNL     1      10.666  31.520  57.903  1.00  0.00    -0.277 N 
HETATM    6  H   UNL     1      11.507  31.825  57.425  1.00  0.00     0.189 HD
HETATM    7  N   UNL     1      10.224  32.252  58.938  1.00  0.00    -0.168 NA
HETATM    8  C   UNL     1       9.114  31.594  59.348  1.00  0.00     0.156 A 
HETATM    9  C   UNL     1      10.032  29.438  56.636  1.00  0.00     0.034 A 
HETATM   10  C   UNL     1       9.056  28.434  56.614  1.00  0.00     0.032 A 
ENDROOT
BRANCH   1  11
HETATM   11  N   UNL     1       7.074  27.347  57.405  1.00  0.00    -0.327 N 
HETATM   12  C   UNL     1       7.322  26.001  57.545  1.00  0.00     0.227 C 
HETATM   13  O   UNL     1       8.376  25.471  57.865  1.00  0.00    -0.273 OA
HETATM   14  H   UNL     1       6.120  27.609  57.203  1.00  0.00     0.169 HD
BRANCH  12  15
HETATM   15  C   UNL     1       6.137  25.118  57.349  1.00  0.00     0.087 A 
HETATM   16  C   UNL     1       5.862  24.400  56.036  1.00  0.00     0.034 A 
HETATM   17  C   UNL     1       4.925  25.478  56.540  1.00  0.00     0.025 A 
BRANCH  16  18
HETATM   18  C   UNL     1       6.613  24.647  54.734  1.00  0.00    -0.031 A 
HETATM   19  C   UNL     1       6.574  25.904  54.103  1.00  0.00     0.009 A 
HETATM   20  C   UNL     1       7.259  26.158  52.909  1.00  0.00     0.001 A 
HETATM   21  C   UNL     1       8.031  25.163  52.323  1.00  0.00     0.002 A 
HETATM   22  C   UNL     1       8.127  23.920  52.938  1.00  0.00     0.024 A 
HETATM   23  C   UNL     1       7.434  23.669  54.129  1.00  0.00     0.040 A 
HETATM   24 CL   UNL     1       7.653  22.110  54.853  1.00  0.00    -0.084 Cl
ENDBRANCH  16  18
ENDBRANCH  12  15
ENDBRANCH   1  11
BRANCH   8  25
HETATM   25  C   UNL     1       8.319  32.082  60.485  1.00  0.00     0.270 C 
HETATM   26  N   UNL     1       8.940  31.949  61.698  1.00  0.00    -0.365 N 
HETATM   27  H   UNL     1       9.867  31.542  61.725  1.00  0.00     0.159 HD
HETATM   28  H   UNL     1       8.473  32.263  62.533  1.00  0.00     0.159 HD
HETATM   29  O   UNL     1       7.199  32.571  60.396  1.00  0.00    -0.266 OA
ENDBRANCH   8  25
TORSDOF 4
ENDMDL
MODEL 2
REMARK VINA RESULT:      -9.0      2.158      2.801
REMARK  4 active torsions:
REMARK  status: ('A' for Active; 'I' for Inactive)
REMARK    1  A    between atoms: C_3  and  C_4 
REMARK    2  A    between atoms: C_5  and  C_6 
REMARK       I    between atoms: C_6  and  N_7 
REMARK    3  A    between atoms: N_7  and  C_8 
REMARK    4  A    between atoms: C_15  and  C_16 
REMARK       I    between atoms: C_16  and  N_17 
ROOT
HETATM    1  C   UNL     1       6.824  28.500  56.283  1.00  0.00     0.035 A 
HETATM    2  C   UNL     1       6.386  29.606  57.024  1.00  0.00     0.046 A 
HETATM    3  C   UNL     1       7.312  30.338  57.800  1.00  0.00     0.030 A 
HETATM    4  C   UNL     1       8.642  29.936  57.813  1.00  0.00     0.063 A 
HETATM    5  N   UNL     1       9.280  30.821  58.634  1.00  0.00    -0.277 N 
HETATM    6  H   UNL     1      10.265  30.833  58.877  1.00  0.00     0.189 HD
HETATM    7  N   UNL     1       8.486  31.768  59.159  1.00  0.00    -0.168 NA
HETATM    8  C   UNL     1       7.264  31.481  58.654  1.00  0.00     0.156 A 
HETATM    9  C   UNL     1       9.113  28.837  57.093  1.00  0.00     0.034 A 
HETATM   10  C   UNL     1       8.175  28.129  56.329  1.00  0.00     0.032 A 
ENDROOT
BRANCH   1  11
HETATM   11  N   UNL     1       5.977  27.709  55.477  1.00  0.00    -0.327 N 
HETATM   12  C   UNL     1       6.128  27.410  54.143  1.00  0.00     0.227 C 
HETATM   13  O   UNL     1       7.058  27.722  53.414  1.00  0.00    -0.273 OA
HETATM   14  H   UNL     1       5.175  27.306  55.940  1.00  0.00     0.169 HD
BRANCH  12  15
HETATM   15  C   UNL     1       5.058  26.547  53.566  1.00  0.00     0.087 A 
HETATM   16  C   UNL     1       5.143  25.028  53.571  1.00  0.00     0.034 A 
HETATM   17  C   UNL     1       5.166  25.800  52.269  1.00  0.00     0.025 A 
BRANCH  16  18
HETATM   18  C   UNL     1       6.378  24.226  53.958  1.00  0.00    -0.031 A 
HETATM   19  C   UNL     1       7.229  23.687  52.974  1.00  0.00     0.009 A 
HETATM   20  C   UNL     1       8.373  22.951  53.303  1.00  0.00     0.001 A 
HETATM   21  C   UNL     1       8.717  22.755  54.635  1.00  0.00     0.002 A 
HETATM   22  C   UNL     1       7.924  23.305  55.635  1.00  0.00     0.024 A 
HETATM   23  C   UNL     1       6.776  24.036  55.300  1.00  0.00     0.040 A 
HETATM   24 CL   UNL     1       5.877  24.729  56.609  1.00  0.00    -0.084 Cl
ENDBRANCH  16  18
ENDBRANCH  12  15
ENDBRANCH   1  11
BRANCH   8  25
HETATM   25  C   UNL     1       6.091  32.299  58.995  1.00  0.00     0.270 C 
HETATM   26  N   UNL     1       5.564  32.032  60.230  1.00  0.00    -0.365 N 
HETATM   27  H   UNL     1       6.004  31.320  60.800  1.00  0.00     0.159 HD
HETATM   28  H   UNL     1       4.762  32.549  60.552  1.00  0.00     0.159 HD
HETATM   29  O   UNL     1       5.598  33.154  58.267  1.00  0.00    -0.266 OA
ENDBRANCH   8  25
TORSDOF 4
ENDMDL
MODEL 3
REMARK VINA RESULT:      -8.8      5.027      6.885
REMARK  4 active torsions:
REMARK  status: ('A' for Active; 'I' for Inactive)
REMARK    1  A    between atoms: C_3  and  C_4 
REMARK    2  A    between atoms: C_5  and  C_6 
REMARK       I    between atoms: C_6  and  N_7 
REMARK    3  A    between atoms: N_7  and  C_8 
REMARK    4  A    between atoms: C_15  and  C_16 
REMARK       I    between atoms: C_16  and  N_17 
ROOT
HETATM    1  C   UNL     1       6.388  26.600  52.679  1.00  0.00     0.035 A 
HETATM    2  C   UNL     1       6.229  27.932  52.273  1.00  0.00     0.046 A 
HETATM    3  C   UNL     1       5.453  28.225  51.129  1.00  0.00     0.030 A 
HETATM    4  C   UNL     1       4.868  27.177  50.429  1.00  0.00     0.063 A 
HETATM    5  N   UNL     1       4.194  27.763  49.395  1.00  0.00    -0.277 N 
HETATM    6  H   UNL     1       3.648  27.299  48.677  1.00  0.00     0.189 HD
HETATM    7  N   UNL     1       4.285  29.102  49.358  1.00  0.00    -0.168 NA
HETATM    8  C   UNL     1       5.063  29.403  50.424  1.00  0.00     0.156 A 
HETATM    9  C   UNL     1       5.011  25.839  50.801  1.00  0.00     0.034 A 
HETATM   10  C   UNL     1       5.782  25.575  51.940  1.00  0.00     0.032 A 
ENDROOT
BRANCH   1  11
HETATM   11  N   UNL     1       7.140  26.208  53.808  1.00  0.00    -0.327 N 
HETATM   12  C   UNL     1       6.681  25.592  54.949  1.00  0.00     0.227 C 
HETATM   13  O   UNL     1       5.543  25.210  55.178  1.00  0.00    -0.273 OA
HETATM   14  H   UNL     1       8.132  26.390  53.764  1.00  0.00     0.169 HD
BRANCH  12  15
HETATM   15  C   UNL     1       7.725  25.305  55.974  1.00  0.00     0.087 A 
HETATM   16  C   UNL     1       8.561  24.034  55.954  1.00  0.00     0.034 A 
HETATM   17  C   UNL     1       7.586  24.302  57.081  1.00  0.00     0.025 A 
BRANCH  16  18
HETATM   18  C   UNL     1       8.306  22.837  55.047  1.00  0.00    -0.031 A 
HETATM   19  C   UNL     1       8.238  22.989  53.650  1.00  0.00     0.009 A 
HETATM   20  C   UNL     1       8.010  21.905  52.794  1.00  0.00     0.001 A 
HETATM   21  C   UNL     1       7.871  20.624  53.314  1.00  0.00     0.002 A 
HETATM   22  C   UNL     1       7.971  20.428  54.687  1.00  0.00     0.024 A 
HETATM   23  C   UNL     1       8.192  21.518  55.538  1.00  0.00     0.040 A 
HETATM   24 CL   UNL     1       8.356  21.173  57.229  1.00  0.00    -0.084 Cl
ENDBRANCH  16  18
ENDBRANCH  12  15
ENDBRANCH   1  11
BRANCH   8  25
HETATM   25  C   UNL     1       5.410  30.796  50.740  1.00  0.00     0.270 C 
HETATM   26  N   UNL     1       4.734  31.310  51.814  1.00  0.00    -0.365 N 
HETATM   27  H   UNL     1       4.071  30.717  52.297  1.00  0.00     0.159 HD
HETATM   28  H   UNL     1       4.913  32.256  52.109  1.00  0.00     0.159 HD
HETATM   29  O   UNL     1       6.227  31.471  50.123  1.00  0.00    -0.266 OA
ENDBRANCH   8  25
TORSDOF 4
ENDMDL
MODEL 4
REMARK VINA RESULT:      -8.8      4.544      6.667
REMARK  4 active torsions:
REMARK  status: ('A' for Active; 'I' for Inactive)
REMARK    1  A    between atoms: C_3  and  C_4 
REMARK    2  A    between atoms: C_5  and  C_6 
REMARK       I    between atoms: C_6  and  N_7 
REMARK    3  A    between atoms: N_7  and  C_8 
REMARK    4  A    between atoms: C_15  and  C_16 
REMARK       I    between atoms: C_16  and  N_17 
ROOT
HETATM    1  C   UNL     1       6.012  27.221  54.782  1.00  0.00     0.035 A 
HETATM    2  C   UNL     1       5.815  27.136  53.397  1.00  0.00     0.046 A 
HETATM    3  C   UNL     1       4.753  27.851  52.798  1.00  0.00     0.030 A 
HETATM    4  C   UNL     1       3.925  28.622  53.604  1.00  0.00     0.063 A 
HETATM    5  N   UNL     1       3.013  29.183  52.756  1.00  0.00    -0.277 N 
HETATM    6  H   UNL     1       2.253  29.809  52.999  1.00  0.00     0.189 HD
HETATM    7  N   UNL     1       3.172  28.848  51.465  1.00  0.00    -0.168 NA
HETATM    8  C   UNL     1       4.244  28.022  51.475  1.00  0.00     0.156 A 
HETATM    9  C   UNL     1       4.089  28.726  54.987  1.00  0.00     0.034 A 
HETATM   10  C   UNL     1       5.149  28.009  55.556  1.00  0.00     0.032 A 
ENDROOT
BRANCH   1  11
HETATM   11  N   UNL     1       7.045  26.548  55.471  1.00  0.00    -0.327 N 
HETATM   12  C   UNL     1       6.936  25.420  56.252  1.00  0.00     0.227 C 
HETATM   13  O   UNL     1       5.932  24.750  56.450  1.00  0.00    -0.273 OA
HETATM   14  H   UNL     1       7.972  26.932  55.364  1.00  0.00     0.169 HD
BRANCH  12  15
HETATM   15  C   UNL     1       8.213  24.945  56.853  1.00  0.00     0.087 A 
HETATM   16  C   UNL     1       9.036  23.822  56.239  1.00  0.00     0.034 A 
HETATM   17  C   UNL     1       8.382  23.650  57.594  1.00  0.00     0.025 A 
BRANCH  16  18
HETATM   18  C   UNL     1       8.575  22.928  55.096  1.00  0.00    -0.031 A 
HETATM   19  C   UNL     1       8.283  23.466  53.829  1.00  0.00     0.009 A 
HETATM   20  C   UNL     1       7.862  22.666  52.760  1.00  0.00     0.001 A 
HETATM   21  C   UNL     1       7.748  21.291  52.921  1.00  0.00     0.002 A 
HETATM   22  C   UNL     1       8.067  20.717  54.147  1.00  0.00     0.024 A 
HETATM   23  C   UNL     1       8.481  21.523  55.215  1.00  0.00     0.040 A 
HETATM   24 CL   UNL     1       8.907  20.717  56.688  1.00  0.00    -0.084 Cl
ENDBRANCH  16  18
ENDBRANCH  12  15
ENDBRANCH   1  11
BRANCH   8  25
HETATM   25  C   UNL     1       4.753  27.423  50.233  1.00  0.00     0.270 C 
HETATM   26  N   UNL     1       4.471  26.090  50.099  1.00  0.00    -0.365 N 
HETATM   27  H   UNL     1       3.951  25.629  50.836  1.00  0.00     0.159 HD
HETATM   28  H   UNL     1       4.774  25.597  49.275  1.00  0.00     0.159 HD
HETATM   29  O   UNL     1       5.376  28.029  49.368  1.00  0.00    -0.266 OA
ENDBRANCH   8  25
TORSDOF 4
ENDMDL
MODEL 5
REMARK VINA RESULT:      -8.7      2.985      4.202
REMARK  4 active torsions:
REMARK  status: ('A' for Active; 'I' for Inactive)
REMARK    1  A    between atoms: C_3  and  C_4 
REMARK    2  A    between atoms: C_5  and  C_6 
REMARK       I    between atoms: C_6  and  N_7 
REMARK    3  A    between atoms: N_7  and  C_8 
REMARK    4  A    between atoms: C_15  and  C_16 
REMARK       I    between atoms: C_16  and  N_17 
ROOT
HETATM    1  C   UNL     1       7.095  27.555  55.405  1.00  0.00     0.035 A 
HETATM    2  C   UNL     1       6.255  28.677  55.399  1.00  0.00     0.046 A 
HETATM    3  C   UNL     1       6.221  29.530  56.525  1.00  0.00     0.030 A 
HETATM    4  C   UNL     1       7.023  29.228  57.619  1.00  0.00     0.063 A 
HETATM    5  N   UNL     1       6.778  30.216  58.531  1.00  0.00    -0.277 N 
HETATM    6  H   UNL     1       7.192  30.317  59.452  1.00  0.00     0.189 HD
HETATM    7  N   UNL     1       5.888  31.137  58.130  1.00  0.00    -0.168 NA
HETATM    8  C   UNL     1       5.533  30.726  56.891  1.00  0.00     0.156 A 
HETATM    9  C   UNL     1       7.866  28.116  57.663  1.00  0.00     0.034 A 
HETATM   10  C   UNL     1       7.884  27.289  56.533  1.00  0.00     0.032 A 
ENDROOT
BRANCH   1  11
HETATM   11  N   UNL     1       7.201  26.647  54.329  1.00  0.00    -0.327 N 
HETATM   12  C   UNL     1       6.334  25.630  54.001  1.00  0.00     0.227 C 
HETATM   13  O   UNL     1       5.274  25.356  54.544  1.00  0.00    -0.273 OA
HETATM   14  H   UNL     1       7.999  26.770  53.723  1.00  0.00     0.169 HD
BRANCH  12  15
HETATM   15  C   UNL     1       6.722  24.835  52.801  1.00  0.00     0.087 A 
HETATM   16  C   UNL     1       7.299  23.431  52.905  1.00  0.00     0.034 A 
HETATM   17  C   UNL     1       8.134  24.574  52.366  1.00  0.00     0.025 A 
BRANCH  16  18
HETATM   18  C   UNL     1       7.739  22.762  54.201  1.00  0.00    -0.031 A 
HETATM   19  C   UNL     1       7.783  23.484  55.409  1.00  0.00     0.009 A 
HETATM   20  C   UNL     1       8.178  22.892  56.614  1.00  0.00     0.001 A 
HETATM   21  C   UNL     1       8.517  21.545  56.651  1.00  0.00     0.002 A 
HETATM   22  C   UNL     1       8.449  20.790  55.486  1.00  0.00     0.024 A 
HETATM   23  C   UNL     1       8.058  21.389  54.282  1.00  0.00     0.040 A 
HETATM   24 CL   UNL     1       7.950  20.360  52.891  1.00  0.00    -0.084 Cl
ENDBRANCH  16  18
ENDBRANCH  12  15
ENDBRANCH   1  11
BRANCH   8  25
HETATM   25  C   UNL     1       4.553  31.478  56.093  1.00  0.00     0.270 C 
HETATM   26  N   UNL     1       5.077  32.058  54.968  1.00  0.00    -0.365 N 
HETATM   27  H   UNL     1       6.062  31.930  54.772  1.00  0.00     0.159 HD
HETATM   28  H   UNL     1       4.478  32.587  54.356  1.00  0.00     0.159 HD
HETATM   29  O   UNL     1       3.366  31.599  56.374  1.00  0.00    -0.266 OA
ENDBRANCH   8  25
TORSDOF 4
ENDMDL
MODEL 6
REMARK VINA RESULT:      -8.7      2.756      4.178
REMARK  4 active torsions:
REMARK  status: ('A' for Active; 'I' for Inactive)
REMARK    1  A    between atoms: C_3  and  C_4 
REMARK    2  A    between atoms: C_5  and  C_6 
REMARK       I    between atoms: C_6  and  N_7 
REMARK    3  A    between atoms: N_7  and  C_8 
REMARK    4  A    between atoms: C_15  and  C_16 
REMARK       I    between atoms: C_16  and  N_17 
ROOT
HETATM    1  C   UNL     1       6.126  27.898  54.540  1.00  0.00     0.035 A 
HETATM    2  C   UNL     1       6.888  28.327  55.636  1.00  0.00     0.046 A 
HETATM    3  C   UNL     1       6.358  29.296  56.517  1.00  0.00     0.030 A 
HETATM    4  C   UNL     1       5.089  29.805  56.270  1.00  0.00     0.063 A 
HETATM    5  N   UNL     1       4.857  30.702  57.274  1.00  0.00    -0.277 N 
HETATM    6  H   UNL     1       4.025  31.266  57.412  1.00  0.00     0.189 HD
HETATM    7  N   UNL     1       5.861  30.824  58.157  1.00  0.00    -0.168 NA
HETATM    8  C   UNL     1       6.799  29.961  57.701  1.00  0.00     0.156 A 
HETATM    9  C   UNL     1       4.305  29.406  55.186  1.00  0.00     0.034 A 
HETATM   10  C   UNL     1       4.852  28.442  54.329  1.00  0.00     0.032 A 
ENDROOT
BRANCH   1  11
HETATM   11  N   UNL     1       6.566  26.934  53.607  1.00  0.00    -0.327 N 
HETATM   12  C   UNL     1       6.004  25.706  53.340  1.00  0.00     0.227 C 
HETATM   13  O   UNL     1       4.979  25.241  53.818  1.00  0.00    -0.273 OA
HETATM   14  H   UNL     1       7.380  27.182  53.064  1.00  0.00     0.169 HD
BRANCH  12  15
HETATM   15  C   UNL     1       6.705  24.906  52.297  1.00  0.00     0.087 A 
HETATM   16  C   UNL     1       7.497  23.649  52.627  1.00  0.00     0.034 A 
HETATM   17  C   UNL     1       8.191  24.883  52.088  1.00  0.00     0.025 A 
BRANCH  16  18
HETATM   18  C   UNL     1       7.843  23.182  54.034  1.00  0.00    -0.031 A 
HETATM   19  C   UNL     1       8.046  24.107  55.075  1.00  0.00     0.009 A 
HETATM   20  C   UNL     1       8.360  23.704  56.378  1.00  0.00     0.001 A 
HETATM   21  C   UNL     1       8.452  22.352  56.686  1.00  0.00     0.002 A 
HETATM   22  C   UNL     1       8.219  21.406  55.694  1.00  0.00     0.024 A 
HETATM   23  C   UNL     1       7.912  21.817  54.390  1.00  0.00     0.040 A 
HETATM   24 CL   UNL     1       7.585  20.570  53.231  1.00  0.00    -0.084 Cl
ENDBRANCH  16  18
ENDBRANCH  12  15
ENDBRANCH   1  11
BRANCH   8  25
HETATM   25  C   UNL     1       8.081  29.794  58.401  1.00  0.00     0.270 C 
HETATM   26  N   UNL     1       8.035  30.107  59.733  1.00  0.00    -0.365 N 
HETATM   27  H   UNL     1       7.155  30.417  60.127  1.00  0.00     0.159 HD
HETATM   28  H   UNL     1       8.865  30.016  60.295  1.00  0.00     0.159 HD
HETATM   29  O   UNL     1       9.120  29.410  57.876  1.00  0.00    -0.266 OA
ENDBRANCH   8  25
TORSDOF 4
ENDMDL
MODEL 7
REMARK VINA RESULT:      -8.4      4.650      5.863
REMARK  4 active torsions:
REMARK  status: ('A' for Active; 'I' for Inactive)
REMARK    1  A    between atoms: C_3  and  C_4 
REMARK    2  A    between atoms: C_5  and  C_6 
REMARK       I    between atoms: C_6  and  N_7 
REMARK    3  A    between atoms: N_7  and  C_8 
REMARK    4  A    between atoms: C_15  and  C_16 
REMARK       I    between atoms: C_16  and  N_17 
ROOT
HETATM    1  C   UNL     1       6.252  26.769  53.987  1.00  0.00     0.035 A 
HETATM    2  C   UNL     1       5.614  27.990  54.244  1.00  0.00     0.046 A 
HETATM    3  C   UNL     1       4.655  28.483  53.331  1.00  0.00     0.030 A 
HETATM    4  C   UNL     1       4.372  27.740  52.190  1.00  0.00     0.063 A 
HETATM    5  N   UNL     1       3.425  28.457  51.517  1.00  0.00    -0.277 N 
HETATM    6  H   UNL     1       2.983  28.215  50.637  1.00  0.00     0.189 HD
HETATM    7  N   UNL     1       3.062  29.603  52.116  1.00  0.00    -0.168 NA
HETATM    8  C   UNL     1       3.817  29.634  53.239  1.00  0.00     0.156 A 
HETATM    9  C   UNL     1       4.993  26.523  51.900  1.00  0.00     0.034 A 
HETATM   10  C   UNL     1       5.937  26.056  52.823  1.00  0.00     0.032 A 
ENDROOT
BRANCH   1  11
HETATM   11  N   UNL     1       7.220  26.194  54.840  1.00  0.00    -0.327 N 
HETATM   12  C   UNL     1       7.004  25.347  55.903  1.00  0.00     0.227 C 
HETATM   13  O   UNL     1       5.937  24.882  56.275  1.00  0.00    -0.273 OA
HETATM   14  H   UNL     1       8.182  26.421  54.635  1.00  0.00     0.169 HD
BRANCH  12  15
HETATM   15  C   UNL     1       8.236  24.908  56.619  1.00  0.00     0.087 A 
HETATM   16  C   UNL     1       9.044  23.695  56.182  1.00  0.00     0.034 A 
HETATM   17  C   UNL     1       8.324  23.708  57.515  1.00  0.00     0.025 A 
BRANCH  16  18
HETATM   18  C   UNL     1       8.603  22.686  55.131  1.00  0.00    -0.031 A 
HETATM   19  C   UNL     1       8.400  23.075  53.794  1.00  0.00     0.009 A 
HETATM   20  C   UNL     1       8.000  22.166  52.808  1.00  0.00     0.001 A 
HETATM   21  C   UNL     1       7.817  20.826  53.128  1.00  0.00     0.002 A 
HETATM   22  C   UNL     1       8.046  20.396  54.430  1.00  0.00     0.024 A 
HETATM   23  C   UNL     1       8.440  21.311  55.414  1.00  0.00     0.040 A 
HETATM   24 CL   UNL     1       8.755  20.677  56.996  1.00  0.00    -0.084 Cl
ENDBRANCH  16  18
ENDBRANCH  12  15
ENDBRANCH   1  11
BRANCH   8  25
HETATM   25  C   UNL     1       3.718  30.751  54.189  1.00  0.00     0.270 C 
HETATM   26  N   UNL     1       2.521  31.415  54.148  1.00  0.00    -0.365 N 
HETATM   27  H   UNL     1       1.815  31.100  53.495  1.00  0.00     0.159 HD
HETATM   28  H   UNL     1       2.360  32.191  54.770  1.00  0.00     0.159 HD
HETATM   29  O   UNL     1       4.605  31.091  54.965  1.00  0.00    -0.266 OA
ENDBRANCH   8  25
TORSDOF 4
ENDMDL
MODEL 8
REMARK VINA RESULT:      -8.3      4.045      6.941
REMARK  4 active torsions:
REMARK  status: ('A' for Active; 'I' for Inactive)
REMARK    1  A    between atoms: C_3  and  C_4 
REMARK    2  A    between atoms: C_5  and  C_6 
REMARK       I    between atoms: C_6  and  N_7 
REMARK    3  A    between atoms: N_7  and  C_8 
REMARK    4  A    between atoms: C_15  and  C_16 
REMARK       I    between atoms: C_16  and  N_17 
ROOT
HETATM    1  C   UNL     1       7.388  32.672  61.681  1.00  0.00     0.035 A 
HETATM    2  C   UNL     1       6.023  32.986  61.647  1.00  0.00     0.046 A 
HETATM    3  C   UNL     1       5.323  33.188  62.858  1.00  0.00     0.030 A 
HETATM    4  C   UNL     1       6.011  33.064  64.059  1.00  0.00     0.063 A 
HETATM    5  N   UNL     1       5.086  33.313  65.033  1.00  0.00    -0.277 N 
HETATM    6  H   UNL     1       5.236  33.310  66.036  1.00  0.00     0.189 HD
HETATM    7  N   UNL     1       3.854  33.590  64.576  1.00  0.00    -0.168 NA
HETATM    8  C   UNL     1       3.984  33.515  63.231  1.00  0.00     0.156 A 
HETATM    9  C   UNL     1       7.368  32.747  64.130  1.00  0.00     0.034 A 
HETATM   10  C   UNL     1       8.040  32.554  62.916  1.00  0.00     0.032 A 
ENDROOT
BRANCH   1  11
HETATM   11  N   UNL     1       8.173  32.456  60.527  1.00  0.00    -0.327 N 
HETATM   12  C   UNL     1       8.770  31.283  60.126  1.00  0.00     0.227 C 
HETATM   13  O   UNL     1       8.685  30.188  60.662  1.00  0.00    -0.273 OA
HETATM   14  H   UNL     1       8.297  33.253  59.920  1.00  0.00     0.169 HD
BRANCH  12  15
HETATM   15  C   UNL     1       9.543  31.372  58.855  1.00  0.00     0.087 A 
HETATM   16  C   UNL     1       9.082  30.695  57.571  1.00  0.00     0.034 A 
HETATM   17  C   UNL     1      10.354  30.256  58.265  1.00  0.00     0.025 A 
BRANCH  16  18
HETATM   18  C   UNL     1       7.932  29.702  57.474  1.00  0.00    -0.031 A 
HETATM   19  C   UNL     1       8.174  28.317  57.424  1.00  0.00     0.009 A 
HETATM   20  C   UNL     1       7.135  27.383  57.339  1.00  0.00     0.001 A 
HETATM   21  C   UNL     1       5.812  27.810  57.331  1.00  0.00     0.002 A 
HETATM   22  C   UNL     1       5.532  29.169  57.419  1.00  0.00     0.024 A 
HETATM   23  C   UNL     1       6.576  30.099  57.497  1.00  0.00     0.040 A 
HETATM   24 CL   UNL     1       6.133  31.767  57.657  1.00  0.00    -0.084 Cl
ENDBRANCH  16  18
ENDBRANCH  12  15
ENDBRANCH   1  11
BRANCH   8  25
HETATM   25  C   UNL     1       2.837  33.755  62.343  1.00  0.00     0.270 C 
HETATM   26  N   UNL     1       1.695  34.133  62.997  1.00  0.00    -0.365 N 
HETATM   27  H   UNL     1       1.720  34.219  64.005  1.00  0.00     0.159 HD
HETATM   28  H   UNL     1       0.860  34.326  62.468  1.00  0.00     0.159 HD
HETATM   29  O   UNL     1       2.861  33.641  61.123  1.00  0.00    -0.266 OA
ENDBRANCH   8  25
TORSDOF 4
ENDMDL
MODEL 9
REMARK VINA RESULT:      -8.3      6.208     10.118
REMARK  4 active torsions:
REMARK  status: ('A' for Active; 'I' for Inactive)
REMARK    1  A    between atoms: C_3  and  C_4 
REMARK    2  A    between atoms: C_5  and  C_6 
REMARK       I    between atoms: C_6  and  N_7 
REMARK    3  A    between atoms: N_7  and  C_8 
REMARK    4  A    between atoms: C_15  and  C_16 
REMARK       I    between atoms: C_16  and  N_17 
ROOT
HETATM    1  C   UNL     1       7.356  32.466  62.426  1.00  0.00     0.035 A 
HETATM    2  C   UNL     1       6.763  32.265  61.172  1.00  0.00     0.046 A 
HETATM    3  C   UNL     1       7.509  31.661  60.135  1.00  0.00     0.030 A 
HETATM    4  C   UNL     1       8.823  31.284  60.386  1.00  0.00     0.063 A 
HETATM    5  N   UNL     1       9.272  30.739  59.217  1.00  0.00    -0.277 N 
HETATM    6  H   UNL     1      10.193  30.355  59.034  1.00  0.00     0.189 HD
HETATM    7  N   UNL     1       8.369  30.724  58.223  1.00  0.00    -0.168 NA
HETATM    8  C   UNL     1       7.273  31.294  58.775  1.00  0.00     0.156 A 
HETATM    9  C   UNL     1       9.448  31.474  61.620  1.00  0.00     0.034 A 
HETATM   10  C   UNL     1       8.686  32.072  62.631  1.00  0.00     0.032 A 
ENDROOT
BRANCH   1  11
HETATM   11  N   UNL     1       6.693  33.056  63.523  1.00  0.00    -0.327 N 
HETATM   12  C   UNL     1       5.453  32.736  64.025  1.00  0.00     0.227 C 
HETATM   13  O   UNL     1       4.713  31.835  63.654  1.00  0.00    -0.273 OA
HETATM   14  H   UNL     1       7.195  33.790  64.001  1.00  0.00     0.169 HD
BRANCH  12  15
HETATM   15  C   UNL     1       5.019  33.547  65.198  1.00  0.00     0.087 A 
HETATM   16  C   UNL     1       4.373  34.917  65.048  1.00  0.00     0.034 A 
HETATM   17  C   UNL     1       5.729  34.768  65.705  1.00  0.00     0.025 A 
BRANCH  16  18
HETATM   18  C   UNL     1       4.283  35.700  63.746  1.00  0.00    -0.031 A 
HETATM   19  C   UNL     1       5.238  36.683  63.424  1.00  0.00     0.009 A 
HETATM   20  C   UNL     1       5.181  37.413  62.232  1.00  0.00     0.001 A 
HETATM   21  C   UNL     1       4.176  37.160  61.307  1.00  0.00     0.002 A 
HETATM   22  C   UNL     1       3.237  36.170  61.570  1.00  0.00     0.024 A 
HETATM   23  C   UNL     1       3.295  35.446  62.768  1.00  0.00     0.040 A 
HETATM   24 CL   UNL     1       2.116  34.195  62.989  1.00  0.00    -0.084 Cl
ENDBRANCH  16  18
ENDBRANCH  12  15
ENDBRANCH   1  11
BRANCH   8  25
HETATM   25  C   UNL     1       6.037  31.471  57.999  1.00  0.00     0.270 C 
HETATM   26  N   UNL     1       5.209  30.381  58.011  1.00  0.00    -0.365 N 
HETATM   27  H   UNL     1       5.494  29.563  58.535  1.00  0.00     0.159 HD
HETATM   28  H   UNL     1       4.335  30.413  57.511  1.00  0.00     0.159 HD
HETATM   29  O   UNL     1       5.737  32.488  57.383  1.00  0.00    -0.266 OA
ENDBRANCH   8  25
TORSDOF 4
ENDMDL
MODEL 10
REMARK VINA RESULT:      -8.3      5.908      9.199
REMARK  4 active torsions:
REMARK  status: ('A' for Active; 'I' for Inactive)
REMARK    1  A    between atoms: C_3  and  C_4 
REMARK    2  A    between atoms: C_5  and  C_6 
REMARK       I    between atoms: C_6  and  N_7 
REMARK    3  A    between atoms: N_7  and  C_8 
REMARK    4  A    between atoms: C_15  and  C_16 
REMARK       I    between atoms: C_16  and  N_17 
ROOT
HETATM    1  C   UNL     1       5.329  26.846  50.759  1.00  0.00     0.035 A 
HETATM    2  C   UNL     1       4.533  26.486  49.662  1.00  0.00     0.046 A 
HETATM    3  C   UNL     1       3.905  27.494  48.895  1.00  0.00     0.030 A 
HETATM    4  C   UNL     1       4.090  28.824  49.255  1.00  0.00     0.063 A 
HETATM    5  N   UNL     1       3.375  29.548  48.344  1.00  0.00    -0.277 N 
HETATM    6  H   UNL     1       3.282  30.557  48.299  1.00  0.00     0.189 HD
HETATM    7  N   UNL     1       2.739  28.810  47.419  1.00  0.00    -0.168 NA
HETATM    8  C   UNL     1       3.056  27.536  47.749  1.00  0.00     0.156 A 
HETATM    9  C   UNL     1       4.870  29.217  50.343  1.00  0.00     0.034 A 
HETATM   10  C   UNL     1       5.484  28.200  51.085  1.00  0.00     0.032 A 
ENDROOT
BRANCH   1  11
HETATM   11  N   UNL     1       5.998  25.914  51.582  1.00  0.00    -0.327 N 
HETATM   12  C   UNL     1       5.450  25.102  52.548  1.00  0.00     0.227 C 
HETATM   13  O   UNL     1       4.267  24.989  52.837  1.00  0.00    -0.273 OA
HETATM   14  H   UNL     1       6.992  25.825  51.432  1.00  0.00     0.169 HD
BRANCH  12  15
HETATM   15  C   UNL     1       6.421  24.222  53.257  1.00  0.00     0.087 A 
HETATM   16  C   UNL     1       7.089  24.628  54.562  1.00  0.00     0.034 A 
HETATM   17  C   UNL     1       7.905  24.443  53.300  1.00  0.00     0.025 A 
BRANCH  16  18
HETATM   18  C   UNL     1       7.020  26.018  55.181  1.00  0.00    -0.031 A 
HETATM   19  C   UNL     1       7.718  27.100  54.612  1.00  0.00     0.009 A 
HETATM   20  C   UNL     1       7.667  28.387  55.157  1.00  0.00     0.001 A 
HETATM   21  C   UNL     1       6.888  28.638  56.280  1.00  0.00     0.002 A 
HETATM   22  C   UNL     1       6.153  27.604  56.848  1.00  0.00     0.024 A 
HETATM   23  C   UNL     1       6.213  26.316  56.301  1.00  0.00     0.040 A 
HETATM   24 CL   UNL     1       5.222  25.101  57.041  1.00  0.00    -0.084 Cl
ENDBRANCH  16  18
ENDBRANCH  12  15
ENDBRANCH   1  11
BRANCH   8  25
HETATM   25  C   UNL     1       2.545  26.401  46.967  1.00  0.00     0.270 C 
HETATM   26  N   UNL     1       1.313  26.615  46.410  1.00  0.00    -0.365 N 
HETATM   27  H   UNL     1       0.859  27.507  46.567  1.00  0.00     0.159 HD
HETATM   28  H   UNL     1       0.887  25.895  45.850  1.00  0.00     0.159 HD
HETATM   29  O   UNL     1       3.139  25.341  46.803  1.00  0.00    -0.266 OA
ENDBRANCH   8  25
TORSDOF 4
ENDMDL
