MODEL 1
REMARK VINA RESULT:      -9.8      0.000      0.000
REMARK  4 active torsions:
REMARK  status: ('A' for Active; 'I' for Inactive)
REMARK    1  A    between atoms: C_2  and  C_3 
REMARK    2  A    between atoms: C_8  and  N_9 
REMARK       I    between atoms: N_9  and  C_10 
REMARK       I    between atoms: C_10  and  N_11 
REMARK    3  A    between atoms: N_11  and  C_12 
REMARK    4  A    between atoms: C_12  and  C_13 
ROOT
HETATM    1  N   UNL     1       8.229  28.602  56.604  1.00  0.00    -0.305 N 
HETATM    2  C   UNL     1       7.949  27.356  57.113  1.00  0.00     0.321 C 
HETATM    3  N   UNL     1       7.688  26.459  56.101  1.00  0.00    -0.339 N 
HETATM    4  O   UNL     1       7.890  27.055  58.296  1.00  0.00    -0.247 OA
HETATM    5  H   UNL     1       7.879  28.785  55.676  1.00  0.00     0.171 HD
HETATM    6  H   UNL     1       8.104  26.650  55.203  1.00  0.00     0.164 HD
ENDROOT
BRANCH   3   7
HETATM    7  C   UNL     1       7.367  25.073  56.378  1.00  0.00     0.163 C 
BRANCH   7   8
HETATM    8  C   UNL     1       7.549  24.217  55.144  1.00  0.00    -0.029 A 
HETATM    9  C   UNL     1       7.878  22.833  55.211  1.00  0.00    -0.018 A 
HETATM   10  C   UNL     1       8.036  22.111  54.000  1.00  0.00    -0.025 A 
HETATM   11  C   UNL     1       8.057  22.120  56.420  1.00  0.00     0.013 A 
HETATM   12  C   UNL     1       8.347  20.741  54.029  1.00  0.00     0.012 A 
HETATM   13  C   UNL     1       7.882  22.765  52.768  1.00  0.00     0.012 A 
HETATM   14  C   UNL     1       8.511  20.068  55.237  1.00  0.00     0.001 A 
HETATM   15  C   UNL     1       8.368  20.758  56.433  1.00  0.00     0.001 A 
HETATM   16  C   UNL     1       7.576  24.121  52.711  1.00  0.00     0.002 A 
HETATM   17  C   UNL     1       7.413  24.842  53.889  1.00  0.00     0.010 A 
ENDBRANCH   7   8
ENDBRANCH   3   7
BRANCH   1  18
HETATM   18  C   UNL     1       8.670  29.698  57.331  1.00  0.00     0.095 A 
HETATM   19  C   UNL     1       7.815  30.591  57.943  1.00  0.00     0.107 A 
HETATM   20  O   UNL     1       8.536  31.562  58.559  1.00  0.00    -0.215 OA
HETATM   21  N   UNL     1       9.879  31.337  58.358  1.00  0.00    -0.131 NA
HETATM   22  C   UNL     1       9.964  30.223  57.616  1.00  0.00     0.087 A 
HETATM   23  C   UNL     1      11.308  29.765  57.192  1.00  0.00     0.075 C 
BRANCH  19  24
HETATM   24  C   UNL     1       6.343  30.702  58.086  1.00  0.00     0.065 C 
HETATM   25  C   UNL     1       5.939  32.008  58.747  1.00  0.00     0.012 C 
ENDBRANCH  19  24
ENDBRANCH   1  18
TORSDOF 4
ENDMDL
MODEL 2
REMARK VINA RESULT:      -9.7      1.709      2.961
REMARK  4 active torsions:
REMARK  status: ('A' for Active; 'I' for Inactive)
REMARK    1  A    between atoms: C_2  and  C_3 
REMARK    2  A    between atoms: C_8  and  N_9 
REMARK       I    between atoms: N_9  and  C_10 
REMARK       I    between atoms: C_10  and  N_11 
REMARK    3  A    between atoms: N_11  and  C_12 
REMARK    4  A    between atoms: C_12  and  C_13 
ROOT
HETATM    1  N   UNL     1       8.122  29.147  58.294  1.00  0.00    -0.305 N 
HETATM    2  C   UNL     1       7.611  28.611  57.136  1.00  0.00     0.321 C 
HETATM    3  N   UNL     1       6.745  27.578  57.413  1.00  0.00    -0.339 N 
HETATM    4  O   UNL     1       7.893  28.952  55.997  1.00  0.00    -0.247 OA
HETATM    5  H   UNL     1       8.101  28.544  59.103  1.00  0.00     0.171 HD
HETATM    6  H   UNL     1       6.283  27.596  58.309  1.00  0.00     0.164 HD
ENDROOT
BRANCH   3   7
HETATM    7  C   UNL     1       6.070  26.848  56.359  1.00  0.00     0.163 C 
BRANCH   7   8
HETATM    8  C   UNL     1       6.857  25.619  55.959  1.00  0.00    -0.029 A 
HETATM    9  C   UNL     1       7.116  25.281  54.600  1.00  0.00    -0.018 A 
HETATM   10  C   UNL     1       7.857  24.103  54.322  1.00  0.00    -0.025 A 
HETATM   11  C   UNL     1       6.680  26.051  53.496  1.00  0.00     0.013 A 
HETATM   12  C   UNL     1       8.142  23.747  52.993  1.00  0.00     0.012 A 
HETATM   13  C   UNL     1       8.307  23.292  55.373  1.00  0.00     0.012 A 
HETATM   14  C   UNL     1       7.703  24.531  51.929  1.00  0.00     0.001 A 
HETATM   15  C   UNL     1       6.970  25.682  52.180  1.00  0.00     0.001 A 
HETATM   16  C   UNL     1       8.036  23.622  56.698  1.00  0.00     0.002 A 
HETATM   17  C   UNL     1       7.315  24.774  56.989  1.00  0.00     0.010 A 
ENDBRANCH   7   8
ENDBRANCH   3   7
BRANCH   1  18
HETATM   18  C   UNL     1       8.911  30.284  58.386  1.00  0.00     0.095 A 
HETATM   19  C   UNL     1       8.495  31.444  59.008  1.00  0.00     0.107 A 
HETATM   20  O   UNL     1       9.472  32.382  58.921  1.00  0.00    -0.215 OA
HETATM   21  N   UNL     1      10.546  31.868  58.233  1.00  0.00    -0.131 NA
HETATM   22  C   UNL     1      10.212  30.611  57.904  1.00  0.00     0.087 A 
HETATM   23  C   UNL     1      11.170  29.820  57.096  1.00  0.00     0.075 C 
BRANCH  19  24
HETATM   24  C   UNL     1       7.273  31.860  59.739  1.00  0.00     0.065 C 
HETATM   25  C   UNL     1       7.607  32.467  61.090  1.00  0.00     0.012 C 
ENDBRANCH  19  24
ENDBRANCH   1  18
TORSDOF 4
ENDMDL
MODEL 3
REMARK VINA RESULT:      -9.6      0.999      2.329
REMARK  4 active torsions:
REMARK  status: ('A' for Active; 'I' for Inactive)
REMARK    1  A    between atoms: C_2  and  C_3 
REMARK    2  A    between atoms: C_8  and  N_9 
REMARK       I    between atoms: N_9  and  C_10 
REMARK       I    between atoms: C_10  and  N_11 
REMARK    3  A    between atoms: N_11  and  C_12 
REMARK    4  A    between atoms: C_12  and  C_13 
ROOT
HETATM    1  N   UNL     1       7.041  29.070  56.902  1.00  0.00    -0.305 N 
HETATM    2  C   UNL     1       7.325  27.759  57.205  1.00  0.00     0.321 C 
HETATM    3  N   UNL     1       6.949  26.924  56.177  1.00  0.00    -0.339 N 
HETATM    4  O   UNL     1       7.809  27.348  58.249  1.00  0.00    -0.247 OA
HETATM    5  H   UNL     1       6.325  29.213  56.205  1.00  0.00     0.171 HD
HETATM    6  H   UNL     1       6.919  27.323  55.251  1.00  0.00     0.164 HD
ENDROOT
BRANCH   3   7
HETATM    7  C   UNL     1       7.146  25.491  56.251  1.00  0.00     0.163 C 
BRANCH   7   8
HETATM    8  C   UNL     1       7.390  24.904  54.878  1.00  0.00    -0.029 A 
HETATM    9  C   UNL     1       7.586  23.510  54.662  1.00  0.00    -0.018 A 
HETATM   10  C   UNL     1       7.816  23.052  53.339  1.00  0.00    -0.025 A 
HETATM   11  C   UNL     1       7.564  22.539  55.691  1.00  0.00     0.013 A 
HETATM   12  C   UNL     1       7.999  21.682  53.088  1.00  0.00     0.012 A 
HETATM   13  C   UNL     1       7.859  23.967  52.277  1.00  0.00     0.012 A 
HETATM   14  C   UNL     1       7.966  20.751  54.123  1.00  0.00     0.001 A 
HETATM   15  C   UNL     1       7.751  21.180  55.425  1.00  0.00     0.001 A 
HETATM   16  C   UNL     1       7.682  25.330  52.499  1.00  0.00     0.002 A 
HETATM   17  C   UNL     1       7.452  25.795  53.788  1.00  0.00     0.010 A 
ENDBRANCH   7   8
ENDBRANCH   3   7
BRANCH   1  18
HETATM   18  C   UNL     1       7.413  30.177  57.649  1.00  0.00     0.095 A 
HETATM   19  C   UNL     1       8.724  30.468  57.968  1.00  0.00     0.107 A 
HETATM   20  O   UNL     1       8.769  31.597  58.718  1.00  0.00    -0.215 OA
HETATM   21  N   UNL     1       7.493  32.070  58.920  1.00  0.00    -0.131 NA
HETATM   22  C   UNL     1       6.675  31.217  58.286  1.00  0.00     0.087 A 
HETATM   23  C   UNL     1       5.213  31.447  58.380  1.00  0.00     0.075 C 
BRANCH  19  24
HETATM   24  C   UNL     1      10.037  29.852  57.661  1.00  0.00     0.065 C 
HETATM   25  C   UNL     1      10.336  29.879  56.172  1.00  0.00     0.012 C 
ENDBRANCH  19  24
ENDBRANCH   1  18
TORSDOF 4
ENDMDL
MODEL 4
REMARK VINA RESULT:      -9.4      1.795      3.614
REMARK  4 active torsions:
REMARK  status: ('A' for Active; 'I' for Inactive)
REMARK    1  A    between atoms: C_2  and  C_3 
REMARK    2  A    between atoms: C_8  and  N_9 
REMARK       I    between atoms: N_9  and  C_10 
REMARK       I    between atoms: C_10  and  N_11 
REMARK    3  A    between atoms: N_11  and  C_12 
REMARK    4  A    between atoms: C_12  and  C_13 
ROOT
HETATM    1  N   UNL     1       8.048  29.170  58.493  1.00  0.00    -0.305 N 
HETATM    2  C   UNL     1       7.384  28.740  57.370  1.00  0.00     0.321 C 
HETATM    3  N   UNL     1       6.823  27.499  57.575  1.00  0.00    -0.339 N 
HETATM    4  O   UNL     1       7.312  29.331  56.302  1.00  0.00    -0.247 OA
HETATM    5  H   UNL     1       8.338  28.448  59.135  1.00  0.00     0.171 HD
HETATM    6  H   UNL     1       6.597  27.252  58.526  1.00  0.00     0.164 HD
ENDROOT
BRANCH   3   7
HETATM    7  C   UNL     1       6.065  26.827  56.539  1.00  0.00     0.163 C 
BRANCH   7   8
HETATM    8  C   UNL     1       6.814  25.622  56.014  1.00  0.00    -0.029 A 
HETATM    9  C   UNL     1       7.031  25.399  54.624  1.00  0.00    -0.018 A 
HETATM   10  C   UNL     1       7.738  24.236  54.224  1.00  0.00    -0.025 A 
HETATM   11  C   UNL     1       6.585  26.271  53.603  1.00  0.00     0.013 A 
HETATM   12  C   UNL     1       7.982  23.991  52.862  1.00  0.00     0.012 A 
HETATM   13  C   UNL     1       8.196  23.326  55.189  1.00  0.00     0.012 A 
HETATM   14  C   UNL     1       7.534  24.874  51.882  1.00  0.00     0.001 A 
HETATM   15  C   UNL     1       6.834  26.013  52.253  1.00  0.00     0.001 A 
HETATM   16  C   UNL     1       7.966  23.544  56.544  1.00  0.00     0.002 A 
HETATM   17  C   UNL     1       7.279  24.681  56.953  1.00  0.00     0.010 A 
ENDBRANCH   7   8
ENDBRANCH   3   7
BRANCH   1  18
HETATM   18  C   UNL     1       8.605  30.427  58.678  1.00  0.00     0.095 A 
HETATM   19  C   UNL     1       9.856  30.775  58.212  1.00  0.00     0.107 A 
HETATM   20  O   UNL     1      10.131  32.058  58.562  1.00  0.00    -0.215 OA
HETATM   21  N   UNL     1       9.075  32.579  59.273  1.00  0.00    -0.131 NA
HETATM   22  C   UNL     1       8.159  31.602  59.351  1.00  0.00     0.087 A 
HETATM   23  C   UNL     1       6.920  31.864  60.122  1.00  0.00     0.075 C 
BRANCH  19  24
HETATM   24  C   UNL     1      10.909  30.089  57.427  1.00  0.00     0.065 C 
HETATM   25  C   UNL     1      10.459  29.815  56.003  1.00  0.00     0.012 C 
ENDBRANCH  19  24
ENDBRANCH   1  18
TORSDOF 4
ENDMDL
MODEL 5
REMARK VINA RESULT:      -9.0      4.777      6.658
REMARK  4 active torsions:
REMARK  status: ('A' for Active; 'I' for Inactive)
REMARK    1  A    between atoms: C_2  and  C_3 
REMARK    2  A    between atoms: C_8  and  N_9 
REMARK       I    between atoms: N_9  and  C_10 
REMARK       I    between atoms: C_10  and  N_11 
REMARK    3  A    between atoms: N_11  and  C_12 
REMARK    4  A    between atoms: C_12  and  C_13 
ROOT
HETATM    1  N   UNL     1       5.584  27.322  51.203  1.00  0.00    -0.305 N 
HETATM    2  C   UNL     1       5.788  25.984  51.441  1.00  0.00     0.321 C 
HETATM    3  N   UNL     1       7.111  25.730  51.722  1.00  0.00    -0.339 N 
HETATM    4  O   UNL     1       4.943  25.103  51.381  1.00  0.00    -0.247 OA
HETATM    5  H   UNL     1       6.398  27.846  50.920  1.00  0.00     0.171 HD
HETATM    6  H   UNL     1       7.648  26.488  52.114  1.00  0.00     0.164 HD
ENDROOT
BRANCH   3   7
HETATM    7  C   UNL     1       7.584  24.392  52.012  1.00  0.00     0.163 C 
BRANCH   7   8
HETATM    8  C   UNL     1       7.662  24.154  53.504  1.00  0.00    -0.029 A 
HETATM    9  C   UNL     1       7.858  22.861  54.067  1.00  0.00    -0.018 A 
HETATM   10  C   UNL     1       7.910  22.734  55.479  1.00  0.00    -0.025 A 
HETATM   11  C   UNL     1       8.008  21.680  53.303  1.00  0.00     0.013 A 
HETATM   12  C   UNL     1       8.116  21.475  56.068  1.00  0.00     0.012 A 
HETATM   13  C   UNL     1       7.756  23.867  56.292  1.00  0.00     0.012 A 
HETATM   14  C   UNL     1       8.266  20.333  55.286  1.00  0.00     0.001 A 
HETATM   15  C   UNL     1       8.210  20.435  53.903  1.00  0.00     0.001 A 
HETATM   16  C   UNL     1       7.550  25.125  55.734  1.00  0.00     0.002 A 
HETATM   17  C   UNL     1       7.500  25.268  54.352  1.00  0.00     0.010 A 
ENDBRANCH   7   8
ENDBRANCH   3   7
BRANCH   1  18
HETATM   18  C   UNL     1       4.354  27.940  51.028  1.00  0.00     0.095 A 
HETATM   19  C   UNL     1       3.693  27.978  49.817  1.00  0.00     0.107 A 
HETATM   20  O   UNL     1       2.531  28.664  49.955  1.00  0.00    -0.215 OA
HETATM   21  N   UNL     1       2.404  29.103  51.253  1.00  0.00    -0.131 NA
HETATM   22  C   UNL     1       3.500  28.676  51.899  1.00  0.00     0.087 A 
HETATM   23  C   UNL     1       3.665  29.056  53.323  1.00  0.00     0.075 C 
BRANCH  19  24
HETATM   24  C   UNL     1       3.957  27.433  48.464  1.00  0.00     0.065 C 
HETATM   25  C   UNL     1       3.554  25.973  48.358  1.00  0.00     0.012 C 
ENDBRANCH  19  24
ENDBRANCH   1  18
TORSDOF 4
ENDMDL
MODEL 6
REMARK VINA RESULT:      -8.7      1.768      3.228
REMARK  4 active torsions:
REMARK  status: ('A' for Active; 'I' for Inactive)
REMARK    1  A    between atoms: C_2  and  C_3 
REMARK    2  A    between atoms: C_8  and  N_9 
REMARK       I    between atoms: N_9  and  C_10 
REMARK       I    between atoms: C_10  and  N_11 
REMARK    3  A    between atoms: N_11  and  C_12 
REMARK    4  A    between atoms: C_12  and  C_13 
ROOT
HETATM    1  N   UNL     1       7.170  29.143  58.107  1.00  0.00    -0.305 N 
HETATM    2  C   UNL     1       7.419  28.665  56.843  1.00  0.00     0.321 C 
HETATM    3  N   UNL     1       7.324  27.292  56.809  1.00  0.00    -0.339 N 
HETATM    4  O   UNL     1       7.725  29.332  55.865  1.00  0.00    -0.247 OA
HETATM    5  H   UNL     1       7.306  28.485  58.859  1.00  0.00     0.171 HD
HETATM    6  H   UNL     1       6.730  26.858  57.498  1.00  0.00     0.164 HD
ENDROOT
BRANCH   3   7
HETATM    7  C   UNL     1       7.541  26.544  55.587  1.00  0.00     0.163 C 
BRANCH   7   8
HETATM    8  C   UNL     1       7.865  25.097  55.886  1.00  0.00    -0.029 A 
HETATM    9  C   UNL     1       7.858  24.085  54.883  1.00  0.00    -0.018 A 
HETATM   10  C   UNL     1       8.168  22.753  55.259  1.00  0.00    -0.025 A 
HETATM   11  C   UNL     1       7.562  24.324  53.521  1.00  0.00     0.013 A 
HETATM   12  C   UNL     1       8.184  21.732  54.293  1.00  0.00     0.012 A 
HETATM   13  C   UNL     1       8.460  22.451  56.597  1.00  0.00     0.012 A 
HETATM   14  C   UNL     1       7.893  22.002  52.958  1.00  0.00     0.001 A 
HETATM   15  C   UNL     1       7.579  23.298  52.572  1.00  0.00     0.001 A 
HETATM   16  C   UNL     1       8.450  23.442  57.573  1.00  0.00     0.002 A 
HETATM   17  C   UNL     1       8.152  24.754  57.222  1.00  0.00     0.010 A 
ENDBRANCH   7   8
ENDBRANCH   3   7
BRANCH   1  18
HETATM   18  C   UNL     1       7.046  30.478  58.462  1.00  0.00     0.095 A 
HETATM   19  C   UNL     1       7.958  31.135  59.263  1.00  0.00     0.107 A 
HETATM   20  O   UNL     1       7.559  32.419  59.448  1.00  0.00    -0.215 OA
HETATM   21  N   UNL     1       6.373  32.634  58.785  1.00  0.00    -0.131 NA
HETATM   22  C   UNL     1       6.058  31.471  58.197  1.00  0.00     0.087 A 
HETATM   23  C   UNL     1       4.781  31.388  57.448  1.00  0.00     0.075 C 
BRANCH  19  24
HETATM   24  C   UNL     1       9.236  30.763  59.916  1.00  0.00     0.065 C 
HETATM   25  C   UNL     1       9.449  31.529  61.210  1.00  0.00     0.012 C 
ENDBRANCH  19  24
ENDBRANCH   1  18
TORSDOF 4
ENDMDL
MODEL 7
REMARK VINA RESULT:      -8.6      1.983      2.695
REMARK  4 active torsions:
REMARK  status: ('A' for Active; 'I' for Inactive)
REMARK    1  A    between atoms: C_2  and  C_3 
REMARK    2  A    between atoms: C_8  and  N_9 
REMARK       I    between atoms: N_9  and  C_10 
REMARK       I    between atoms: C_10  and  N_11 
REMARK    3  A    between atoms: N_11  and  C_12 
REMARK    4  A    between atoms: C_12  and  C_13 
ROOT
HETATM    1  N   UNL     1       6.311  28.958  57.818  1.00  0.00    -0.305 N 
HETATM    2  C   UNL     1       7.319  28.181  57.297  1.00  0.00     0.321 C 
HETATM    3  N   UNL     1       6.944  26.857  57.248  1.00  0.00    -0.339 N 
HETATM    4  O   UNL     1       8.425  28.570  56.951  1.00  0.00    -0.247 OA
HETATM    5  H   UNL     1       5.636  28.474  58.390  1.00  0.00     0.171 HD
HETATM    6  H   UNL     1       5.956  26.665  57.184  1.00  0.00     0.164 HD
ENDROOT
BRANCH   3   7
HETATM    7  C   UNL     1       7.832  25.834  56.735  1.00  0.00     0.163 C 
BRANCH   7   8
HETATM    8  C   UNL     1       7.300  25.251  55.444  1.00  0.00    -0.029 A 
HETATM    9  C   UNL     1       7.833  24.066  54.861  1.00  0.00    -0.018 A 
HETATM   10  C   UNL     1       7.274  23.597  53.643  1.00  0.00    -0.025 A 
HETATM   11  C   UNL     1       8.892  23.314  55.421  1.00  0.00     0.013 A 
HETATM   12  C   UNL     1       7.766  22.424  53.047  1.00  0.00     0.012 A 
HETATM   13  C   UNL     1       6.229  24.305  53.032  1.00  0.00     0.012 A 
HETATM   14  C   UNL     1       8.807  21.704  53.628  1.00  0.00     0.001 A 
HETATM   15  C   UNL     1       9.371  22.150  54.815  1.00  0.00     0.001 A 
HETATM   16  C   UNL     1       5.725  25.470  53.601  1.00  0.00     0.002 A 
HETATM   17  C   UNL     1       6.257  25.941  54.796  1.00  0.00     0.010 A 
ENDBRANCH   7   8
ENDBRANCH   3   7
BRANCH   1  18
HETATM   18  C   UNL     1       6.300  30.344  57.879  1.00  0.00     0.095 A 
HETATM   19  C   UNL     1       7.071  31.067  58.767  1.00  0.00     0.107 A 
HETATM   20  O   UNL     1       6.832  32.392  58.601  1.00  0.00    -0.215 OA
HETATM   21  N   UNL     1       5.893  32.573  57.611  1.00  0.00    -0.131 NA
HETATM   22  C   UNL     1       5.567  31.345  57.179  1.00  0.00     0.087 A 
HETATM   23  C   UNL     1       4.519  31.226  56.137  1.00  0.00     0.075 C 
BRANCH  19  24
HETATM   24  C   UNL     1       8.077  30.723  59.801  1.00  0.00     0.065 C 
HETATM   25  C   UNL     1       7.821  31.465  61.101  1.00  0.00     0.012 C 
ENDBRANCH  19  24
ENDBRANCH   1  18
TORSDOF 4
ENDMDL
MODEL 8
REMARK VINA RESULT:      -8.6      2.927      3.710
REMARK  4 active torsions:
REMARK  status: ('A' for Active; 'I' for Inactive)
REMARK    1  A    between atoms: C_2  and  C_3 
REMARK    2  A    between atoms: C_8  and  N_9 
REMARK       I    between atoms: N_9  and  C_10 
REMARK       I    between atoms: C_10  and  N_11 
REMARK    3  A    between atoms: N_11  and  C_12 
REMARK    4  A    between atoms: C_12  and  C_13 
ROOT
HETATM    1  N   UNL     1       4.763  27.549  55.706  1.00  0.00    -0.305 N 
HETATM    2  C   UNL     1       6.090  27.192  55.669  1.00  0.00     0.321 C 
HETATM    3  N   UNL     1       6.256  25.879  56.046  1.00  0.00    -0.339 N 
HETATM    4  O   UNL     1       7.027  27.923  55.383  1.00  0.00    -0.247 OA
HETATM    5  H   UNL     1       4.174  26.987  56.303  1.00  0.00     0.171 HD
HETATM    6  H   UNL     1       5.474  25.259  55.902  1.00  0.00     0.164 HD
ENDROOT
BRANCH   3   7
HETATM    7  C   UNL     1       7.566  25.260  56.086  1.00  0.00     0.163 C 
BRANCH   7   8
HETATM    8  C   UNL     1       7.702  24.207  55.007  1.00  0.00    -0.029 A 
HETATM    9  C   UNL     1       7.983  22.841  55.298  1.00  0.00    -0.018 A 
HETATM   10  C   UNL     1       8.100  21.927  54.219  1.00  0.00    -0.025 A 
HETATM   11  C   UNL     1       8.153  22.329  56.605  1.00  0.00     0.013 A 
HETATM   12  C   UNL     1       8.364  20.570  54.470  1.00  0.00     0.012 A 
HETATM   13  C   UNL     1       7.953  22.376  52.899  1.00  0.00     0.012 A 
HETATM   14  C   UNL     1       8.520  20.097  55.771  1.00  0.00     0.001 A 
HETATM   15  C   UNL     1       8.417  20.977  56.839  1.00  0.00     0.001 A 
HETATM   16  C   UNL     1       7.693  23.715  52.623  1.00  0.00     0.002 A 
HETATM   17  C   UNL     1       7.571  24.623  53.668  1.00  0.00     0.010 A 
ENDBRANCH   7   8
ENDBRANCH   3   7
BRANCH   1  18
HETATM   18  C   UNL     1       4.229  28.749  55.257  1.00  0.00     0.095 A 
HETATM   19  C   UNL     1       4.011  29.834  56.082  1.00  0.00     0.107 A 
HETATM   20  O   UNL     1       3.466  30.848  55.362  1.00  0.00    -0.215 OA
HETATM   21  N   UNL     1       3.304  30.452  54.055  1.00  0.00    -0.131 NA
HETATM   22  C   UNL     1       3.755  29.190  53.988  1.00  0.00     0.087 A 
HETATM   23  C   UNL     1       3.650  28.477  52.693  1.00  0.00     0.075 C 
BRANCH  19  24
HETATM   24  C   UNL     1       4.254  30.126  57.515  1.00  0.00     0.065 C 
HETATM   25  C   UNL     1       4.913  31.480  57.708  1.00  0.00     0.012 C 
ENDBRANCH  19  24
ENDBRANCH   1  18
TORSDOF 4
ENDMDL
MODEL 9
REMARK VINA RESULT:      -8.5      3.393      4.204
REMARK  4 active torsions:
REMARK  status: ('A' for Active; 'I' for Inactive)
REMARK    1  A    between atoms: C_2  and  C_3 
REMARK    2  A    between atoms: C_8  and  N_9 
REMARK       I    between atoms: N_9  and  C_10 
REMARK       I    between atoms: C_10  and  N_11 
REMARK    3  A    between atoms: N_11  and  C_12 
REMARK    4  A    between atoms: C_12  and  C_13 
ROOT
HETATM    1  N   UNL     1       4.311  27.633  55.195  1.00  0.00    -0.305 N 
HETATM    2  C   UNL     1       5.463  27.017  55.623  1.00  0.00     0.321 C 
HETATM    3  N   UNL     1       5.294  25.653  55.692  1.00  0.00    -0.339 N 
HETATM    4  O   UNL     1       6.503  27.573  55.944  1.00  0.00    -0.247 OA
HETATM    5  H   UNL     1       3.459  27.112  55.332  1.00  0.00     0.171 HD
HETATM    6  H   UNL     1       4.597  25.247  55.087  1.00  0.00     0.164 HD
ENDROOT
BRANCH   3   7
HETATM    7  C   UNL     1       6.366  24.774  56.115  1.00  0.00     0.163 C 
BRANCH   7   8
HETATM    8  C   UNL     1       6.958  24.034  54.935  1.00  0.00    -0.029 A 
HETATM    9  C   UNL     1       7.513  22.727  55.049  1.00  0.00    -0.018 A 
HETATM   10  C   UNL     1       8.053  22.114  53.889  1.00  0.00    -0.025 A 
HETATM   11  C   UNL     1       7.562  21.990  56.256  1.00  0.00     0.013 A 
HETATM   12  C   UNL     1       8.596  20.820  53.962  1.00  0.00     0.012 A 
HETATM   13  C   UNL     1       8.044  22.798  52.665  1.00  0.00     0.012 A 
HETATM   14  C   UNL     1       8.624  20.120  55.166  1.00  0.00     0.001 A 
HETATM   15  C   UNL     1       8.108  20.705  56.313  1.00  0.00     0.001 A 
HETATM   16  C   UNL     1       7.512  24.080  52.565  1.00  0.00     0.002 A 
HETATM   17  C   UNL     1       6.976  24.694  53.691  1.00  0.00     0.010 A 
ENDBRANCH   7   8
ENDBRANCH   3   7
BRANCH   1  18
HETATM   18  C   UNL     1       4.175  28.978  54.882  1.00  0.00     0.095 A 
HETATM   19  C   UNL     1       4.542  29.510  53.662  1.00  0.00     0.107 A 
HETATM   20  O   UNL     1       4.308  30.847  53.661  1.00  0.00    -0.215 OA
HETATM   21  N   UNL     1       3.794  31.227  54.880  1.00  0.00    -0.131 NA
HETATM   22  C   UNL     1       3.719  30.110  55.618  1.00  0.00     0.087 A 
HETATM   23  C   UNL     1       3.247  30.226  57.018  1.00  0.00     0.075 C 
BRANCH  19  24
HETATM   24  C   UNL     1       5.089  28.956  52.401  1.00  0.00     0.065 C 
HETATM   25  C   UNL     1       3.998  28.366  51.526  1.00  0.00     0.012 C 
ENDBRANCH  19  24
ENDBRANCH   1  18
TORSDOF 4
ENDMDL
MODEL 10
REMARK VINA RESULT:      -8.4      4.191     10.919
REMARK  4 active torsions:
REMARK  status: ('A' for Active; 'I' for Inactive)
REMARK    1  A    between atoms: C_2  and  C_3 
REMARK    2  A    between atoms: C_8  and  N_9 
REMARK       I    between atoms: N_9  and  C_10 
REMARK       I    between atoms: C_10  and  N_11 
REMARK    3  A    between atoms: N_11  and  C_12 
REMARK    4  A    between atoms: C_12  and  C_13 
ROOT
HETATM    1  N   UNL     1       7.604  30.159  59.306  1.00  0.00    -0.305 N 
HETATM    2  C   UNL     1       7.106  31.436  59.409  1.00  0.00     0.321 C 
HETATM    3  N   UNL     1       6.429  31.605  60.597  1.00  0.00    -0.339 N 
HETATM    4  O   UNL     1       7.197  32.317  58.568  1.00  0.00    -0.247 OA
HETATM    5  H   UNL     1       7.145  29.462  59.872  1.00  0.00     0.171 HD
HETATM    6  H   UNL     1       6.702  31.013  61.366  1.00  0.00     0.164 HD
ENDROOT
BRANCH   3   7
HETATM    7  C   UNL     1       5.812  32.868  60.946  1.00  0.00     0.163 C 
BRANCH   7   8
HETATM    8  C   UNL     1       6.187  33.285  62.352  1.00  0.00    -0.029 A 
HETATM    9  C   UNL     1       5.455  34.263  63.084  1.00  0.00    -0.018 A 
HETATM   10  C   UNL     1       5.887  34.596  64.394  1.00  0.00    -0.025 A 
HETATM   11  C   UNL     1       4.312  34.932  62.587  1.00  0.00     0.013 A 
HETATM   12  C   UNL     1       5.181  35.547  65.149  1.00  0.00     0.012 A 
HETATM   13  C   UNL     1       7.021  33.976  64.938  1.00  0.00     0.012 A 
HETATM   14  C   UNL     1       4.055  36.183  64.632  1.00  0.00     0.001 A 
HETATM   15  C   UNL     1       3.622  35.877  63.350  1.00  0.00     0.001 A 
HETATM   16  C   UNL     1       7.739  33.032  64.210  1.00  0.00     0.002 A 
HETATM   17  C   UNL     1       7.327  32.691  62.927  1.00  0.00     0.010 A 
ENDBRANCH   7   8
ENDBRANCH   3   7
BRANCH   1  18
HETATM   18  C   UNL     1       8.450  29.694  58.309  1.00  0.00     0.095 A 
HETATM   19  C   UNL     1       8.213  28.534  57.599  1.00  0.00     0.107 A 
HETATM   20  O   UNL     1       9.219  28.332  56.711  1.00  0.00    -0.215 OA
HETATM   21  N   UNL     1      10.145  29.344  56.823  1.00  0.00    -0.131 NA
HETATM   22  C   UNL     1       9.690  30.160  57.785  1.00  0.00     0.087 A 
HETATM   23  C   UNL     1      10.523  31.326  58.167  1.00  0.00     0.075 C 
BRANCH  19  24
HETATM   24  C   UNL     1       7.132  27.519  57.581  1.00  0.00     0.065 C 
HETATM   25  C   UNL     1       7.688  26.106  57.600  1.00  0.00     0.012 C 
ENDBRANCH  19  24
ENDBRANCH   1  18
TORSDOF 4
ENDMDL
