MODEL 1
REMARK VINA RESULT:      -8.0      0.000      0.000
REMARK  3 active torsions:
REMARK  status: ('A' for Active; 'I' for Inactive)
REMARK    1  A    between atoms: C_9  and  C_10 
REMARK    2  A    between atoms: C_16  and  C_17 
REMARK       I    between atoms: C_17  and  N_18 
REMARK    3  A    between atoms: N_18  and  C_19 
ROOT
HETATM    1  C   UNL     1      10.831  29.212  56.625  1.00  0.00     0.070 C 
HETATM    2  C   UNL     1       9.641  29.800  57.341  1.00  0.00     0.037 C 
HETATM    3  N   UNL     1       9.865  31.027  57.961  1.00  0.00    -0.192 N 
HETATM    4  C   UNL     1       9.034  31.538  58.891  1.00  0.00     0.725 A 
HETATM    5  N   UNL     1       7.819  30.947  59.100  1.00  0.00    -0.084 N 
HETATM    6  N   UNL     1       7.157  31.530  60.122  1.00  0.00    -0.149 NA
HETATM    7  C   UNL     1       8.022  32.496  60.453  1.00  0.00     0.275 A 
HETATM    8  N   UNL     1       9.180  32.540  59.719  1.00  0.00    -0.054 NA
HETATM    9  C   UNL     1       7.322  29.798  58.333  1.00  0.00     0.202 C 
HETATM   10  C   UNL     1       8.436  29.189  57.481  1.00  0.00     0.062 C 
HETATM   11  H   UNL     1      10.810  31.405  57.922  1.00  0.00     0.184 HD
ENDROOT
BRANCH  10  12
HETATM   12  C   UNL     1       8.120  27.827  56.970  1.00  0.00     0.256 C 
HETATM   13  N   UNL     1       7.583  27.808  55.704  1.00  0.00    -0.322 N 
HETATM   14  H   UNL     1       7.380  28.698  55.266  1.00  0.00     0.169 HD
HETATM   15  O   UNL     1       8.314  26.863  57.699  1.00  0.00    -0.267 OA
BRANCH  13  16
HETATM   16  C   UNL     1       7.336  26.658  54.920  1.00  0.00     0.052 A 
HETATM   17  C   UNL     1       6.717  25.495  55.373  1.00  0.00     0.145 A 
HETATM   18  N   UNL     1       6.529  24.385  54.612  1.00  0.00    -0.271 NA
HETATM   19  C   UNL     1       6.979  24.432  53.342  1.00  0.00     0.116 A 
HETATM   20  C   UNL     1       7.602  25.538  52.794  1.00  0.00     0.021 A 
HETATM   21  C   UNL     1       7.778  26.666  53.595  1.00  0.00     0.032 A 
ENDBRANCH  13  16
ENDBRANCH  10  12
BRANCH   9  22
HETATM   22  C   UNL     1       6.119  30.203  57.487  1.00  0.00    -0.025 A 
HETATM   23  C   UNL     1       6.123  31.349  56.680  1.00  0.00     0.029 A 
HETATM   24  C   UNL     1       4.991  31.650  55.939  1.00  0.00     0.117 A 
HETATM   25  N   UNL     1       3.877  30.891  55.929  1.00  0.00    -0.273 NA
HETATM   26  C   UNL     1       3.888  29.787  56.705  1.00  0.00     0.117 A 
HETATM   27  C   UNL     1       4.968  29.404  57.486  1.00  0.00     0.029 A 
ENDBRANCH   9  22
TORSDOF 3
ENDMDL
MODEL 2
REMARK VINA RESULT:      -8.0      3.032      5.083
REMARK  3 active torsions:
REMARK  status: ('A' for Active; 'I' for Inactive)
REMARK    1  A    between atoms: C_9  and  C_10 
REMARK    2  A    between atoms: C_16  and  C_17 
REMARK       I    between atoms: C_17  and  N_18 
REMARK    3  A    between atoms: N_18  and  C_19 
ROOT
HETATM    1  C   UNL     1       8.669  27.064  57.006  1.00  0.00     0.070 C 
HETATM    2  C   UNL     1       7.438  27.427  56.213  1.00  0.00     0.037 C 
HETATM    3  N   UNL     1       7.153  28.788  56.143  1.00  0.00    -0.192 N 
HETATM    4  C   UNL     1       5.952  29.264  55.758  1.00  0.00     0.725 A 
HETATM    5  N   UNL     1       5.034  28.407  55.218  1.00  0.00    -0.084 N 
HETATM    6  N   UNL     1       3.863  29.030  54.973  1.00  0.00    -0.149 NA
HETATM    7  C   UNL     1       4.166  30.277  55.353  1.00  0.00     0.275 A 
HETATM    8  N   UNL     1       5.437  30.464  55.833  1.00  0.00    -0.054 NA
HETATM    9  C   UNL     1       5.286  26.981  54.977  1.00  0.00     0.202 C 
HETATM   10  C   UNL     1       6.580  26.533  55.655  1.00  0.00     0.062 C 
HETATM   11  H   UNL     1       7.761  29.420  56.660  1.00  0.00     0.184 HD
ENDROOT
BRANCH  10  12
HETATM   12  C   UNL     1       6.715  25.055  55.770  1.00  0.00     0.256 C 
HETATM   13  N   UNL     1       7.532  24.484  54.822  1.00  0.00    -0.322 N 
HETATM   14  H   UNL     1       7.903  25.087  54.098  1.00  0.00     0.169 HD
HETATM   15  O   UNL     1       6.081  24.471  56.639  1.00  0.00    -0.267 OA
BRANCH  13  16
HETATM   16  C   UNL     1       7.958  23.137  54.789  1.00  0.00     0.052 A 
HETATM   17  C   UNL     1       8.714  22.510  55.776  1.00  0.00     0.145 A 
HETATM   18  N   UNL     1       9.150  21.225  55.703  1.00  0.00    -0.271 NA
HETATM   19  C   UNL     1       8.818  20.531  54.596  1.00  0.00     0.116 A 
HETATM   20  C   UNL     1       8.068  21.058  53.561  1.00  0.00     0.021 A 
HETATM   21  C   UNL     1       7.630  22.378  53.664  1.00  0.00     0.032 A 
ENDBRANCH  13  16
ENDBRANCH  10  12
BRANCH   9  22
HETATM   22  C   UNL     1       5.299  26.688  53.480  1.00  0.00    -0.025 A 
HETATM   23  C   UNL     1       4.804  25.489  52.947  1.00  0.00     0.029 A 
HETATM   24  C   UNL     1       4.850  25.297  51.575  1.00  0.00     0.117 A 
HETATM   25  N   UNL     1       5.328  26.209  50.705  1.00  0.00    -0.273 NA
HETATM   26  C   UNL     1       5.795  27.362  51.230  1.00  0.00     0.117 A 
HETATM   27  C   UNL     1       5.798  27.646  52.587  1.00  0.00     0.029 A 
ENDBRANCH   9  22
TORSDOF 3
ENDMDL
MODEL 3
REMARK VINA RESULT:      -7.9      2.258      4.938
REMARK  3 active torsions:
REMARK  status: ('A' for Active; 'I' for Inactive)
REMARK    1  A    between atoms: C_9  and  C_10 
REMARK    2  A    between atoms: C_16  and  C_17 
REMARK       I    between atoms: C_17  and  N_18 
REMARK    3  A    between atoms: N_18  and  C_19 
ROOT
HETATM    1  C   UNL     1       4.599  25.230  57.450  1.00  0.00     0.070 C 
HETATM    2  C   UNL     1       5.102  26.470  56.753  1.00  0.00     0.037 C 
HETATM    3  N   UNL     1       4.216  27.545  56.738  1.00  0.00    -0.192 N 
HETATM    4  C   UNL     1       4.361  28.597  55.908  1.00  0.00     0.725 A 
HETATM    5  N   UNL     1       5.518  28.733  55.194  1.00  0.00    -0.084 N 
HETATM    6  N   UNL     1       5.457  29.787  54.353  1.00  0.00    -0.149 NA
HETATM    7  C   UNL     1       4.243  30.265  54.649  1.00  0.00     0.275 A 
HETATM    8  N   UNL     1       3.541  29.570  55.602  1.00  0.00    -0.054 NA
HETATM    9  C   UNL     1       6.662  27.820  55.303  1.00  0.00     0.202 C 
HETATM   10  C   UNL     1       6.285  26.567  56.093  1.00  0.00     0.062 C 
HETATM   11  H   UNL     1       3.298  27.400  57.152  1.00  0.00     0.184 HD
ENDROOT
BRANCH  10  12
HETATM   12  C   UNL     1       7.254  25.448  55.937  1.00  0.00     0.256 C 
HETATM   13  N   UNL     1       6.784  24.390  55.195  1.00  0.00    -0.322 N 
HETATM   14  H   UNL     1       5.819  24.423  54.889  1.00  0.00     0.169 HD
HETATM   15  O   UNL     1       8.342  25.527  56.493  1.00  0.00    -0.267 OA
BRANCH  13  16
HETATM   16  C   UNL     1       7.536  23.275  54.761  1.00  0.00     0.052 A 
HETATM   17  C   UNL     1       8.347  22.488  55.575  1.00  0.00     0.145 A 
HETATM   18  N   UNL     1       9.097  21.446  55.127  1.00  0.00    -0.271 NA
HETATM   19  C   UNL     1       9.038  21.175  53.808  1.00  0.00     0.116 A 
HETATM   20  C   UNL     1       8.261  21.892  52.916  1.00  0.00     0.021 A 
HETATM   21  C   UNL     1       7.499  22.953  53.403  1.00  0.00     0.032 A 
ENDBRANCH  13  16
ENDBRANCH  10  12
BRANCH   9  22
HETATM   22  C   UNL     1       7.860  28.538  55.916  1.00  0.00    -0.025 A 
HETATM   23  C   UNL     1       8.974  28.920  55.154  1.00  0.00     0.029 A 
HETATM   24  C   UNL     1      10.024  29.570  55.783  1.00  0.00     0.117 A 
HETATM   25  N   UNL     1      10.036  29.883  57.094  1.00  0.00    -0.273 NA
HETATM   26  C   UNL     1       8.955  29.517  57.815  1.00  0.00     0.117 A 
HETATM   27  C   UNL     1       7.858  28.858  57.280  1.00  0.00     0.029 A 
ENDBRANCH   9  22
TORSDOF 3
ENDMDL
MODEL 4
REMARK VINA RESULT:      -7.9      2.533      7.151
REMARK  3 active torsions:
REMARK  status: ('A' for Active; 'I' for Inactive)
REMARK    1  A    between atoms: C_9  and  C_10 
REMARK    2  A    between atoms: C_16  and  C_17 
REMARK       I    between atoms: C_17  and  N_18 
REMARK    3  A    between atoms: N_18  and  C_19 
ROOT
HETATM    1  C   UNL     1       3.881  30.234  55.951  1.00  0.00     0.070 C 
HETATM    2  C   UNL     1       5.084  29.488  56.475  1.00  0.00     0.037 C 
HETATM    3  N   UNL     1       5.207  28.173  56.033  1.00  0.00    -0.192 N 
HETATM    4  C   UNL     1       6.019  27.277  56.629  1.00  0.00     0.725 A 
HETATM    5  N   UNL     1       6.912  27.704  57.571  1.00  0.00    -0.084 N 
HETATM    6  N   UNL     1       7.577  26.669  58.124  1.00  0.00    -0.149 NA
HETATM    7  C   UNL     1       7.060  25.648  57.431  1.00  0.00     0.275 A 
HETATM    8  N   UNL     1       6.108  25.978  56.501  1.00  0.00    -0.054 NA
HETATM    9  C   UNL     1       7.089  29.110  57.956  1.00  0.00     0.202 C 
HETATM   10  C   UNL     1       5.970  29.978  57.380  1.00  0.00     0.062 C 
HETATM   11  H   UNL     1       4.467  27.809  55.437  1.00  0.00     0.184 HD
ENDROOT
BRANCH  10  12
HETATM   12  C   UNL     1       5.868  31.320  58.014  1.00  0.00     0.256 C 
HETATM   13  N   UNL     1       5.478  31.297  59.333  1.00  0.00    -0.322 N 
HETATM   14  H   UNL     1       5.224  30.401  59.732  1.00  0.00     0.169 HD
HETATM   15  O   UNL     1       6.090  32.313  57.333  1.00  0.00    -0.267 OA
BRANCH  13  16
HETATM   16  C   UNL     1       5.451  32.401  60.215  1.00  0.00     0.052 A 
HETATM   17  C   UNL     1       4.454  33.373  60.252  1.00  0.00     0.145 A 
HETATM   18  N   UNL     1       4.471  34.451  61.080  1.00  0.00    -0.271 NA
HETATM   19  C   UNL     1       5.528  34.568  61.908  1.00  0.00     0.116 A 
HETATM   20  C   UNL     1       6.567  33.656  61.953  1.00  0.00     0.021 A 
HETATM   21  C   UNL     1       6.522  32.557  61.096  1.00  0.00     0.032 A 
ENDBRANCH  13  16
ENDBRANCH  10  12
BRANCH   9  22
HETATM   22  C   UNL     1       8.467  29.608  57.534  1.00  0.00    -0.025 A 
HETATM   23  C   UNL     1       9.273  30.386  58.379  1.00  0.00     0.029 A 
HETATM   24  C   UNL     1      10.515  30.800  57.924  1.00  0.00     0.117 A 
HETATM   25  N   UNL     1      11.015  30.482  56.713  1.00  0.00    -0.273 NA
HETATM   26  C   UNL     1      10.233  29.728  55.913  1.00  0.00     0.117 A 
HETATM   27  C   UNL     1       8.975  29.269  56.273  1.00  0.00     0.029 A 
ENDBRANCH   9  22
TORSDOF 3
ENDMDL
MODEL 5
REMARK VINA RESULT:      -7.8      3.994      6.385
REMARK  3 active torsions:
REMARK  status: ('A' for Active; 'I' for Inactive)
REMARK    1  A    between atoms: C_9  and  C_10 
REMARK    2  A    between atoms: C_16  and  C_17 
REMARK       I    between atoms: C_17  and  N_18 
REMARK    3  A    between atoms: N_18  and  C_19 
ROOT
HETATM    1  C   UNL     1       3.448  29.940  53.619  1.00  0.00     0.070 C 
HETATM    2  C   UNL     1       4.719  29.228  54.009  1.00  0.00     0.037 C 
HETATM    3  N   UNL     1       5.047  29.291  55.361  1.00  0.00    -0.192 N 
HETATM    4  C   UNL     1       6.276  28.994  55.828  1.00  0.00     0.725 A 
HETATM    5  N   UNL     1       7.188  28.413  54.992  1.00  0.00    -0.084 N 
HETATM    6  N   UNL     1       8.387  28.268  55.595  1.00  0.00    -0.149 NA
HETATM    7  C   UNL     1       8.107  28.747  56.813  1.00  0.00     0.275 A 
HETATM    8  N   UNL     1       6.824  29.196  56.999  1.00  0.00    -0.054 NA
HETATM    9  C   UNL     1       6.904  28.035  53.603  1.00  0.00     0.202 C 
HETATM   10  C   UNL     1       5.571  28.623  53.140  1.00  0.00     0.062 C 
HETATM   11  H   UNL     1       4.439  29.841  55.964  1.00  0.00     0.184 HD
ENDROOT
BRANCH  10  12
HETATM   12  C   UNL     1       5.387  28.600  51.663  1.00  0.00     0.256 C 
HETATM   13  N   UNL     1       4.521  27.630  51.214  1.00  0.00    -0.322 N 
HETATM   14  H   UNL     1       4.149  26.981  51.896  1.00  0.00     0.169 HD
HETATM   15  O   UNL     1       6.027  29.386  50.976  1.00  0.00    -0.267 OA
BRANCH  13  16
HETATM   16  C   UNL     1       4.046  27.483  49.891  1.00  0.00     0.052 A 
HETATM   17  C   UNL     1       3.042  28.252  49.308  1.00  0.00     0.145 A 
HETATM   18  N   UNL     1       2.572  28.063  48.047  1.00  0.00    -0.271 NA
HETATM   19  C   UNL     1       3.124  27.062  47.333  1.00  0.00     0.116 A 
HETATM   20  C   UNL     1       4.129  26.244  47.817  1.00  0.00     0.021 A 
HETATM   21  C   UNL     1       4.597  26.463  49.112  1.00  0.00     0.032 A 
ENDBRANCH  13  16
ENDBRANCH  10  12
BRANCH   9  22
HETATM   22  C   UNL     1       6.940  26.518  53.445  1.00  0.00    -0.025 A 
HETATM   23  C   UNL     1       7.821  25.879  52.561  1.00  0.00     0.029 A 
HETATM   24  C   UNL     1       7.795  24.496  52.474  1.00  0.00     0.117 A 
HETATM   25  N   UNL     1       6.980  23.713  53.209  1.00  0.00    -0.273 NA
HETATM   26  C   UNL     1       6.142  24.340  54.061  1.00  0.00     0.117 A 
HETATM   27  C   UNL     1       6.088  25.717  54.216  1.00  0.00     0.029 A 
ENDBRANCH   9  22
TORSDOF 3
ENDMDL
MODEL 6
REMARK VINA RESULT:      -7.7      2.117      6.639
REMARK  3 active torsions:
REMARK  status: ('A' for Active; 'I' for Inactive)
REMARK    1  A    between atoms: C_9  and  C_10 
REMARK    2  A    between atoms: C_16  and  C_17 
REMARK       I    between atoms: C_17  and  N_18 
REMARK    3  A    between atoms: N_18  and  C_19 
ROOT
HETATM    1  C   UNL     1       7.796  25.793  57.762  1.00  0.00     0.070 C 
HETATM    2  C   UNL     1       7.573  25.869  56.272  1.00  0.00     0.037 C 
HETATM    3  N   UNL     1       7.435  24.643  55.626  1.00  0.00    -0.192 N 
HETATM    4  C   UNL     1       7.545  24.505  54.290  1.00  0.00     0.725 A 
HETATM    5  N   UNL     1       7.591  25.623  53.503  1.00  0.00    -0.084 N 
HETATM    6  N   UNL     1       7.791  25.304  52.207  1.00  0.00    -0.149 NA
HETATM    7  C   UNL     1       7.814  23.968  52.285  1.00  0.00     0.275 A 
HETATM    8  N   UNL     1       7.660  23.439  53.541  1.00  0.00    -0.054 NA
HETATM    9  C   UNL     1       7.477  26.993  54.016  1.00  0.00     0.202 C 
HETATM   10  C   UNL     1       7.583  27.014  55.541  1.00  0.00     0.062 C 
HETATM   11  H   UNL     1       7.537  23.803  56.192  1.00  0.00     0.184 HD
ENDROOT
BRANCH  10  12
HETATM   12  C   UNL     1       7.844  28.367  56.103  1.00  0.00     0.256 C 
HETATM   13  N   UNL     1       7.010  28.722  57.139  1.00  0.00    -0.322 N 
HETATM   14  H   UNL     1       6.260  28.085  57.377  1.00  0.00     0.169 HD
HETATM   15  O   UNL     1       8.718  29.058  55.597  1.00  0.00    -0.267 OA
BRANCH  13  16
HETATM   16  C   UNL     1       7.132  29.872  57.952  1.00  0.00     0.052 A 
HETATM   17  C   UNL     1       6.383  31.037  57.811  1.00  0.00     0.145 A 
HETATM   18  N   UNL     1       6.548  32.147  58.578  1.00  0.00    -0.271 NA
HETATM   19  C   UNL     1       7.503  32.097  59.527  1.00  0.00     0.116 A 
HETATM   20  C   UNL     1       8.298  30.987  59.752  1.00  0.00     0.021 A 
HETATM   21  C   UNL     1       8.105  29.860  58.954  1.00  0.00     0.032 A 
ENDBRANCH  13  16
ENDBRANCH  10  12
BRANCH   9  22
HETATM   22  C   UNL     1       6.184  27.639  53.528  1.00  0.00    -0.025 A 
HETATM   23  C   UNL     1       6.164  28.577  52.485  1.00  0.00     0.029 A 
HETATM   24  C   UNL     1       4.949  29.119  52.097  1.00  0.00     0.117 A 
HETATM   25  N   UNL     1       3.766  28.783  52.650  1.00  0.00    -0.273 NA
HETATM   26  C   UNL     1       3.799  27.875  53.647  1.00  0.00     0.117 A 
HETATM   27  C   UNL     1       4.962  27.280  54.111  1.00  0.00     0.029 A 
ENDBRANCH   9  22
TORSDOF 3
ENDMDL
MODEL 7
REMARK VINA RESULT:      -7.5      2.161      6.318
REMARK  3 active torsions:
REMARK  status: ('A' for Active; 'I' for Inactive)
REMARK    1  A    between atoms: C_9  and  C_10 
REMARK    2  A    between atoms: C_16  and  C_17 
REMARK       I    between atoms: C_17  and  N_18 
REMARK    3  A    between atoms: N_18  and  C_19 
ROOT
HETATM    1  C   UNL     1       5.150  27.622  53.906  1.00  0.00     0.070 C 
HETATM    2  C   UNL     1       6.133  27.401  55.029  1.00  0.00     0.037 C 
HETATM    3  N   UNL     1       6.916  26.255  54.918  1.00  0.00    -0.192 N 
HETATM    4  C   UNL     1       7.606  25.738  55.955  1.00  0.00     0.725 A 
HETATM    5  N   UNL     1       7.718  26.460  57.110  1.00  0.00    -0.084 N 
HETATM    6  N   UNL     1       8.361  25.760  58.068  1.00  0.00    -0.149 NA
HETATM    7  C   UNL     1       8.644  24.636  57.399  1.00  0.00     0.275 A 
HETATM    8  N   UNL     1       8.206  24.585  56.101  1.00  0.00    -0.054 NA
HETATM    9  C   UNL     1       7.170  27.810  57.291  1.00  0.00     0.202 C 
HETATM   10  C   UNL     1       6.235  28.178  56.139  1.00  0.00     0.062 C 
HETATM   11  H   UNL     1       6.738  25.642  54.125  1.00  0.00     0.184 HD
ENDROOT
BRANCH  10  12
HETATM   12  C   UNL     1       5.368  29.353  56.424  1.00  0.00     0.256 C 
HETATM   13  N   UNL     1       5.720  30.496  55.744  1.00  0.00    -0.322 N 
HETATM   14  H   UNL     1       6.560  30.467  55.180  1.00  0.00     0.169 HD
HETATM   15  O   UNL     1       4.466  29.236  57.243  1.00  0.00    -0.267 OA
BRANCH  13  16
HETATM   16  C   UNL     1       4.986  31.703  55.705  1.00  0.00     0.052 A 
HETATM   17  C   UNL     1       4.162  32.109  54.658  1.00  0.00     0.145 A 
HETATM   18  N   UNL     1       3.500  33.295  54.624  1.00  0.00    -0.271 NA
HETATM   19  C   UNL     1       3.665  34.117  55.679  1.00  0.00     0.116 A 
HETATM   20  C   UNL     1       4.456  33.808  56.771  1.00  0.00     0.021 A 
HETATM   21  C   UNL     1       5.121  32.582  56.782  1.00  0.00     0.032 A 
ENDBRANCH  13  16
ENDBRANCH  10  12
BRANCH   9  22
HETATM   22  C   UNL     1       8.298  28.825  57.453  1.00  0.00    -0.025 A 
HETATM   23  C   UNL     1       8.367  29.698  58.548  1.00  0.00     0.029 A 
HETATM   24  C   UNL     1       9.423  30.593  58.625  1.00  0.00     0.117 A 
HETATM   25  N   UNL     1      10.414  30.664  57.714  1.00  0.00    -0.273 NA
HETATM   26  C   UNL     1      10.339  29.814  56.669  1.00  0.00     0.117 A 
HETATM   27  C   UNL     1       9.321  28.888  56.498  1.00  0.00     0.029 A 
ENDBRANCH   9  22
TORSDOF 3
ENDMDL
MODEL 8
REMARK VINA RESULT:      -7.4      3.025      5.019
REMARK  3 active torsions:
REMARK  status: ('A' for Active; 'I' for Inactive)
REMARK    1  A    between atoms: C_9  and  C_10 
REMARK    2  A    between atoms: C_16  and  C_17 
REMARK       I    between atoms: C_17  and  N_18 
REMARK    3  A    between atoms: N_18  and  C_19 
ROOT
HETATM    1  C   UNL     1       3.868  30.469  56.253  1.00  0.00     0.070 C 
HETATM    2  C   UNL     1       5.202  29.768  56.335  1.00  0.00     0.037 C 
HETATM    3  N   UNL     1       5.972  30.081  57.452  1.00  0.00    -0.192 N 
HETATM    4  C   UNL     1       7.289  29.804  57.532  1.00  0.00     0.725 A 
HETATM    5  N   UNL     1       7.865  29.009  56.581  1.00  0.00    -0.084 N 
HETATM    6  N   UNL     1       9.198  28.910  56.763  1.00  0.00    -0.149 NA
HETATM    7  C   UNL     1       9.347  29.642  57.873  1.00  0.00     0.275 A 
HETATM    8  N   UNL     1       8.202  30.201  58.380  1.00  0.00    -0.054 NA
HETATM    9  C   UNL     1       7.125  28.380  55.480  1.00  0.00     0.202 C 
HETATM   10  C   UNL     1       5.710  28.948  55.379  1.00  0.00     0.062 C 
HETATM   11  H   UNL     1       5.602  30.778  58.095  1.00  0.00     0.184 HD
ENDROOT
BRANCH  10  12
HETATM   12  C   UNL     1       5.033  28.641  54.089  1.00  0.00     0.256 C 
HETATM   13  N   UNL     1       5.797  28.894  52.973  1.00  0.00    -0.322 N 
HETATM   14  H   UNL     1       6.701  29.328  53.112  1.00  0.00     0.169 HD
HETATM   15  O   UNL     1       3.877  28.241  54.110  1.00  0.00    -0.267 OA
BRANCH  13  16
HETATM   16  C   UNL     1       5.468  28.553  51.642  1.00  0.00     0.052 A 
HETATM   17  C   UNL     1       5.151  29.462  50.635  1.00  0.00     0.145 A 
HETATM   18  N   UNL     1       4.795  29.107  49.372  1.00  0.00    -0.271 NA
HETATM   19  C   UNL     1       4.751  27.789  49.097  1.00  0.00     0.116 A 
HETATM   20  C   UNL     1       5.051  26.806  50.024  1.00  0.00     0.021 A 
HETATM   21  C   UNL     1       5.418  27.197  51.311  1.00  0.00     0.032 A 
ENDBRANCH  13  16
ENDBRANCH  10  12
BRANCH   9  22
HETATM   22  C   UNL     1       7.117  26.863  55.643  1.00  0.00    -0.025 A 
HETATM   23  C   UNL     1       6.720  26.241  56.835  1.00  0.00     0.029 A 
HETATM   24  C   UNL     1       6.738  24.856  56.906  1.00  0.00     0.117 A 
HETATM   25  N   UNL     1       7.098  24.058  55.882  1.00  0.00    -0.273 NA
HETATM   26  C   UNL     1       7.471  24.669  54.738  1.00  0.00     0.117 A 
HETATM   27  C   UNL     1       7.493  26.044  54.570  1.00  0.00     0.029 A 
ENDBRANCH   9  22
TORSDOF 3
ENDMDL
MODEL 9
REMARK VINA RESULT:      -7.4      5.478      8.474
REMARK  3 active torsions:
REMARK  status: ('A' for Active; 'I' for Inactive)
REMARK    1  A    between atoms: C_9  and  C_10 
REMARK    2  A    between atoms: C_16  and  C_17 
REMARK       I    between atoms: C_17  and  N_18 
REMARK    3  A    between atoms: N_18  and  C_19 
ROOT
HETATM    1  C   UNL     1       7.581  31.808  63.102  1.00  0.00     0.070 C 
HETATM    2  C   UNL     1       6.759  32.846  63.826  1.00  0.00     0.037 C 
HETATM    3  N   UNL     1       7.272  33.263  65.052  1.00  0.00    -0.192 N 
HETATM    4  C   UNL     1       6.534  33.929  65.963  1.00  0.00     0.725 A 
HETATM    5  N   UNL     1       5.300  34.400  65.610  1.00  0.00    -0.084 N 
HETATM    6  N   UNL     1       4.668  34.960  66.663  1.00  0.00    -0.149 NA
HETATM    7  C   UNL     1       5.604  34.827  67.609  1.00  0.00     0.275 A 
HETATM    8  N   UNL     1       6.765  34.207  67.220  1.00  0.00    -0.054 NA
HETATM    9  C   UNL     1       4.727  34.273  64.265  1.00  0.00     0.202 C 
HETATM   10  C   UNL     1       5.555  33.316  63.407  1.00  0.00     0.062 C 
HETATM   11  H   UNL     1       8.123  32.812  65.381  1.00  0.00     0.184 HD
ENDROOT
BRANCH  10  12
HETATM   12  C   UNL     1       4.853  32.853  62.180  1.00  0.00     0.256 C 
HETATM   13  N   UNL     1       5.234  33.502  61.029  1.00  0.00    -0.322 N 
HETATM   14  H   UNL     1       5.886  34.273  61.118  1.00  0.00     0.169 HD
HETATM   15  O   UNL     1       3.990  31.991  62.283  1.00  0.00    -0.267 OA
BRANCH  13  16
HETATM   16  C   UNL     1       4.849  33.163  59.712  1.00  0.00     0.052 A 
HETATM   17  C   UNL     1       3.609  33.440  59.142  1.00  0.00     0.145 A 
HETATM   18  N   UNL     1       3.245  33.065  57.887  1.00  0.00    -0.271 NA
HETATM   19  C   UNL     1       4.155  32.381  57.167  1.00  0.00     0.116 A 
HETATM   20  C   UNL     1       5.415  32.058  57.638  1.00  0.00     0.021 A 
HETATM   21  C   UNL     1       5.764  32.459  58.927  1.00  0.00     0.032 A 
ENDBRANCH  13  16
ENDBRANCH  10  12
BRANCH   9  22
HETATM   22  C   UNL     1       4.589  35.645  63.612  1.00  0.00    -0.025 A 
HETATM   23  C   UNL     1       3.368  36.115  63.108  1.00  0.00     0.029 A 
HETATM   24  C   UNL     1       3.322  37.373  62.530  1.00  0.00     0.117 A 
HETATM   25  N   UNL     1       4.387  38.196  62.438  1.00  0.00    -0.273 NA
HETATM   26  C   UNL     1       5.554  37.735  62.933  1.00  0.00     0.117 A 
HETATM   27  C   UNL     1       5.704  36.490  63.524  1.00  0.00     0.029 A 
ENDBRANCH   9  22
TORSDOF 3
ENDMDL
MODEL 10
REMARK VINA RESULT:      -7.3      5.311      7.926
REMARK  3 active torsions:
REMARK  status: ('A' for Active; 'I' for Inactive)
REMARK    1  A    between atoms: C_9  and  C_10 
REMARK    2  A    between atoms: C_16  and  C_17 
REMARK       I    between atoms: C_17  and  N_18 
REMARK    3  A    between atoms: N_18  and  C_19 
ROOT
HETATM    1  C   UNL     1       7.934  33.047  64.117  1.00  0.00     0.070 C 
HETATM    2  C   UNL     1       6.585  33.711  64.241  1.00  0.00     0.037 C 
HETATM    3  N   UNL     1       6.427  34.536  65.351  1.00  0.00    -0.192 N 
HETATM    4  C   UNL     1       5.220  34.950  65.787  1.00  0.00     0.725 A 
HETATM    5  N   UNL     1       4.117  34.733  65.010  1.00  0.00    -0.084 N 
HETATM    6  N   UNL     1       2.988  35.128  65.635  1.00  0.00    -0.149 NA
HETATM    7  C   UNL     1       3.498  35.615  66.773  1.00  0.00     0.275 A 
HETATM    8  N   UNL     1       4.861  35.531  66.902  1.00  0.00    -0.054 NA
HETATM    9  C   UNL     1       4.159  34.110  63.682  1.00  0.00     0.202 C 
HETATM   10  C   UNL     1       5.532  33.495  63.411  1.00  0.00     0.062 C 
HETATM   11  H   UNL     1       7.204  34.593  66.006  1.00  0.00     0.184 HD
ENDROOT
BRANCH  10  12
HETATM   12  C   UNL     1       5.545  32.542  62.267  1.00  0.00     0.256 C 
HETATM   13  N   UNL     1       6.448  32.856  61.278  1.00  0.00    -0.322 N 
HETATM   14  H   UNL     1       6.961  33.725  61.369  1.00  0.00     0.169 HD
HETATM   15  O   UNL     1       4.754  31.608  62.267  1.00  0.00    -0.267 OA
BRANCH  13  16
HETATM   16  C   UNL     1       6.780  32.052  60.164  1.00  0.00     0.052 A 
HETATM   17  C   UNL     1       6.083  32.024  58.959  1.00  0.00     0.145 A 
HETATM   18  N   UNL     1       6.395  31.209  57.916  1.00  0.00    -0.271 NA
HETATM   19  C   UNL     1       7.447  30.383  58.081  1.00  0.00     0.116 A 
HETATM   20  C   UNL     1       8.207  30.336  59.236  1.00  0.00     0.021 A 
HETATM   21  C   UNL     1       7.868  31.186  60.288  1.00  0.00     0.032 A 
ENDBRANCH  13  16
ENDBRANCH  10  12
BRANCH   9  22
HETATM   22  C   UNL     1       3.768  35.120  62.607  1.00  0.00    -0.025 A 
HETATM   23  C   UNL     1       4.509  36.288  62.373  1.00  0.00     0.029 A 
HETATM   24  C   UNL     1       4.091  37.157  61.378  1.00  0.00     0.117 A 
HETATM   25  N   UNL     1       3.015  36.940  60.595  1.00  0.00    -0.273 NA
HETATM   26  C   UNL     1       2.315  35.809  60.825  1.00  0.00     0.117 A 
HETATM   27  C   UNL     1       2.648  34.881  61.800  1.00  0.00     0.029 A 
ENDBRANCH   9  22
TORSDOF 3
ENDMDL
