MODEL 1
REMARK VINA RESULT:      -8.7      0.000      0.000
REMARK  6 active torsions:
REMARK  status: ('A' for Active; 'I' for Inactive)
REMARK    1  A    between atoms: C_9  and  C_10 
REMARK       I    between atoms: C_10  and  N_11 
REMARK    2  A    between atoms: N_11  and  C_12 
REMARK    3  A    between atoms: C_12  and  C_13 
REMARK    4  A    between atoms: C_13  and  O_14 
REMARK    5  A    between atoms: C_13  and  C_15 
REMARK    6  A    between atoms: C_18  and  O_19 
ROOT
HETATM    1  C   UNL     1       5.589  29.027  56.189  1.00  0.00     0.258 C 
HETATM    2  N   UNL     1       6.015  29.229  54.893  1.00  0.00    -0.350 N 
HETATM    3  O   UNL     1       4.818  28.123  56.500  1.00  0.00    -0.267 OA
HETATM    4  H   UNL     1       6.745  29.928  54.767  1.00  0.00     0.163 HD
ENDROOT
BRANCH   2   5
HETATM    5  C   UNL     1       5.777  28.266  53.805  1.00  0.00     0.114 C 
HETATM    6  C   UNL     1       4.879  28.894  52.738  1.00  0.00     0.035 C 
BRANCH   5   7
HETATM    7  C   UNL     1       7.104  27.666  53.251  1.00  0.00     0.173 C 
BRANCH   7   8
HETATM    8  O   UNL     1       8.204  28.327  53.903  1.00  0.00    -0.389 OA
HETATM    9  H   UNL     1       8.507  28.998  53.267  1.00  0.00     0.210 HD
ENDBRANCH   7   8
BRANCH   7  10
HETATM   10  C   UNL     1       7.251  26.172  53.444  1.00  0.00    -0.028 A 
HETATM   11  C   UNL     1       6.890  25.598  54.674  1.00  0.00     0.012 A 
HETATM   12  C   UNL     1       7.029  24.226  54.887  1.00  0.00     0.037 A 
HETATM   13  C   UNL     1       7.523  23.397  53.881  1.00  0.00     0.068 A 
HETATM   14  C   UNL     1       7.891  23.957  52.657  1.00  0.00     0.037 A 
HETATM   15  C   UNL     1       7.758  25.335  52.441  1.00  0.00     0.012 A 
BRANCH  13  16
HETATM   16  O   UNL     1       7.601  22.075  54.220  1.00  0.00    -0.356 OA
HETATM   17  C   UNL     1       7.945  21.166  53.183  1.00  0.00     0.210 C 
ENDBRANCH  13  16
ENDBRANCH   7  10
ENDBRANCH   5   7
ENDBRANCH   2   5
BRANCH   1  18
HETATM   18  C   UNL     1       6.115  29.952  57.175  1.00  0.00     0.105 A 
HETATM   19  C   UNL     1       7.440  30.198  57.496  1.00  0.00     0.169 A 
HETATM   20  N   UNL     1       8.607  29.677  56.996  1.00  0.00    -0.233 NA
HETATM   21  N   UNL     1       7.427  31.135  58.535  1.00  0.00    -0.219 N 
HETATM   22  C   UNL     1       9.710  30.094  57.551  1.00  0.00     0.035 A 
HETATM   23  C   UNL     1      11.023  29.555  57.045  1.00  0.00     0.070 C 
HETATM   24  C   UNL     1       9.789  31.084  58.671  1.00  0.00     0.053 A 
HETATM   25  C   UNL     1       8.621  31.573  59.123  1.00  0.00     0.036 A 
HETATM   26  C   UNL     1       8.532  32.565  60.241  1.00  0.00     0.070 C 
HETATM   27  N   UNL     1       6.164  31.510  58.854  1.00  0.00    -0.170 NA
HETATM   28  C   UNL     1       5.376  30.796  58.046  1.00  0.00     0.071 A 
HETATM   29  C   UNL     1       3.900  30.945  58.134  1.00  0.00     0.073 C 
ENDBRANCH   1  18
TORSDOF 6
ENDMDL
MODEL 2
REMARK VINA RESULT:      -8.5      3.038      7.494
REMARK  6 active torsions:
REMARK  status: ('A' for Active; 'I' for Inactive)
REMARK    1  A    between atoms: C_9  and  C_10 
REMARK       I    between atoms: C_10  and  N_11 
REMARK    2  A    between atoms: N_11  and  C_12 
REMARK    3  A    between atoms: C_12  and  C_13 
REMARK    4  A    between atoms: C_13  and  O_14 
REMARK    5  A    between atoms: C_13  and  C_15 
REMARK    6  A    between atoms: C_18  and  O_19 
ROOT
HETATM    1  C   UNL     1       7.230  25.531  54.421  1.00  0.00     0.258 C 
HETATM    2  N   UNL     1       6.000  26.050  54.766  1.00  0.00    -0.350 N 
HETATM    3  O   UNL     1       7.899  25.972  53.491  1.00  0.00    -0.267 OA
HETATM    4  H   UNL     1       5.589  25.690  55.626  1.00  0.00     0.163 HD
ENDROOT
BRANCH   2   5
HETATM    5  C   UNL     1       5.471  27.308  54.214  1.00  0.00     0.114 C 
HETATM    6  C   UNL     1       4.270  27.019  53.311  1.00  0.00     0.035 C 
BRANCH   5   7
HETATM    7  C   UNL     1       5.195  28.366  55.325  1.00  0.00     0.173 C 
BRANCH   7   8
HETATM    8  O   UNL     1       4.237  27.815  56.245  1.00  0.00    -0.389 OA
HETATM    9  H   UNL     1       4.766  27.478  56.989  1.00  0.00     0.210 HD
ENDBRANCH   7   8
BRANCH   7  10
HETATM   10  C   UNL     1       6.421  28.801  56.100  1.00  0.00    -0.028 A 
HETATM   11  C   UNL     1       7.633  28.993  55.420  1.00  0.00     0.012 A 
HETATM   12  C   UNL     1       8.784  29.377  56.110  1.00  0.00     0.037 A 
HETATM   13  C   UNL     1       8.750  29.584  57.489  1.00  0.00     0.068 A 
HETATM   14  C   UNL     1       7.551  29.390  58.176  1.00  0.00     0.037 A 
HETATM   15  C   UNL     1       6.396  28.998  57.487  1.00  0.00     0.012 A 
BRANCH  13  16
HETATM   16  O   UNL     1       9.943  29.965  58.036  1.00  0.00    -0.356 OA
HETATM   17  C   UNL     1      11.094  29.842  57.212  1.00  0.00     0.210 C 
ENDBRANCH  13  16
ENDBRANCH   7  10
ENDBRANCH   5   7
ENDBRANCH   2   5
BRANCH   1  18
HETATM   18  C   UNL     1       7.695  24.423  55.234  1.00  0.00     0.105 A 
HETATM   19  C   UNL     1       7.921  23.113  54.846  1.00  0.00     0.169 A 
HETATM   20  N   UNL     1       7.795  22.491  53.629  1.00  0.00    -0.233 NA
HETATM   21  N   UNL     1       8.316  22.422  55.998  1.00  0.00    -0.219 N 
HETATM   22  C   UNL     1       8.051  21.213  53.603  1.00  0.00     0.035 A 
HETATM   23  C   UNL     1       7.925  20.477  52.295  1.00  0.00     0.070 C 
HETATM   24  C   UNL     1       8.468  20.395  54.786  1.00  0.00     0.053 A 
HETATM   25  C   UNL     1       8.587  21.048  55.955  1.00  0.00     0.036 A 
HETATM   26  C   UNL     1       8.988  20.370  57.229  1.00  0.00     0.070 C 
HETATM   27  N   UNL     1       8.379  23.242  57.075  1.00  0.00    -0.170 NA
HETATM   28  C   UNL     1       7.999  24.440  56.621  1.00  0.00     0.071 A 
HETATM   29  C   UNL     1       7.935  25.596  57.553  1.00  0.00     0.073 C 
ENDBRANCH   1  18
TORSDOF 6
ENDMDL
MODEL 3
REMARK VINA RESULT:      -8.4      2.588      7.183
REMARK  6 active torsions:
REMARK  status: ('A' for Active; 'I' for Inactive)
REMARK    1  A    between atoms: C_9  and  C_10 
REMARK       I    between atoms: C_10  and  N_11 
REMARK    2  A    between atoms: N_11  and  C_12 
REMARK    3  A    between atoms: C_12  and  C_13 
REMARK    4  A    between atoms: C_13  and  O_14 
REMARK    5  A    between atoms: C_13  and  C_15 
REMARK    6  A    between atoms: C_18  and  O_19 
ROOT
HETATM    1  C   UNL     1       6.415  27.501  53.777  1.00  0.00     0.258 C 
HETATM    2  N   UNL     1       5.119  27.858  54.082  1.00  0.00    -0.350 N 
HETATM    3  O   UNL     1       7.329  28.318  53.712  1.00  0.00    -0.267 OA
HETATM    4  H   UNL     1       4.466  27.089  54.228  1.00  0.00     0.163 HD
ENDROOT
BRANCH   2   5
HETATM    5  C   UNL     1       4.743  29.193  54.576  1.00  0.00     0.114 C 
HETATM    6  C   UNL     1       3.612  29.768  53.720  1.00  0.00     0.035 C 
BRANCH   5   7
HETATM    7  C   UNL     1       4.448  29.191  56.106  1.00  0.00     0.173 C 
BRANCH   7   8
HETATM    8  O   UNL     1       3.813  27.945  56.442  1.00  0.00    -0.389 OA
HETATM    9  H   UNL     1       4.331  27.265  55.977  1.00  0.00     0.210 HD
ENDBRANCH   7   8
BRANCH   7  10
HETATM   10  C   UNL     1       5.669  29.368  56.984  1.00  0.00    -0.028 A 
HETATM   11  C   UNL     1       5.943  30.628  57.536  1.00  0.00     0.012 A 
HETATM   12  C   UNL     1       7.070  30.826  58.335  1.00  0.00     0.037 A 
HETATM   13  C   UNL     1       7.943  29.772  58.606  1.00  0.00     0.068 A 
HETATM   14  C   UNL     1       7.683  28.516  58.057  1.00  0.00     0.037 A 
HETATM   15  C   UNL     1       6.556  28.316  57.250  1.00  0.00     0.012 A 
BRANCH  13  16
HETATM   16  O   UNL     1       9.000  30.101  59.408  1.00  0.00    -0.356 OA
HETATM   17  C   UNL     1       9.494  31.429  59.303  1.00  0.00     0.210 C 
ENDBRANCH  13  16
ENDBRANCH   7  10
ENDBRANCH   5   7
ENDBRANCH   2   5
BRANCH   1  18
HETATM   18  C   UNL     1       6.639  26.088  53.539  1.00  0.00     0.105 A 
HETATM   19  C   UNL     1       7.241  25.164  54.377  1.00  0.00     0.169 A 
HETATM   20  N   UNL     1       7.774  25.292  55.636  1.00  0.00    -0.233 NA
HETATM   21  N   UNL     1       7.259  23.950  53.680  1.00  0.00    -0.219 N 
HETATM   22  C   UNL     1       8.313  24.221  56.147  1.00  0.00     0.035 A 
HETATM   23  C   UNL     1       8.918  24.302  57.524  1.00  0.00     0.070 C 
HETATM   24  C   UNL     1       8.387  22.888  55.469  1.00  0.00     0.053 A 
HETATM   25  C   UNL     1       7.844  22.808  54.242  1.00  0.00     0.036 A 
HETATM   26  C   UNL     1       7.842  21.547  53.433  1.00  0.00     0.070 C 
HETATM   27  N   UNL     1       6.669  24.064  52.466  1.00  0.00    -0.170 NA
HETATM   28  C   UNL     1       6.304  25.346  52.375  1.00  0.00     0.071 A 
HETATM   29  C   UNL     1       5.629  25.836  51.146  1.00  0.00     0.073 C 
ENDBRANCH   1  18
TORSDOF 6
ENDMDL
MODEL 4
REMARK VINA RESULT:      -8.3      1.685      3.026
REMARK  6 active torsions:
REMARK  status: ('A' for Active; 'I' for Inactive)
REMARK    1  A    between atoms: C_9  and  C_10 
REMARK       I    between atoms: C_10  and  N_11 
REMARK    2  A    between atoms: N_11  and  C_12 
REMARK    3  A    between atoms: C_12  and  C_13 
REMARK    4  A    between atoms: C_13  and  O_14 
REMARK    5  A    between atoms: C_13  and  C_15 
REMARK    6  A    between atoms: C_18  and  O_19 
ROOT
HETATM    1  C   UNL     1       5.701  27.354  56.186  1.00  0.00     0.258 C 
HETATM    2  N   UNL     1       6.102  27.304  54.868  1.00  0.00    -0.350 N 
HETATM    3  O   UNL     1       4.757  26.697  56.616  1.00  0.00    -0.267 OA
HETATM    4  H   UNL     1       6.969  27.794  54.646  1.00  0.00     0.163 HD
ENDROOT
BRANCH   2   5
HETATM    5  C   UNL     1       5.599  26.310  53.906  1.00  0.00     0.114 C 
HETATM    6  C   UNL     1       4.501  26.929  53.040  1.00  0.00     0.035 C 
BRANCH   5   7
HETATM    7  C   UNL     1       6.750  25.641  53.097  1.00  0.00     0.173 C 
BRANCH   7   8
HETATM    8  O   UNL     1       7.909  26.488  53.177  1.00  0.00    -0.389 OA
HETATM    9  H   UNL     1       7.844  27.079  52.406  1.00  0.00     0.210 HD
ENDBRANCH   7   8
BRANCH   7  10
HETATM   10  C   UNL     1       7.128  24.252  53.568  1.00  0.00    -0.028 A 
HETATM   11  C   UNL     1       6.990  23.925  54.926  1.00  0.00     0.012 A 
HETATM   12  C   UNL     1       7.346  22.659  55.393  1.00  0.00     0.037 A 
HETATM   13  C   UNL     1       7.840  21.692  54.518  1.00  0.00     0.068 A 
HETATM   14  C   UNL     1       7.988  22.009  53.167  1.00  0.00     0.037 A 
HETATM   15  C   UNL     1       7.637  23.281  52.696  1.00  0.00     0.012 A 
BRANCH  13  16
HETATM   16  O   UNL     1       8.142  20.495  55.106  1.00  0.00    -0.356 OA
HETATM   17  C   UNL     1       9.251  20.479  55.994  1.00  0.00     0.210 C 
ENDBRANCH  13  16
ENDBRANCH   7  10
ENDBRANCH   5   7
ENDBRANCH   2   5
BRANCH   1  18
HETATM   18  C   UNL     1       6.471  28.233  57.045  1.00  0.00     0.105 A 
HETATM   19  C   UNL     1       6.122  29.485  57.523  1.00  0.00     0.169 A 
HETATM   20  N   UNL     1       4.987  30.238  57.351  1.00  0.00    -0.233 NA
HETATM   21  N   UNL     1       7.214  29.942  58.269  1.00  0.00    -0.219 N 
HETATM   22  C   UNL     1       4.984  31.415  57.911  1.00  0.00     0.035 A 
HETATM   23  C   UNL     1       3.767  32.289  57.752  1.00  0.00     0.070 C 
HETATM   24  C   UNL     1       6.110  31.988  58.715  1.00  0.00     0.053 A 
HETATM   25  C   UNL     1       7.197  31.211  58.864  1.00  0.00     0.036 A 
HETATM   26  C   UNL     1       8.407  31.643  59.634  1.00  0.00     0.070 C 
HETATM   27  N   UNL     1       8.211  29.026  58.308  1.00  0.00    -0.170 NA
HETATM   28  C   UNL     1       7.772  28.004  57.567  1.00  0.00     0.071 A 
HETATM   29  C   UNL     1       8.633  26.808  57.376  1.00  0.00     0.073 C 
ENDBRANCH   1  18
TORSDOF 6
ENDMDL
MODEL 5
REMARK VINA RESULT:      -8.2      2.001      2.949
REMARK  6 active torsions:
REMARK  status: ('A' for Active; 'I' for Inactive)
REMARK    1  A    between atoms: C_9  and  C_10 
REMARK       I    between atoms: C_10  and  N_11 
REMARK    2  A    between atoms: N_11  and  C_12 
REMARK    3  A    between atoms: C_12  and  C_13 
REMARK    4  A    between atoms: C_13  and  O_14 
REMARK    5  A    between atoms: C_13  and  C_15 
REMARK    6  A    between atoms: C_18  and  O_19 
ROOT
HETATM    1  C   UNL     1       7.985  28.730  57.098  1.00  0.00     0.258 C 
HETATM    2  N   UNL     1       7.368  27.502  57.208  1.00  0.00    -0.350 N 
HETATM    3  O   UNL     1       9.068  28.879  56.539  1.00  0.00    -0.267 OA
HETATM    4  H   UNL     1       6.419  27.510  57.581  1.00  0.00     0.163 HD
ENDROOT
BRANCH   2   5
HETATM    5  C   UNL     1       7.821  26.301  56.486  1.00  0.00     0.114 C 
HETATM    6  C   UNL     1       8.439  25.303  57.467  1.00  0.00     0.035 C 
BRANCH   5   7
HETATM    7  C   UNL     1       6.701  25.701  55.584  1.00  0.00     0.173 C 
BRANCH   7   8
HETATM    8  O   UNL     1       6.230  26.735  54.702  1.00  0.00    -0.389 OA
HETATM    9  H   UNL     1       5.261  26.643  54.700  1.00  0.00     0.210 HD
ENDBRANCH   7   8
BRANCH   7  10
HETATM   10  C   UNL     1       7.130  24.510  54.754  1.00  0.00    -0.028 A 
HETATM   11  C   UNL     1       7.201  23.243  55.353  1.00  0.00     0.012 A 
HETATM   12  C   UNL     1       7.609  22.129  54.618  1.00  0.00     0.037 A 
HETATM   13  C   UNL     1       7.948  22.253  53.270  1.00  0.00     0.068 A 
HETATM   14  C   UNL     1       7.887  23.509  52.666  1.00  0.00     0.037 A 
HETATM   15  C   UNL     1       7.483  24.630  53.403  1.00  0.00     0.012 A 
BRANCH  13  16
HETATM   16  O   UNL     1       8.322  21.084  52.669  1.00  0.00    -0.356 OA
HETATM   17  C   UNL     1       8.724  20.023  53.525  1.00  0.00     0.210 C 
ENDBRANCH  13  16
ENDBRANCH   7  10
ENDBRANCH   5   7
ENDBRANCH   2   5
BRANCH   1  18
HETATM   18  C   UNL     1       7.269  29.848  57.681  1.00  0.00     0.105 A 
HETATM   19  C   UNL     1       7.526  30.499  58.876  1.00  0.00     0.169 A 
HETATM   20  N   UNL     1       8.500  30.306  59.824  1.00  0.00    -0.233 NA
HETATM   21  N   UNL     1       6.533  31.475  59.016  1.00  0.00    -0.219 N 
HETATM   22  C   UNL     1       8.444  31.075  60.875  1.00  0.00     0.035 A 
HETATM   23  C   UNL     1       9.485  30.906  61.951  1.00  0.00     0.070 C 
HETATM   24  C   UNL     1       7.413  32.134  61.112  1.00  0.00     0.053 A 
HETATM   25  C   UNL     1       6.484  32.294  60.153  1.00  0.00     0.036 A 
HETATM   26  C   UNL     1       5.384  33.305  60.245  1.00  0.00     0.070 C 
HETATM   27  N   UNL     1       5.690  31.487  57.955  1.00  0.00    -0.170 NA
HETATM   28  C   UNL     1       6.124  30.506  57.158  1.00  0.00     0.071 A 
HETATM   29  C   UNL     1       5.412  30.220  55.885  1.00  0.00     0.073 C 
ENDBRANCH   1  18
TORSDOF 6
ENDMDL
MODEL 6
REMARK VINA RESULT:      -8.1      1.045      2.692
REMARK  6 active torsions:
REMARK  status: ('A' for Active; 'I' for Inactive)
REMARK    1  A    between atoms: C_9  and  C_10 
REMARK       I    between atoms: C_10  and  N_11 
REMARK    2  A    between atoms: N_11  and  C_12 
REMARK    3  A    between atoms: C_12  and  C_13 
REMARK    4  A    between atoms: C_13  and  O_14 
REMARK    5  A    between atoms: C_13  and  C_15 
REMARK    6  A    between atoms: C_18  and  O_19 
ROOT
HETATM    1  C   UNL     1       6.051  28.884  56.517  1.00  0.00     0.258 C 
HETATM    2  N   UNL     1       6.307  29.209  55.202  1.00  0.00    -0.350 N 
HETATM    3  O   UNL     1       5.262  28.001  56.840  1.00  0.00    -0.267 OA
HETATM    4  H   UNL     1       7.066  29.871  55.045  1.00  0.00     0.163 HD
ENDROOT
BRANCH   2   5
HETATM    5  C   UNL     1       5.844  28.398  54.064  1.00  0.00     0.114 C 
HETATM    6  C   UNL     1       4.883  29.213  53.197  1.00  0.00     0.035 C 
BRANCH   5   7
HETATM    7  C   UNL     1       7.028  27.758  53.279  1.00  0.00     0.173 C 
BRANCH   7   8
HETATM    8  O   UNL     1       8.249  28.378  53.720  1.00  0.00    -0.389 OA
HETATM    9  H   UNL     1       8.912  27.666  53.706  1.00  0.00     0.210 HD
ENDBRANCH   7   8
BRANCH   7  10
HETATM   10  C   UNL     1       7.157  26.258  53.442  1.00  0.00    -0.028 A 
HETATM   11  C   UNL     1       6.953  25.684  54.706  1.00  0.00     0.012 A 
HETATM   12  C   UNL     1       7.080  24.306  54.891  1.00  0.00     0.037 A 
HETATM   13  C   UNL     1       7.408  23.473  53.821  1.00  0.00     0.068 A 
HETATM   14  C   UNL     1       7.619  24.034  52.562  1.00  0.00     0.037 A 
HETATM   15  C   UNL     1       7.497  25.418  52.374  1.00  0.00     0.012 A 
BRANCH  13  16
HETATM   16  O   UNL     1       7.493  22.146  54.140  1.00  0.00    -0.356 OA
HETATM   17  C   UNL     1       8.129  21.300  53.191  1.00  0.00     0.210 C 
ENDBRANCH  13  16
ENDBRANCH   7  10
ENDBRANCH   5   7
ENDBRANCH   2   5
BRANCH   1  18
HETATM   18  C   UNL     1       6.781  29.651  57.508  1.00  0.00     0.105 A 
HETATM   19  C   UNL     1       6.310  30.669  58.320  1.00  0.00     0.169 A 
HETATM   20  N   UNL     1       5.063  31.230  58.442  1.00  0.00    -0.233 NA
HETATM   21  N   UNL     1       7.405  31.119  59.067  1.00  0.00    -0.219 N 
HETATM   22  C   UNL     1       4.953  32.217  59.285  1.00  0.00     0.035 A 
HETATM   23  C   UNL     1       3.608  32.874  59.458  1.00  0.00     0.070 C 
HETATM   24  C   UNL     1       6.070  32.769  60.114  1.00  0.00     0.053 A 
HETATM   25  C   UNL     1       7.272  32.184  59.968  1.00  0.00     0.036 A 
HETATM   26  C   UNL     1       8.489  32.624  60.721  1.00  0.00     0.070 C 
HETATM   27  N   UNL     1       8.526  30.411  58.785  1.00  0.00    -0.170 NA
HETATM   28  C   UNL     1       8.156  29.537  57.845  1.00  0.00     0.071 A 
HETATM   29  C   UNL     1       9.156  28.593  57.281  1.00  0.00     0.073 C 
ENDBRANCH   1  18
TORSDOF 6
ENDMDL
MODEL 7
REMARK VINA RESULT:      -8.0      4.269      7.490
REMARK  6 active torsions:
REMARK  status: ('A' for Active; 'I' for Inactive)
REMARK    1  A    between atoms: C_9  and  C_10 
REMARK       I    between atoms: C_10  and  N_11 
REMARK    2  A    between atoms: N_11  and  C_12 
REMARK    3  A    between atoms: C_12  and  C_13 
REMARK    4  A    between atoms: C_13  and  O_14 
REMARK    5  A    between atoms: C_13  and  C_15 
REMARK    6  A    between atoms: C_18  and  O_19 
ROOT
HETATM    1  C   UNL     1       6.809  25.770  54.052  1.00  0.00     0.258 C 
HETATM    2  N   UNL     1       5.580  25.522  53.477  1.00  0.00    -0.350 N 
HETATM    3  O   UNL     1       7.489  26.750  53.765  1.00  0.00    -0.267 OA
HETATM    4  H   UNL     1       5.049  24.749  53.875  1.00  0.00     0.163 HD
ENDROOT
BRANCH   2   5
HETATM    5  C   UNL     1       4.866  26.502  52.643  1.00  0.00     0.114 C 
HETATM    6  C   UNL     1       4.553  27.756  53.462  1.00  0.00     0.035 C 
BRANCH   5   7
HETATM    7  C   UNL     1       5.606  26.783  51.301  1.00  0.00     0.173 C 
BRANCH   7   8
HETATM    8  O   UNL     1       6.498  25.685  51.040  1.00  0.00    -0.389 OA
HETATM    9  H   UNL     1       6.083  24.916  51.468  1.00  0.00     0.210 HD
ENDBRANCH   7   8
BRANCH   7  10
HETATM   10  C   UNL     1       4.697  26.967  50.105  1.00  0.00    -0.028 A 
HETATM   11  C   UNL     1       4.187  28.243  49.818  1.00  0.00     0.012 A 
HETATM   12  C   UNL     1       3.334  28.441  48.732  1.00  0.00     0.037 A 
HETATM   13  C   UNL     1       2.975  27.376  47.907  1.00  0.00     0.068 A 
HETATM   14  C   UNL     1       3.470  26.102  48.186  1.00  0.00     0.037 A 
HETATM   15  C   UNL     1       4.323  25.899  49.279  1.00  0.00     0.012 A 
BRANCH  13  16
HETATM   16  O   UNL     1       2.140  27.710  46.877  1.00  0.00    -0.356 OA
HETATM   17  C   UNL     1       0.775  27.340  47.012  1.00  0.00     0.210 C 
ENDBRANCH  13  16
ENDBRANCH   7  10
ENDBRANCH   5   7
ENDBRANCH   2   5
BRANCH   1  18
HETATM   18  C   UNL     1       7.252  24.796  55.032  1.00  0.00     0.105 A 
HETATM   19  C   UNL     1       7.576  23.465  54.829  1.00  0.00     0.169 A 
HETATM   20  N   UNL     1       7.591  22.697  53.692  1.00  0.00    -0.233 NA
HETATM   21  N   UNL     1       7.899  22.941  56.087  1.00  0.00    -0.219 N 
HETATM   22  C   UNL     1       7.911  21.443  53.845  1.00  0.00     0.035 A 
HETATM   23  C   UNL     1       7.940  20.550  52.632  1.00  0.00     0.070 C 
HETATM   24  C   UNL     1       8.259  20.797  55.151  1.00  0.00     0.053 A 
HETATM   25  C   UNL     1       8.239  21.590  56.236  1.00  0.00     0.036 A 
HETATM   26  C   UNL     1       8.557  21.093  57.613  1.00  0.00     0.070 C 
HETATM   27  N   UNL     1       7.824  23.886  57.055  1.00  0.00    -0.170 NA
HETATM   28  C   UNL     1       7.428  24.996  56.427  1.00  0.00     0.071 A 
HETATM   29  C   UNL     1       7.224  26.249  57.200  1.00  0.00     0.073 C 
ENDBRANCH   1  18
TORSDOF 6
ENDMDL
MODEL 8
REMARK VINA RESULT:      -8.0      3.145      8.352
REMARK  6 active torsions:
REMARK  status: ('A' for Active; 'I' for Inactive)
REMARK    1  A    between atoms: C_9  and  C_10 
REMARK       I    between atoms: C_10  and  N_11 
REMARK    2  A    between atoms: N_11  and  C_12 
REMARK    3  A    between atoms: C_12  and  C_13 
REMARK    4  A    between atoms: C_13  and  O_14 
REMARK    5  A    between atoms: C_13  and  C_15 
REMARK    6  A    between atoms: C_18  and  O_19 
ROOT
HETATM    1  C   UNL     1       6.543  25.653  54.960  1.00  0.00     0.258 C 
HETATM    2  N   UNL     1       7.465  26.678  54.987  1.00  0.00    -0.350 N 
HETATM    3  O   UNL     1       5.443  25.737  55.498  1.00  0.00    -0.267 OA
HETATM    4  H   UNL     1       8.294  26.548  54.407  1.00  0.00     0.163 HD
ENDROOT
BRANCH   2   5
HETATM    5  C   UNL     1       7.150  28.037  55.458  1.00  0.00     0.114 C 
HETATM    6  C   UNL     1       6.005  28.625  54.631  1.00  0.00     0.035 C 
BRANCH   5   7
HETATM    7  C   UNL     1       6.917  28.085  56.998  1.00  0.00     0.173 C 
BRANCH   7   8
HETATM    8  O   UNL     1       7.442  26.875  57.571  1.00  0.00    -0.389 OA
HETATM    9  H   UNL     1       7.433  27.027  58.533  1.00  0.00     0.210 HD
ENDBRANCH   7   8
BRANCH   7  10
HETATM   10  C   UNL     1       7.552  29.270  57.695  1.00  0.00    -0.028 A 
HETATM   11  C   UNL     1       6.732  30.296  58.190  1.00  0.00     0.012 A 
HETATM   12  C   UNL     1       7.289  31.409  58.823  1.00  0.00     0.037 A 
HETATM   13  C   UNL     1       8.670  31.519  58.981  1.00  0.00     0.068 A 
HETATM   14  C   UNL     1       9.495  30.508  58.488  1.00  0.00     0.037 A 
HETATM   15  C   UNL     1       8.939  29.392  57.847  1.00  0.00     0.012 A 
BRANCH  13  16
HETATM   16  O   UNL     1       9.080  32.654  59.624  1.00  0.00    -0.356 OA
HETATM   17  C   UNL     1       9.105  32.612  61.045  1.00  0.00     0.210 C 
ENDBRANCH  13  16
ENDBRANCH   7  10
ENDBRANCH   5   7
ENDBRANCH   2   5
BRANCH   1  18
HETATM   18  C   UNL     1       6.951  24.459  54.245  1.00  0.00     0.105 A 
HETATM   19  C   UNL     1       7.411  23.263  54.771  1.00  0.00     0.169 A 
HETATM   20  N   UNL     1       7.601  22.853  56.067  1.00  0.00    -0.233 NA
HETATM   21  N   UNL     1       7.716  22.443  53.678  1.00  0.00    -0.219 N 
HETATM   22  C   UNL     1       8.094  21.658  56.229  1.00  0.00     0.035 A 
HETATM   23  C   UNL     1       8.328  21.156  57.630  1.00  0.00     0.070 C 
HETATM   24  C   UNL     1       8.459  20.720  55.121  1.00  0.00     0.053 A 
HETATM   25  C   UNL     1       8.248  21.160  53.868  1.00  0.00     0.036 A 
HETATM   26  C   UNL     1       8.567  20.344  52.654  1.00  0.00     0.070 C 
HETATM   27  N   UNL     1       7.438  23.054  52.501  1.00  0.00    -0.170 NA
HETATM   28  C   UNL     1       6.988  24.266  52.839  1.00  0.00     0.071 A 
HETATM   29  C   UNL     1       6.596  25.230  51.777  1.00  0.00     0.073 C 
ENDBRANCH   1  18
TORSDOF 6
ENDMDL
MODEL 9
REMARK VINA RESULT:      -8.0      3.804      5.653
REMARK  6 active torsions:
REMARK  status: ('A' for Active; 'I' for Inactive)
REMARK    1  A    between atoms: C_9  and  C_10 
REMARK       I    between atoms: C_10  and  N_11 
REMARK    2  A    between atoms: N_11  and  C_12 
REMARK    3  A    between atoms: C_12  and  C_13 
REMARK    4  A    between atoms: C_13  and  O_14 
REMARK    5  A    between atoms: C_13  and  C_15 
REMARK    6  A    between atoms: C_18  and  O_19 
ROOT
HETATM    1  C   UNL     1       4.095  32.300  59.887  1.00  0.00     0.258 C 
HETATM    2  N   UNL     1       4.933  31.570  59.072  1.00  0.00    -0.350 N 
HETATM    3  O   UNL     1       2.946  32.589  59.568  1.00  0.00    -0.267 OA
HETATM    4  H   UNL     1       5.821  31.284  59.484  1.00  0.00     0.163 HD
ENDROOT
BRANCH   2   5
HETATM    5  C   UNL     1       4.476  30.877  57.856  1.00  0.00     0.114 C 
HETATM    6  C   UNL     1       4.711  31.762  56.630  1.00  0.00     0.035 C 
BRANCH   5   7
HETATM    7  C   UNL     1       5.077  29.445  57.734  1.00  0.00     0.173 C 
BRANCH   7   8
HETATM    8  O   UNL     1       4.282  28.700  56.795  1.00  0.00    -0.389 OA
HETATM    9  H   UNL     1       4.319  27.779  57.107  1.00  0.00     0.210 HD
ENDBRANCH   7   8
BRANCH   7  10
HETATM   10  C   UNL     1       6.523  29.403  57.289  1.00  0.00    -0.028 A 
HETATM   11  C   UNL     1       7.535  29.725  58.206  1.00  0.00     0.012 A 
HETATM   12  C   UNL     1       8.877  29.711  57.821  1.00  0.00     0.037 A 
HETATM   13  C   UNL     1       9.238  29.372  56.517  1.00  0.00     0.068 A 
HETATM   14  C   UNL     1       8.239  29.056  55.594  1.00  0.00     0.037 A 
HETATM   15  C   UNL     1       6.891  29.075  55.977  1.00  0.00     0.012 A 
BRANCH  13  16
HETATM   16  O   UNL     1      10.583  29.391  56.276  1.00  0.00    -0.356 OA
HETATM   17  C   UNL     1      11.409  29.935  57.297  1.00  0.00     0.210 C 
ENDBRANCH  13  16
ENDBRANCH   7  10
ENDBRANCH   5   7
ENDBRANCH   2   5
BRANCH   1  18
HETATM   18  C   UNL     1       4.657  32.708  61.161  1.00  0.00     0.105 A 
HETATM   19  C   UNL     1       5.935  32.483  61.645  1.00  0.00     0.169 A 
HETATM   20  N   UNL     1       7.017  31.847  61.089  1.00  0.00    -0.233 NA
HETATM   21  N   UNL     1       5.972  33.029  62.933  1.00  0.00    -0.219 N 
HETATM   22  C   UNL     1       8.085  31.767  61.832  1.00  0.00     0.035 A 
HETATM   23  C   UNL     1       9.303  31.077  61.275  1.00  0.00     0.070 C 
HETATM   24  C   UNL     1       8.210  32.312  63.220  1.00  0.00     0.053 A 
HETATM   25  C   UNL     1       7.127  32.934  63.721  1.00  0.00     0.036 A 
HETATM   26  C   UNL     1       7.092  33.526  65.095  1.00  0.00     0.070 C 
HETATM   27  N   UNL     1       4.794  33.612  63.263  1.00  0.00    -0.170 NA
HETATM   28  C   UNL     1       4.001  33.413  62.206  1.00  0.00     0.071 A 
HETATM   29  C   UNL     1       2.603  33.916  62.227  1.00  0.00     0.073 C 
ENDBRANCH   1  18
TORSDOF 6
ENDMDL
MODEL 10
REMARK VINA RESULT:      -8.0      3.019      6.776
REMARK  6 active torsions:
REMARK  status: ('A' for Active; 'I' for Inactive)
REMARK    1  A    between atoms: C_9  and  C_10 
REMARK       I    between atoms: C_10  and  N_11 
REMARK    2  A    between atoms: N_11  and  C_12 
REMARK    3  A    between atoms: C_12  and  C_13 
REMARK    4  A    between atoms: C_13  and  O_14 
REMARK    5  A    between atoms: C_13  and  C_15 
REMARK    6  A    between atoms: C_18  and  O_19 
ROOT
HETATM    1  C   UNL     1       6.617  27.720  53.806  1.00  0.00     0.258 C 
HETATM    2  N   UNL     1       5.726  27.762  54.857  1.00  0.00    -0.350 N 
HETATM    3  O   UNL     1       7.800  28.027  53.928  1.00  0.00    -0.267 OA
HETATM    4  H   UNL     1       4.801  27.372  54.675  1.00  0.00     0.163 HD
ENDROOT
BRANCH   2   5
HETATM    5  C   UNL     1       6.136  27.955  56.258  1.00  0.00     0.114 C 
HETATM    6  C   UNL     1       5.479  29.214  56.827  1.00  0.00     0.035 C 
BRANCH   5   7
HETATM    7  C   UNL     1       5.912  26.674  57.117  1.00  0.00     0.173 C 
BRANCH   7   8
HETATM    8  O   UNL     1       4.527  26.300  57.017  1.00  0.00    -0.389 OA
HETATM    9  H   UNL     1       4.379  25.681  57.753  1.00  0.00     0.210 HD
ENDBRANCH   7   8
BRANCH   7  10
HETATM   10  C   UNL     1       6.766  25.489  56.717  1.00  0.00    -0.028 A 
HETATM   11  C   UNL     1       8.060  25.365  57.246  1.00  0.00     0.012 A 
HETATM   12  C   UNL     1       8.877  24.293  56.884  1.00  0.00     0.037 A 
HETATM   13  C   UNL     1       8.421  23.321  55.994  1.00  0.00     0.068 A 
HETATM   14  C   UNL     1       7.139  23.438  55.457  1.00  0.00     0.037 A 
HETATM   15  C   UNL     1       6.318  24.517  55.814  1.00  0.00     0.012 A 
BRANCH  13  16
HETATM   16  O   UNL     1       9.319  22.323  55.732  1.00  0.00    -0.356 OA
HETATM   17  C   UNL     1       8.919  21.332  54.795  1.00  0.00     0.210 C 
ENDBRANCH  13  16
ENDBRANCH   7  10
ENDBRANCH   5   7
ENDBRANCH   2   5
BRANCH   1  18
HETATM   18  C   UNL     1       6.071  27.283  52.536  1.00  0.00     0.105 A 
HETATM   19  C   UNL     1       5.105  27.904  51.760  1.00  0.00     0.169 A 
HETATM   20  N   UNL     1       4.412  29.075  51.939  1.00  0.00    -0.233 NA
HETATM   21  N   UNL     1       4.889  27.070  50.657  1.00  0.00    -0.219 N 
HETATM   22  C   UNL     1       3.526  29.366  51.029  1.00  0.00     0.035 A 
HETATM   23  C   UNL     1       2.731  30.638  51.174  1.00  0.00     0.070 C 
HETATM   24  C   UNL     1       3.221  28.530  49.825  1.00  0.00     0.053 A 
HETATM   25  C   UNL     1       3.931  27.396  49.687  1.00  0.00     0.036 A 
HETATM   26  C   UNL     1       3.739  26.450  48.542  1.00  0.00     0.070 C 
HETATM   27  N   UNL     1       5.692  25.980  50.689  1.00  0.00    -0.170 NA
HETATM   28  C   UNL     1       6.395  26.101  51.819  1.00  0.00     0.071 A 
HETATM   29  C   UNL     1       7.383  25.054  52.189  1.00  0.00     0.073 C 
ENDBRANCH   1  18
TORSDOF 6
ENDMDL
