MODEL 1
REMARK VINA RESULT:      -8.3      0.000      0.000
REMARK  3 active torsions:
REMARK  status: ('A' for Active; 'I' for Inactive)
REMARK    1  A    between atoms: C_2  and  N_3 
REMARK    2  A    between atoms: N_3  and  C_4 
REMARK    3  A    between atoms: C_12  and  C_13 
ROOT
HETATM    1  C   UNL     1       7.411  24.904  53.428  1.00  0.00     0.139 A 
HETATM    2  N   UNL     1       7.782  23.839  52.684  1.00  0.00    -0.224 NA
HETATM    3  C   UNL     1       8.348  22.780  53.277  1.00  0.00     0.236 A 
HETATM    4  N   UNL     1       8.608  22.622  54.572  1.00  0.00    -0.234 NA
HETATM    5  C   UNL     1       8.219  23.680  55.301  1.00  0.00     0.113 A 
HETATM    6  C   UNL     1       7.617  24.841  54.833  1.00  0.00     0.055 A 
HETATM    7  S   UNL     1       8.451  23.676  56.984  1.00  0.00    -0.081 SA
HETATM    8  C   UNL     1       7.743  25.216  57.144  1.00  0.00     0.062 A 
HETATM    9  C   UNL     1       7.320  25.753  55.939  1.00  0.00    -0.003 A 
ENDROOT
BRANCH   9  10
HETATM   10  C   UNL     1       6.639  27.104  55.771  1.00  0.00     0.188 C 
HETATM   11  O   UNL     1       7.492  28.035  55.072  1.00  0.00    -0.336 OA
HETATM   12  C   UNL     1       8.355  28.683  55.916  1.00  0.00     0.103 A 
HETATM   13  C   UNL     1       8.179  28.735  57.301  1.00  0.00     0.102 A 
HETATM   14  C   UNL     1       9.452  29.309  55.326  1.00  0.00     0.040 A 
HETATM   15  O   UNL     1       7.118  28.162  57.950  1.00  0.00    -0.345 OA
HETATM   16  C   UNL     1       9.124  29.378  58.098  1.00  0.00     0.039 A 
HETATM   17  C   UNL     1       6.086  27.764  57.039  1.00  0.00     0.213 C 
HETATM   18  C   UNL     1      10.231  29.992  57.510  1.00  0.00     0.003 A 
HETATM   19  C   UNL     1      10.393  29.961  56.124  1.00  0.00     0.003 A 
ENDBRANCH   9  10
BRANCH   1  20
HETATM   20  N   UNL     1       6.836  26.015  52.820  1.00  0.00    -0.366 N 
HETATM   21  H   UNL     1       7.486  26.410  52.141  1.00  0.00     0.162 HD
BRANCH  20  22
HETATM   22  C   UNL     1       5.445  26.048  52.341  1.00  0.00     0.021 C 
HETATM   23  C   UNL     1       4.578  24.962  52.992  1.00  0.00     0.037 C 
HETATM   24  C   UNL     1       5.387  25.973  50.809  1.00  0.00     0.037 C 
HETATM   25  C   UNL     1       4.875  27.416  52.777  1.00  0.00     0.037 C 
ENDBRANCH  20  22
ENDBRANCH   1  20
TORSDOF 3
ENDMDL
MODEL 2
REMARK VINA RESULT:      -7.5      3.586      6.401
REMARK  3 active torsions:
REMARK  status: ('A' for Active; 'I' for Inactive)
REMARK    1  A    between atoms: C_2  and  N_3 
REMARK    2  A    between atoms: N_3  and  C_4 
REMARK    3  A    between atoms: C_12  and  C_13 
ROOT
HETATM    1  C   UNL     1       6.872  30.149  58.111  1.00  0.00     0.139 A 
HETATM    2  N   UNL     1       7.254  30.819  59.220  1.00  0.00    -0.224 NA
HETATM    3  C   UNL     1       8.549  31.105  59.409  1.00  0.00     0.236 A 
HETATM    4  N   UNL     1       9.568  30.807  58.607  1.00  0.00    -0.234 NA
HETATM    5  C   UNL     1       9.171  30.157  57.503  1.00  0.00     0.113 A 
HETATM    6  C   UNL     1       7.873  29.795  57.166  1.00  0.00     0.055 A 
HETATM    7  S   UNL     1      10.320  29.691  56.339  1.00  0.00    -0.081 SA
HETATM    8  C   UNL     1       9.120  29.007  55.344  1.00  0.00     0.062 A 
HETATM    9  C   UNL     1       7.842  29.120  55.867  1.00  0.00    -0.003 A 
ENDROOT
BRANCH   9  10
HETATM   10  C   UNL     1       6.572  28.616  55.198  1.00  0.00     0.188 C 
HETATM   11  O   UNL     1       5.994  27.518  55.934  1.00  0.00    -0.336 OA
HETATM   12  C   UNL     1       6.541  26.312  55.583  1.00  0.00     0.103 A 
HETATM   13  C   UNL     1       7.273  26.114  54.410  1.00  0.00     0.102 A 
HETATM   14  C   UNL     1       6.339  25.254  56.469  1.00  0.00     0.040 A 
HETATM   15  O   UNL     1       7.496  27.098  53.484  1.00  0.00    -0.345 OA
HETATM   16  C   UNL     1       7.835  24.867  54.142  1.00  0.00     0.039 A 
HETATM   17  C   UNL     1       6.670  28.247  53.714  1.00  0.00     0.213 C 
HETATM   18  C   UNL     1       7.646  23.811  55.035  1.00  0.00     0.003 A 
HETATM   19  C   UNL     1       6.894  24.004  56.196  1.00  0.00     0.003 A 
ENDBRANCH   9  10
BRANCH   1  20
HETATM   20  N   UNL     1       5.532  29.832  57.913  1.00  0.00    -0.366 N 
HETATM   21  H   UNL     1       5.209  29.220  58.662  1.00  0.00     0.162 HD
BRANCH  20  22
HETATM   22  C   UNL     1       4.513  30.822  57.527  1.00  0.00     0.021 C 
HETATM   23  C   UNL     1       5.102  31.970  56.696  1.00  0.00     0.037 C 
HETATM   24  C   UNL     1       3.758  31.345  58.757  1.00  0.00     0.037 C 
HETATM   25  C   UNL     1       3.507  30.070  56.628  1.00  0.00     0.037 C 
ENDBRANCH  20  22
ENDBRANCH   1  20
TORSDOF 3
ENDMDL
MODEL 3
REMARK VINA RESULT:      -7.2      2.560      4.538
REMARK  3 active torsions:
REMARK  status: ('A' for Active; 'I' for Inactive)
REMARK    1  A    between atoms: C_2  and  N_3 
REMARK    2  A    between atoms: N_3  and  C_4 
REMARK    3  A    between atoms: C_12  and  C_13 
ROOT
HETATM    1  C   UNL     1       6.497  27.202  54.610  1.00  0.00     0.139 A 
HETATM    2  N   UNL     1       5.806  27.007  53.467  1.00  0.00    -0.224 NA
HETATM    3  C   UNL     1       4.911  27.921  53.068  1.00  0.00     0.236 A 
HETATM    4  N   UNL     1       4.594  29.061  53.677  1.00  0.00    -0.234 NA
HETATM    5  C   UNL     1       5.301  29.249  54.802  1.00  0.00     0.113 A 
HETATM    6  C   UNL     1       6.261  28.400  55.338  1.00  0.00     0.055 A 
HETATM    7  S   UNL     1       5.056  30.653  55.729  1.00  0.00    -0.081 SA
HETATM    8  C   UNL     1       6.233  30.179  56.865  1.00  0.00     0.062 A 
HETATM    9  C   UNL     1       6.828  28.964  56.564  1.00  0.00    -0.003 A 
ENDROOT
BRANCH   9  10
HETATM   10  C   UNL     1       7.920  28.295  57.386  1.00  0.00     0.188 C 
HETATM   11  O   UNL     1       7.866  28.714  58.765  1.00  0.00    -0.336 OA
HETATM   12  C   UNL     1       8.553  29.880  58.981  1.00  0.00     0.103 A 
HETATM   13  C   UNL     1       9.498  30.390  58.088  1.00  0.00     0.102 A 
HETATM   14  C   UNL     1       8.265  30.564  60.162  1.00  0.00     0.040 A 
HETATM   15  O   UNL     1       9.847  29.766  56.920  1.00  0.00    -0.345 OA
HETATM   16  C   UNL     1      10.125  31.605  58.357  1.00  0.00     0.039 A 
HETATM   17  C   UNL     1       9.355  28.421  56.864  1.00  0.00     0.213 C 
HETATM   18  C   UNL     1       9.826  32.299  59.531  1.00  0.00     0.003 A 
HETATM   19  C   UNL     1       8.900  31.776  60.435  1.00  0.00     0.003 A 
ENDBRANCH   9  10
BRANCH   1  20
HETATM   20  N   UNL     1       7.417  26.251  55.041  1.00  0.00    -0.366 N 
HETATM   21  H   UNL     1       8.194  26.712  55.512  1.00  0.00     0.162 HD
BRANCH  20  22
HETATM   22  C   UNL     1       7.034  24.994  55.704  1.00  0.00     0.021 C 
HETATM   23  C   UNL     1       6.932  23.822  54.717  1.00  0.00     0.037 C 
HETATM   24  C   UNL     1       5.739  25.168  56.509  1.00  0.00     0.037 C 
HETATM   25  C   UNL     1       8.175  24.667  56.692  1.00  0.00     0.037 C 
ENDBRANCH  20  22
ENDBRANCH   1  20
TORSDOF 3
ENDMDL
MODEL 4
REMARK VINA RESULT:      -7.1      2.808      6.042
REMARK  3 active torsions:
REMARK  status: ('A' for Active; 'I' for Inactive)
REMARK    1  A    between atoms: C_2  and  N_3 
REMARK    2  A    between atoms: N_3  and  C_4 
REMARK    3  A    between atoms: C_12  and  C_13 
ROOT
HETATM    1  C   UNL     1       6.278  27.850  54.439  1.00  0.00     0.139 A 
HETATM    2  N   UNL     1       5.379  28.832  54.210  1.00  0.00    -0.224 NA
HETATM    3  C   UNL     1       4.280  28.571  53.492  1.00  0.00     0.236 A 
HETATM    4  N   UNL     1       3.929  27.410  52.944  1.00  0.00    -0.234 NA
HETATM    5  C   UNL     1       4.822  26.441  53.194  1.00  0.00     0.113 A 
HETATM    6  C   UNL     1       6.000  26.556  53.921  1.00  0.00     0.055 A 
HETATM    7  S   UNL     1       4.558  24.873  52.591  1.00  0.00    -0.081 SA
HETATM    8  C   UNL     1       5.997  24.297  53.295  1.00  0.00     0.062 A 
HETATM    9  C   UNL     1       6.694  25.269  53.993  1.00  0.00    -0.003 A 
ENDROOT
BRANCH   9  10
HETATM   10  C   UNL     1       8.004  25.047  54.736  1.00  0.00     0.188 C 
HETATM   11  O   UNL     1       8.832  24.082  54.056  1.00  0.00    -0.336 OA
HETATM   12  C   UNL     1       8.526  22.794  54.409  1.00  0.00     0.103 A 
HETATM   13  C   UNL     1       7.789  22.465  55.550  1.00  0.00     0.102 A 
HETATM   14  C   UNL     1       8.988  21.788  53.561  1.00  0.00     0.040 A 
HETATM   15  O   UNL     1       7.319  23.395  56.439  1.00  0.00    -0.345 OA
HETATM   16  C   UNL     1       7.481  21.133  55.819  1.00  0.00     0.039 A 
HETATM   17  C   UNL     1       7.904  24.685  56.223  1.00  0.00     0.213 C 
HETATM   18  C   UNL     1       7.930  20.127  54.963  1.00  0.00     0.003 A 
HETATM   19  C   UNL     1       8.687  20.454  53.836  1.00  0.00     0.003 A 
ENDBRANCH   9  10
BRANCH   1  20
HETATM   20  N   UNL     1       7.432  28.116  55.170  1.00  0.00    -0.366 N 
HETATM   21  H   UNL     1       8.057  28.707  54.623  1.00  0.00     0.162 HD
BRANCH  20  22
HETATM   22  C   UNL     1       7.422  28.486  56.594  1.00  0.00     0.021 C 
HETATM   23  C   UNL     1       6.382  27.691  57.395  1.00  0.00     0.037 C 
HETATM   24  C   UNL     1       7.233  29.999  56.770  1.00  0.00     0.037 C 
HETATM   25  C   UNL     1       8.815  28.108  57.143  1.00  0.00     0.037 C 
ENDBRANCH  20  22
ENDBRANCH   1  20
TORSDOF 3
ENDMDL
MODEL 5
REMARK VINA RESULT:      -6.9      2.779      4.574
REMARK  3 active torsions:
REMARK  status: ('A' for Active; 'I' for Inactive)
REMARK    1  A    between atoms: C_2  and  N_3 
REMARK    2  A    between atoms: N_3  and  C_4 
REMARK    3  A    between atoms: C_12  and  C_13 
ROOT
HETATM    1  C   UNL     1       4.571  27.726  54.224  1.00  0.00     0.139 A 
HETATM    2  N   UNL     1       3.725  27.796  53.174  1.00  0.00    -0.224 NA
HETATM    3  C   UNL     1       3.212  28.979  52.812  1.00  0.00     0.236 A 
HETATM    4  N   UNL     1       3.437  30.163  53.375  1.00  0.00    -0.234 NA
HETATM    5  C   UNL     1       4.292  30.081  54.406  1.00  0.00     0.113 A 
HETATM    6  C   UNL     1       4.906  28.935  54.893  1.00  0.00     0.055 A 
HETATM    7  S   UNL     1       4.723  31.487  55.260  1.00  0.00    -0.081 SA
HETATM    8  C   UNL     1       5.753  30.612  56.295  1.00  0.00     0.062 A 
HETATM    9  C   UNL     1       5.791  29.256  56.014  1.00  0.00    -0.003 A 
ENDROOT
BRANCH   9  10
HETATM   10  C   UNL     1       6.631  28.228  56.760  1.00  0.00     0.188 C 
HETATM   11  O   UNL     1       6.971  28.693  58.083  1.00  0.00    -0.336 OA
HETATM   12  C   UNL     1       8.097  29.472  58.086  1.00  0.00     0.103 A 
HETATM   13  C   UNL     1       9.015  29.500  57.033  1.00  0.00     0.102 A 
HETATM   14  C   UNL     1       8.303  30.266  59.214  1.00  0.00     0.040 A 
HETATM   15  O   UNL     1       8.890  28.736  55.903  1.00  0.00    -0.345 OA
HETATM   16  C   UNL     1      10.115  30.352  57.091  1.00  0.00     0.039 A 
HETATM   17  C   UNL     1       7.891  27.719  56.052  1.00  0.00     0.213 C 
HETATM   18  C   UNL     1      10.315  31.158  58.213  1.00  0.00     0.003 A 
HETATM   19  C   UNL     1       9.411  31.112  59.276  1.00  0.00     0.003 A 
ENDBRANCH   9  10
BRANCH   1  20
HETATM   20  N   UNL     1       5.097  26.499  54.618  1.00  0.00    -0.366 N 
HETATM   21  H   UNL     1       4.419  26.006  55.197  1.00  0.00     0.162 HD
BRANCH  20  22
HETATM   22  C   UNL     1       5.811  25.593  53.704  1.00  0.00     0.021 C 
HETATM   23  C   UNL     1       4.863  24.885  52.726  1.00  0.00     0.037 C 
HETATM   24  C   UNL     1       6.671  24.589  54.484  1.00  0.00     0.037 C 
HETATM   25  C   UNL     1       6.754  26.487  52.868  1.00  0.00     0.037 C 
ENDBRANCH  20  22
ENDBRANCH   1  20
TORSDOF 3
ENDMDL
MODEL 6
REMARK VINA RESULT:      -6.9      9.142     11.824
REMARK  3 active torsions:
REMARK  status: ('A' for Active; 'I' for Inactive)
REMARK    1  A    between atoms: C_2  and  N_3 
REMARK    2  A    between atoms: N_3  and  C_4 
REMARK    3  A    between atoms: C_12  and  C_13 
ROOT
HETATM    1  C   UNL     1       5.489  33.156  60.619  1.00  0.00     0.139 A 
HETATM    2  N   UNL     1       5.147  32.175  59.756  1.00  0.00    -0.224 NA
HETATM    3  C   UNL     1       3.931  32.179  59.195  1.00  0.00     0.236 A 
HETATM    4  N   UNL     1       2.959  33.070  59.379  1.00  0.00    -0.234 NA
HETATM    5  C   UNL     1       3.320  34.047  60.226  1.00  0.00     0.113 A 
HETATM    6  C   UNL     1       4.539  34.180  60.878  1.00  0.00     0.055 A 
HETATM    7  S   UNL     1       2.224  35.294  60.590  1.00  0.00    -0.081 SA
HETATM    8  C   UNL     1       3.347  36.059  61.617  1.00  0.00     0.062 A 
HETATM    9  C   UNL     1       4.559  35.392  61.699  1.00  0.00    -0.003 A 
ENDROOT
BRANCH   9  10
HETATM   10  C   UNL     1       5.755  35.843  62.525  1.00  0.00     0.188 C 
HETATM   11  O   UNL     1       6.119  34.847  63.503  1.00  0.00    -0.336 OA
HETATM   12  C   UNL     1       5.398  34.967  64.661  1.00  0.00     0.103 A 
HETATM   13  C   UNL     1       4.687  36.119  65.007  1.00  0.00     0.102 A 
HETATM   14  C   UNL     1       5.394  33.861  65.510  1.00  0.00     0.040 A 
HETATM   15  O   UNL     1       4.660  37.250  64.234  1.00  0.00    -0.345 OA
HETATM   16  C   UNL     1       3.941  36.150  66.183  1.00  0.00     0.039 A 
HETATM   17  C   UNL     1       5.652  37.215  63.200  1.00  0.00     0.213 C 
HETATM   18  C   UNL     1       3.924  35.038  67.027  1.00  0.00     0.003 A 
HETATM   19  C   UNL     1       4.654  33.896  66.693  1.00  0.00     0.003 A 
ENDBRANCH   9  10
BRANCH   1  20
HETATM   20  N   UNL     1       6.745  33.151  61.220  1.00  0.00    -0.366 N 
HETATM   21  H   UNL     1       6.921  34.055  61.655  1.00  0.00     0.162 HD
BRANCH  20  22
HETATM   22  C   UNL     1       7.249  32.034  62.035  1.00  0.00     0.021 C 
HETATM   23  C   UNL     1       8.045  31.019  61.203  1.00  0.00     0.037 C 
HETATM   24  C   UNL     1       6.110  31.359  62.811  1.00  0.00     0.037 C 
HETATM   25  C   UNL     1       8.225  32.659  63.057  1.00  0.00     0.037 C 
ENDBRANCH  20  22
ENDBRANCH   1  20
TORSDOF 3
ENDMDL
MODEL 7
REMARK VINA RESULT:      -6.7      2.674      5.095
REMARK  3 active torsions:
REMARK  status: ('A' for Active; 'I' for Inactive)
REMARK    1  A    between atoms: C_2  and  N_3 
REMARK    2  A    between atoms: N_3  and  C_4 
REMARK    3  A    between atoms: C_12  and  C_13 
ROOT
HETATM    1  C   UNL     1       7.652  24.033  55.788  1.00  0.00     0.139 A 
HETATM    2  N   UNL     1       8.134  23.579  56.966  1.00  0.00    -0.224 NA
HETATM    3  C   UNL     1       8.548  24.451  57.894  1.00  0.00     0.236 A 
HETATM    4  N   UNL     1       8.546  25.779  57.813  1.00  0.00    -0.234 NA
HETATM    5  C   UNL     1       8.049  26.216  56.645  1.00  0.00     0.113 A 
HETATM    6  C   UNL     1       7.579  25.439  55.594  1.00  0.00     0.055 A 
HETATM    7  S   UNL     1       7.948  27.885  56.342  1.00  0.00    -0.081 SA
HETATM    8  C   UNL     1       7.261  27.624  54.806  1.00  0.00     0.062 A 
HETATM    9  C   UNL     1       7.095  26.283  54.500  1.00  0.00    -0.003 A 
ENDROOT
BRANCH   9  10
HETATM   10  C   UNL     1       6.494  25.745  53.209  1.00  0.00     0.188 C 
HETATM   11  O   UNL     1       6.598  26.711  52.143  1.00  0.00    -0.336 OA
HETATM   12  C   UNL     1       5.555  27.599  52.143  1.00  0.00     0.103 A 
HETATM   13  C   UNL     1       4.357  27.376  52.827  1.00  0.00     0.102 A 
HETATM   14  C   UNL     1       5.737  28.775  51.416  1.00  0.00     0.040 A 
HETATM   15  O   UNL     1       4.099  26.239  53.546  1.00  0.00    -0.345 OA
HETATM   16  C   UNL     1       3.358  28.347  52.816  1.00  0.00     0.039 A 
HETATM   17  C   UNL     1       5.060  25.209  53.282  1.00  0.00     0.213 C 
HETATM   18  C   UNL     1       3.544  29.531  52.101  1.00  0.00     0.003 A 
HETATM   19  C   UNL     1       4.732  29.743  51.397  1.00  0.00     0.003 A 
ENDBRANCH   9  10
BRANCH   1  20
HETATM   20  N   UNL     1       7.236  23.134  54.811  1.00  0.00    -0.366 N 
HETATM   21  H   UNL     1       6.899  23.644  53.996  1.00  0.00     0.162 HD
BRANCH  20  22
HETATM   22  C   UNL     1       7.997  21.931  54.438  1.00  0.00     0.021 C 
HETATM   23  C   UNL     1       7.613  20.711  55.287  1.00  0.00     0.037 C 
HETATM   24  C   UNL     1       9.508  22.198  54.485  1.00  0.00     0.037 C 
HETATM   25  C   UNL     1       7.609  21.617  52.976  1.00  0.00     0.037 C 
ENDBRANCH  20  22
ENDBRANCH   1  20
TORSDOF 3
ENDMDL
MODEL 8
REMARK VINA RESULT:      -6.6      9.193     11.276
REMARK  3 active torsions:
REMARK  status: ('A' for Active; 'I' for Inactive)
REMARK    1  A    between atoms: C_2  and  N_3 
REMARK    2  A    between atoms: N_3  and  C_4 
REMARK    3  A    between atoms: C_12  and  C_13 
ROOT
HETATM    1  C   UNL     1       6.026  33.178  60.800  1.00  0.00     0.139 A 
HETATM    2  N   UNL     1       6.730  32.146  60.289  1.00  0.00    -0.224 NA
HETATM    3  C   UNL     1       7.632  31.514  61.052  1.00  0.00     0.236 A 
HETATM    4  N   UNL     1       7.944  31.777  62.319  1.00  0.00    -0.234 NA
HETATM    5  C   UNL     1       7.224  32.794  62.818  1.00  0.00     0.113 A 
HETATM    6  C   UNL     1       6.256  33.538  62.156  1.00  0.00     0.055 A 
HETATM    7  S   UNL     1       7.461  33.285  64.428  1.00  0.00    -0.081 SA
HETATM    8  C   UNL     1       6.270  34.494  64.296  1.00  0.00     0.062 A 
HETATM    9  C   UNL     1       5.676  34.545  63.046  1.00  0.00    -0.003 A 
ENDROOT
BRANCH   9  10
HETATM   10  C   UNL     1       4.573  35.511  62.637  1.00  0.00     0.188 C 
HETATM   11  O   UNL     1       5.049  36.467  61.667  1.00  0.00    -0.336 OA
HETATM   12  C   UNL     1       5.645  37.551  62.256  1.00  0.00     0.103 A 
HETATM   13  C   UNL     1       5.476  37.882  63.603  1.00  0.00     0.102 A 
HETATM   14  C   UNL     1       6.456  38.336  61.438  1.00  0.00     0.040 A 
HETATM   15  O   UNL     1       4.681  37.171  64.461  1.00  0.00    -0.345 OA
HETATM   16  C   UNL     1       6.151  38.977  64.140  1.00  0.00     0.039 A 
HETATM   17  C   UNL     1       3.839  36.242  63.766  1.00  0.00     0.213 C 
HETATM   18  C   UNL     1       6.975  39.755  63.326  1.00  0.00     0.003 A 
HETATM   19  C   UNL     1       7.124  39.438  61.974  1.00  0.00     0.003 A 
ENDBRANCH   9  10
BRANCH   1  20
HETATM   20  N   UNL     1       5.099  33.851  60.010  1.00  0.00    -0.366 N 
HETATM   21  H   UNL     1       5.578  34.322  59.244  1.00  0.00     0.162 HD
BRANCH  20  22
HETATM   22  C   UNL     1       3.817  33.264  59.586  1.00  0.00     0.021 C 
HETATM   23  C   UNL     1       3.297  32.219  60.583  1.00  0.00     0.037 C 
HETATM   24  C   UNL     1       3.917  32.688  58.167  1.00  0.00     0.037 C 
HETATM   25  C   UNL     1       2.801  34.428  59.564  1.00  0.00     0.037 C 
ENDBRANCH  20  22
ENDBRANCH   1  20
TORSDOF 3
ENDMDL
MODEL 9
REMARK VINA RESULT:      -6.6      2.126      3.878
REMARK  3 active torsions:
REMARK  status: ('A' for Active; 'I' for Inactive)
REMARK    1  A    between atoms: C_2  and  N_3 
REMARK    2  A    between atoms: N_3  and  C_4 
REMARK    3  A    between atoms: C_12  and  C_13 
ROOT
HETATM    1  C   UNL     1       7.254  23.888  54.264  1.00  0.00     0.139 A 
HETATM    2  N   UNL     1       7.585  23.195  53.153  1.00  0.00    -0.224 NA
HETATM    3  C   UNL     1       7.638  23.822  51.971  1.00  0.00     0.236 A 
HETATM    4  N   UNL     1       7.398  25.108  51.728  1.00  0.00    -0.234 NA
HETATM    5  C   UNL     1       7.087  25.787  52.843  1.00  0.00     0.113 A 
HETATM    6  C   UNL     1       6.998  25.280  54.132  1.00  0.00     0.055 A 
HETATM    7  S   UNL     1       6.754  27.451  52.753  1.00  0.00    -0.081 SA
HETATM    8  C   UNL     1       6.495  27.550  54.433  1.00  0.00     0.062 A 
HETATM    9  C   UNL     1       6.657  26.338  55.085  1.00  0.00    -0.003 A 
ENDROOT
BRANCH   9  10
HETATM   10  C   UNL     1       6.505  26.121  56.583  1.00  0.00     0.188 C 
HETATM   11  O   UNL     1       5.675  27.140  57.177  1.00  0.00    -0.336 OA
HETATM   12  C   UNL     1       6.387  28.262  57.510  1.00  0.00     0.103 A 
HETATM   13  C   UNL     1       7.779  28.281  57.625  1.00  0.00     0.102 A 
HETATM   14  C   UNL     1       5.651  29.424  57.736  1.00  0.00     0.040 A 
HETATM   15  O   UNL     1       8.567  27.176  57.437  1.00  0.00    -0.345 OA
HETATM   16  C   UNL     1       8.437  29.472  57.926  1.00  0.00     0.039 A 
HETATM   17  C   UNL     1       7.796  25.969  57.396  1.00  0.00     0.213 C 
HETATM   18  C   UNL     1       7.702  30.639  58.137  1.00  0.00     0.003 A 
HETATM   19  C   UNL     1       6.309  30.615  58.047  1.00  0.00     0.003 A 
ENDBRANCH   9  10
BRANCH   1  20
HETATM   20  N   UNL     1       7.181  23.241  55.495  1.00  0.00    -0.366 N 
HETATM   21  H   UNL     1       6.215  22.981  55.689  1.00  0.00     0.162 HD
BRANCH  20  22
HETATM   22  C   UNL     1       8.132  22.204  55.923  1.00  0.00     0.021 C 
HETATM   23  C   UNL     1       9.513  22.376  55.274  1.00  0.00     0.037 C 
HETATM   24  C   UNL     1       7.565  20.799  55.677  1.00  0.00     0.037 C 
HETATM   25  C   UNL     1       8.311  22.391  57.446  1.00  0.00     0.037 C 
ENDBRANCH  20  22
ENDBRANCH   1  20
TORSDOF 3
ENDMDL
MODEL 10
REMARK VINA RESULT:      -6.6      9.612     12.710
REMARK  3 active torsions:
REMARK  status: ('A' for Active; 'I' for Inactive)
REMARK    1  A    between atoms: C_2  and  N_3 
REMARK    2  A    between atoms: N_3  and  C_4 
REMARK    3  A    between atoms: C_12  and  C_13 
ROOT
HETATM    1  C   UNL     1       5.426  36.568  63.537  1.00  0.00     0.139 A 
HETATM    2  N   UNL     1       5.629  37.859  63.877  1.00  0.00    -0.224 NA
HETATM    3  C   UNL     1       5.389  38.827  62.984  1.00  0.00     0.236 A 
HETATM    4  N   UNL     1       4.951  38.684  61.736  1.00  0.00    -0.234 NA
HETATM    5  C   UNL     1       4.738  37.398  61.417  1.00  0.00     0.113 A 
HETATM    6  C   UNL     1       4.934  36.291  62.232  1.00  0.00     0.055 A 
HETATM    7  S   UNL     1       4.164  36.996  59.868  1.00  0.00    -0.081 SA
HETATM    8  C   UNL     1       4.146  35.335  60.242  1.00  0.00     0.062 A 
HETATM    9  C   UNL     1       4.566  35.058  61.533  1.00  0.00    -0.003 A 
ENDROOT
BRANCH   9  10
HETATM   10  C   UNL     1       4.642  33.671  62.153  1.00  0.00     0.188 C 
HETATM   11  O   UNL     1       5.995  33.340  62.529  1.00  0.00    -0.336 OA
HETATM   12  C   UNL     1       6.708  32.807  61.488  1.00  0.00     0.103 A 
HETATM   13  C   UNL     1       6.112  32.291  60.334  1.00  0.00     0.102 A 
HETATM   14  C   UNL     1       8.096  32.800  61.621  1.00  0.00     0.040 A 
HETATM   15  O   UNL     1       4.757  32.246  60.140  1.00  0.00    -0.345 OA
HETATM   16  C   UNL     1       6.907  31.805  59.299  1.00  0.00     0.039 A 
HETATM   17  C   UNL     1       4.034  32.517  61.347  1.00  0.00     0.213 C 
HETATM   18  C   UNL     1       8.296  31.811  59.424  1.00  0.00     0.003 A 
HETATM   19  C   UNL     1       8.891  32.304  60.588  1.00  0.00     0.003 A 
ENDBRANCH   9  10
BRANCH   1  20
HETATM   20  N   UNL     1       5.688  35.554  64.453  1.00  0.00    -0.366 N 
HETATM   21  H   UNL     1       6.660  35.606  64.755  1.00  0.00     0.162 HD
BRANCH  20  22
HETATM   22  C   UNL     1       4.781  35.208  65.559  1.00  0.00     0.021 C 
HETATM   23  C   UNL     1       3.366  34.871  65.069  1.00  0.00     0.037 C 
HETATM   24  C   UNL     1       4.761  36.313  66.624  1.00  0.00     0.037 C 
HETATM   25  C   UNL     1       5.363  33.929  66.204  1.00  0.00     0.037 C 
ENDBRANCH  20  22
ENDBRANCH   1  20
TORSDOF 3
ENDMDL
