MODEL 1
REMARK VINA RESULT:     -10.3      0.000      0.000
REMARK  8 active torsions:
REMARK  status: ('A' for Active; 'I' for Inactive)
REMARK    1  A    between atoms: N_4  and  C_5 
REMARK    2  A    between atoms: C_14  and  C_15 
REMARK    3  A    between atoms: C_15  and  C_16 
REMARK    4  A    between atoms: C_16  and  C_17 
REMARK       I    between atoms: C_17  and  N_18 
REMARK    5  A    between atoms: N_18  and  C_19 
REMARK    6  A    between atoms: C_22  and  S_23 
REMARK    7  A    between atoms: S_23  and  N_24 
REMARK    8  A    between atoms: N_24  and  C_25 
ROOT
HETATM    1  C   UNL     1       8.593  31.421  59.384  1.00  0.00     0.222 C 
HETATM    2  N   UNL     1       7.869  30.901  60.441  1.00  0.00    -0.327 N 
HETATM    3  O   UNL     1       9.060  32.553  59.304  1.00  0.00    -0.273 OA
HETATM    4  H   UNL     1       7.555  29.943  60.357  1.00  0.00     0.169 HD
ENDROOT
BRANCH   1   5
HETATM    5  C   UNL     1       8.793  30.437  58.244  1.00  0.00     0.108 C 
BRANCH   5   6
HETATM    6  C   UNL     1       7.870  29.230  58.378  1.00  0.00     0.055 C 
BRANCH   6   7
HETATM    7  C   UNL     1       7.380  28.598  57.118  1.00  0.00     0.030 A 
HETATM    8  C   UNL     1       6.528  28.923  56.129  1.00  0.00     0.014 A 
HETATM    9  C   UNL     1       5.708  30.161  55.980  1.00  0.00     0.064 C 
HETATM   10  N   UNL     1       6.420  27.926  55.165  1.00  0.00    -0.199 NA
HETATM   11  N   UNL     1       7.215  26.858  55.596  1.00  0.00    -0.238 N 
HETATM   12  H   UNL     1       5.445  27.659  55.012  1.00  0.00     0.153 HD
HETATM   13  C   UNL     1       7.858  27.218  56.777  1.00  0.00     0.270 A 
HETATM   14  O   UNL     1       8.659  26.607  57.465  1.00  0.00    -0.266 OA
BRANCH  11  15
HETATM   15  C   UNL     1       7.339  25.686  54.820  1.00  0.00     0.055 A 
HETATM   16  C   UNL     1       7.710  25.746  53.467  1.00  0.00     0.034 A 
HETATM   17  C   UNL     1       7.842  24.581  52.704  1.00  0.00     0.044 A 
HETATM   18  C   UNL     1       7.602  23.347  53.290  1.00  0.00     0.116 A 
HETATM   19  F   UNL     1       7.729  22.231  52.559  1.00  0.00    -0.206 F 
HETATM   20  C   UNL     1       7.231  23.255  54.623  1.00  0.00     0.044 A 
HETATM   21  C   UNL     1       7.097  24.421  55.384  1.00  0.00     0.034 A 
ENDBRANCH  11  15
ENDBRANCH   6   7
ENDBRANCH   5   6
ENDBRANCH   1   5
BRANCH   2  22
HETATM   22  C   UNL     1       7.466  31.573  61.615  1.00  0.00     0.034 A 
HETATM   23  C   UNL     1       8.341  31.956  62.634  1.00  0.00     0.031 A 
HETATM   24  C   UNL     1       7.869  32.644  63.756  1.00  0.00     0.027 A 
HETATM   25  C   UNL     1       6.513  32.960  63.854  1.00  0.00     0.074 A 
HETATM   26  C   UNL     1       5.621  32.564  62.859  1.00  0.00     0.027 A 
HETATM   27  C   UNL     1       6.101  31.872  61.742  1.00  0.00     0.031 A 
BRANCH  25  28
HETATM   28  S   UNL     1       5.920  33.846  65.274  1.00  0.00     0.241 S 
HETATM   29  O   UNL     1       4.603  33.339  65.596  1.00  0.00    -0.206 OA
HETATM   30  O   UNL     1       6.977  33.895  66.260  1.00  0.00    -0.206 OA
BRANCH  28  31
HETATM   31  N   UNL     1       5.685  35.387  64.614  1.00  0.00    -0.211 NA
HETATM   32  H   UNL     1       6.295  35.521  63.806  1.00  0.00     0.140 HD
BRANCH  31  33
HETATM   33  C   UNL     1       4.302  35.837  64.474  1.00  0.00     0.071 A 
HETATM   34  C   UNL     1       3.967  36.974  63.549  1.00  0.00     0.022 A 
HETATM   35  C   UNL     1       3.512  35.579  63.225  1.00  0.00     0.022 A 
ENDBRANCH  31  33
ENDBRANCH  28  31
ENDBRANCH  25  28
ENDBRANCH   2  22
TORSDOF 8
ENDMDL
MODEL 2
REMARK VINA RESULT:     -10.1      1.682      2.227
REMARK  8 active torsions:
REMARK  status: ('A' for Active; 'I' for Inactive)
REMARK    1  A    between atoms: N_4  and  C_5 
REMARK    2  A    between atoms: C_14  and  C_15 
REMARK    3  A    between atoms: C_15  and  C_16 
REMARK    4  A    between atoms: C_16  and  C_17 
REMARK       I    between atoms: C_17  and  N_18 
REMARK    5  A    between atoms: N_18  and  C_19 
REMARK    6  A    between atoms: C_22  and  S_23 
REMARK    7  A    between atoms: S_23  and  N_24 
REMARK    8  A    between atoms: N_24  and  C_25 
ROOT
HETATM    1  C   UNL     1       8.542  31.504  59.667  1.00  0.00     0.222 C 
HETATM    2  N   UNL     1       7.822  30.994  60.733  1.00  0.00    -0.327 N 
HETATM    3  O   UNL     1       8.931  32.660  59.534  1.00  0.00    -0.273 OA
HETATM    4  H   UNL     1       7.579  30.012  60.697  1.00  0.00     0.169 HD
ENDROOT
BRANCH   1   5
HETATM    5  C   UNL     1       8.847  30.473  58.594  1.00  0.00     0.108 C 
BRANCH   5   6
HETATM    6  C   UNL     1       7.827  29.339  58.601  1.00  0.00     0.055 C 
BRANCH   6   7
HETATM    7  C   UNL     1       7.380  28.811  57.278  1.00  0.00     0.030 A 
HETATM    8  C   UNL     1       6.565  29.218  56.288  1.00  0.00     0.014 A 
HETATM    9  C   UNL     1       5.755  30.469  56.208  1.00  0.00     0.064 C 
HETATM   10  N   UNL     1       6.487  28.301  55.246  1.00  0.00    -0.199 NA
HETATM   11  N   UNL     1       7.262  27.196  55.619  1.00  0.00    -0.238 N 
HETATM   12  H   UNL     1       5.517  28.053  55.038  1.00  0.00     0.153 HD
HETATM   13  C   UNL     1       7.864  27.459  56.847  1.00  0.00     0.270 A 
HETATM   14  O   UNL     1       8.638  26.790  57.513  1.00  0.00    -0.266 OA
BRANCH  11  15
HETATM   15  C   UNL     1       7.410  26.088  54.759  1.00  0.00     0.055 A 
HETATM   16  C   UNL     1       7.212  24.778  55.221  1.00  0.00     0.034 A 
HETATM   17  C   UNL     1       7.350  23.682  54.362  1.00  0.00     0.044 A 
HETATM   18  C   UNL     1       7.688  23.891  53.034  1.00  0.00     0.116 A 
HETATM   19  F   UNL     1       7.819  22.843  52.210  1.00  0.00    -0.206 F 
HETATM   20  C   UNL     1       7.894  25.174  52.547  1.00  0.00     0.044 A 
HETATM   21  C   UNL     1       7.758  26.268  53.408  1.00  0.00     0.034 A 
ENDBRANCH  11  15
ENDBRANCH   6   7
ENDBRANCH   5   6
ENDBRANCH   1   5
BRANCH   2  22
HETATM   22  C   UNL     1       7.336  31.701  61.853  1.00  0.00     0.034 A 
HETATM   23  C   UNL     1       8.143  32.156  62.900  1.00  0.00     0.031 A 
HETATM   24  C   UNL     1       7.590  32.874  63.964  1.00  0.00     0.027 A 
HETATM   25  C   UNL     1       6.221  33.148  63.977  1.00  0.00     0.074 A 
HETATM   26  C   UNL     1       5.396  32.680  62.954  1.00  0.00     0.027 A 
HETATM   27  C   UNL     1       5.958  31.959  61.895  1.00  0.00     0.031 A 
BRANCH  25  28
HETATM   28  S   UNL     1       5.525  34.072  65.323  1.00  0.00     0.241 S 
HETATM   29  O   UNL     1       5.531  35.471  64.953  1.00  0.00    -0.206 OA
HETATM   30  O   UNL     1       4.317  33.408  65.761  1.00  0.00    -0.206 OA
BRANCH  28  31
HETATM   31  N   UNL     1       6.732  33.889  66.496  1.00  0.00    -0.211 NA
HETATM   32  H   UNL     1       7.655  33.918  66.059  1.00  0.00     0.140 HD
BRANCH  31  33
HETATM   33  C   UNL     1       6.568  34.649  67.732  1.00  0.00     0.071 A 
HETATM   34  C   UNL     1       6.388  33.933  69.041  1.00  0.00     0.022 A 
HETATM   35  C   UNL     1       7.648  34.705  68.772  1.00  0.00     0.022 A 
ENDBRANCH  31  33
ENDBRANCH  28  31
ENDBRANCH  25  28
ENDBRANCH   2  22
TORSDOF 8
ENDMDL
MODEL 3
REMARK VINA RESULT:      -9.6      2.924      5.004
REMARK  8 active torsions:
REMARK  status: ('A' for Active; 'I' for Inactive)
REMARK    1  A    between atoms: N_4  and  C_5 
REMARK    2  A    between atoms: C_14  and  C_15 
REMARK    3  A    between atoms: C_15  and  C_16 
REMARK    4  A    between atoms: C_16  and  C_17 
REMARK       I    between atoms: C_17  and  N_18 
REMARK    5  A    between atoms: N_18  and  C_19 
REMARK    6  A    between atoms: C_22  and  S_23 
REMARK    7  A    between atoms: S_23  and  N_24 
REMARK    8  A    between atoms: N_24  and  C_25 
ROOT
HETATM    1  C   UNL     1       4.775  28.994  55.321  1.00  0.00     0.222 C 
HETATM    2  N   UNL     1       6.035  29.538  55.495  1.00  0.00    -0.327 N 
HETATM    3  O   UNL     1       3.906  28.872  56.179  1.00  0.00    -0.273 OA
HETATM    4  H   UNL     1       6.638  29.571  54.684  1.00  0.00     0.169 HD
ENDROOT
BRANCH   1   5
HETATM    5  C   UNL     1       4.510  28.522  53.901  1.00  0.00     0.108 C 
BRANCH   5   6
HETATM    6  C   UNL     1       5.807  28.183  53.173  1.00  0.00     0.055 C 
BRANCH   6   7
HETATM    7  C   UNL     1       6.124  26.738  52.975  1.00  0.00     0.030 A 
HETATM    8  C   UNL     1       5.875  25.802  52.041  1.00  0.00     0.014 A 
HETATM    9  C   UNL     1       5.104  25.940  50.772  1.00  0.00     0.064 C 
HETATM   10  N   UNL     1       6.408  24.561  52.372  1.00  0.00    -0.199 NA
HETATM   11  N   UNL     1       6.990  24.693  53.637  1.00  0.00    -0.238 N 
HETATM   12  H   UNL     1       5.695  23.828  52.337  1.00  0.00     0.153 HD
HETATM   13  C   UNL     1       6.878  26.017  54.053  1.00  0.00     0.270 A 
HETATM   14  O   UNL     1       7.275  26.570  55.065  1.00  0.00    -0.266 OA
BRANCH  11  15
HETATM   15  C   UNL     1       7.644  23.605  54.253  1.00  0.00     0.055 A 
HETATM   16  C   UNL     1       8.411  22.699  53.503  1.00  0.00     0.034 A 
HETATM   17  C   UNL     1       9.066  21.627  54.120  1.00  0.00     0.044 A 
HETATM   18  C   UNL     1       8.956  21.454  55.491  1.00  0.00     0.116 A 
HETATM   19  F   UNL     1       9.583  20.428  56.082  1.00  0.00    -0.206 F 
HETATM   20  C   UNL     1       8.202  22.330  56.259  1.00  0.00     0.044 A 
HETATM   21  C   UNL     1       7.547  23.399  55.641  1.00  0.00     0.034 A 
ENDBRANCH  11  15
ENDBRANCH   6   7
ENDBRANCH   5   6
ENDBRANCH   1   5
BRANCH   2  22
HETATM   22  C   UNL     1       6.603  30.010  56.697  1.00  0.00     0.034 A 
HETATM   23  C   UNL     1       6.137  31.126  57.396  1.00  0.00     0.031 A 
HETATM   24  C   UNL     1       6.738  31.517  58.596  1.00  0.00     0.027 A 
HETATM   25  C   UNL     1       7.807  30.779  59.107  1.00  0.00     0.074 A 
HETATM   26  C   UNL     1       8.302  29.676  58.411  1.00  0.00     0.027 A 
HETATM   27  C   UNL     1       7.697  29.295  57.209  1.00  0.00     0.031 A 
BRANCH  25  28
HETATM   28  S   UNL     1       8.558  31.269  60.639  1.00  0.00     0.241 S 
HETATM   29  O   UNL     1       9.225  30.112  61.198  1.00  0.00    -0.206 OA
HETATM   30  O   UNL     1       9.255  32.519  60.430  1.00  0.00    -0.206 OA
BRANCH  28  31
HETATM   31  N   UNL     1       7.188  31.533  61.597  1.00  0.00    -0.211 NA
HETATM   32  H   UNL     1       6.905  30.666  62.056  1.00  0.00     0.140 HD
BRANCH  31  33
HETATM   33  C   UNL     1       7.184  32.741  62.419  1.00  0.00     0.071 A 
HETATM   34  C   UNL     1       6.394  32.784  63.697  1.00  0.00     0.022 A 
HETATM   35  C   UNL     1       7.896  32.799  63.738  1.00  0.00     0.022 A 
ENDBRANCH  31  33
ENDBRANCH  28  31
ENDBRANCH  25  28
ENDBRANCH   2  22
TORSDOF 8
ENDMDL
MODEL 4
REMARK VINA RESULT:      -9.4      4.936     11.668
REMARK  8 active torsions:
REMARK  status: ('A' for Active; 'I' for Inactive)
REMARK    1  A    between atoms: N_4  and  C_5 
REMARK    2  A    between atoms: C_14  and  C_15 
REMARK    3  A    between atoms: C_15  and  C_16 
REMARK    4  A    between atoms: C_16  and  C_17 
REMARK       I    between atoms: C_17  and  N_18 
REMARK    5  A    between atoms: N_18  and  C_19 
REMARK    6  A    between atoms: C_22  and  S_23 
REMARK    7  A    between atoms: S_23  and  N_24 
REMARK    8  A    between atoms: N_24  and  C_25 
ROOT
HETATM    1  C   UNL     1       9.472  29.949  57.829  1.00  0.00     0.222 C 
HETATM    2  N   UNL     1       8.265  29.299  57.640  1.00  0.00    -0.327 N 
HETATM    3  O   UNL     1      10.505  29.770  57.192  1.00  0.00    -0.273 OA
HETATM    4  H   UNL     1       7.500  29.563  58.248  1.00  0.00     0.169 HD
ENDROOT
BRANCH   1   5
HETATM    5  C   UNL     1       9.440  30.972  58.951  1.00  0.00     0.108 C 
BRANCH   5   6
HETATM    6  C   UNL     1       8.669  30.452  60.161  1.00  0.00     0.055 C 
BRANCH   6   7
HETATM    7  C   UNL     1       7.666  31.368  60.780  1.00  0.00     0.030 A 
HETATM    8  C   UNL     1       6.653  32.142  60.350  1.00  0.00     0.014 A 
HETATM    9  C   UNL     1       6.173  32.350  58.953  1.00  0.00     0.064 C 
HETATM   10  N   UNL     1       6.029  32.831  61.384  1.00  0.00    -0.199 NA
HETATM   11  N   UNL     1       6.729  32.525  62.556  1.00  0.00    -0.238 N 
HETATM   12  H   UNL     1       5.993  33.835  61.194  1.00  0.00     0.153 HD
HETATM   13  C   UNL     1       7.731  31.605  62.260  1.00  0.00     0.270 A 
HETATM   14  O   UNL     1       8.543  31.051  62.983  1.00  0.00    -0.266 OA
BRANCH  11  15
HETATM   15  C   UNL     1       6.329  33.055  63.801  1.00  0.00     0.055 A 
HETATM   16  C   UNL     1       7.271  33.378  64.790  1.00  0.00     0.034 A 
HETATM   17  C   UNL     1       6.870  33.912  66.020  1.00  0.00     0.044 A 
HETATM   18  C   UNL     1       5.523  34.125  66.268  1.00  0.00     0.116 A 
HETATM   19  F   UNL     1       5.138  34.637  67.445  1.00  0.00    -0.206 F 
HETATM   20  C   UNL     1       4.567  33.812  65.312  1.00  0.00     0.044 A 
HETATM   21  C   UNL     1       4.969  33.276  64.085  1.00  0.00     0.034 A 
ENDBRANCH  11  15
ENDBRANCH   6   7
ENDBRANCH   5   6
ENDBRANCH   1   5
BRANCH   2  22
HETATM   22  C   UNL     1       7.986  28.262  56.725  1.00  0.00     0.034 A 
HETATM   23  C   UNL     1       7.944  26.908  57.068  1.00  0.00     0.031 A 
HETATM   24  C   UNL     1       7.634  25.940  56.108  1.00  0.00     0.027 A 
HETATM   25  C   UNL     1       7.352  26.330  54.798  1.00  0.00     0.074 A 
HETATM   26  C   UNL     1       7.414  27.674  54.431  1.00  0.00     0.027 A 
HETATM   27  C   UNL     1       7.729  28.635  55.397  1.00  0.00     0.031 A 
BRANCH  25  28
HETATM   28  S   UNL     1       6.944  25.100  53.585  1.00  0.00     0.241 S 
HETATM   29  O   UNL     1       5.541  25.241  53.261  1.00  0.00    -0.206 OA
HETATM   30  O   UNL     1       7.965  25.108  52.560  1.00  0.00    -0.206 OA
BRANCH  28  31
HETATM   31  N   UNL     1       7.076  23.686  54.507  1.00  0.00    -0.211 NA
HETATM   32  H   UNL     1       6.151  23.289  54.678  1.00  0.00     0.140 HD
BRANCH  31  33
HETATM   33  C   UNL     1       8.131  22.750  54.127  1.00  0.00     0.071 A 
HETATM   34  C   UNL     1       8.084  21.324  54.601  1.00  0.00     0.022 A 
HETATM   35  C   UNL     1       7.886  21.642  53.146  1.00  0.00     0.022 A 
ENDBRANCH  31  33
ENDBRANCH  28  31
ENDBRANCH  25  28
ENDBRANCH   2  22
TORSDOF 8
ENDMDL
MODEL 5
REMARK VINA RESULT:      -9.3      2.055      2.842
REMARK  8 active torsions:
REMARK  status: ('A' for Active; 'I' for Inactive)
REMARK    1  A    between atoms: N_4  and  C_5 
REMARK    2  A    between atoms: C_14  and  C_15 
REMARK    3  A    between atoms: C_15  and  C_16 
REMARK    4  A    between atoms: C_16  and  C_17 
REMARK       I    between atoms: C_17  and  N_18 
REMARK    5  A    between atoms: N_18  and  C_19 
REMARK    6  A    between atoms: C_22  and  S_23 
REMARK    7  A    between atoms: S_23  and  N_24 
REMARK    8  A    between atoms: N_24  and  C_25 
ROOT
HETATM    1  C   UNL     1       8.728  30.318  58.164  1.00  0.00     0.222 C 
HETATM    2  N   UNL     1       7.505  30.294  58.811  1.00  0.00    -0.327 N 
HETATM    3  O   UNL     1       9.533  31.244  58.157  1.00  0.00    -0.273 OA
HETATM    4  H   UNL     1       6.955  29.449  58.723  1.00  0.00     0.169 HD
ENDROOT
BRANCH   1   5
HETATM    5  C   UNL     1       9.039  29.037  57.409  1.00  0.00     0.108 C 
BRANCH   5   6
HETATM    6  C   UNL     1       7.964  27.979  57.634  1.00  0.00     0.055 C 
BRANCH   6   7
HETATM    7  C   UNL     1       7.573  27.139  56.464  1.00  0.00     0.030 A 
HETATM    8  C   UNL     1       6.837  27.299  55.349  1.00  0.00     0.014 A 
HETATM    9  C   UNL     1       6.091  28.508  54.894  1.00  0.00     0.064 C 
HETATM   10  N   UNL     1       6.780  26.145  54.575  1.00  0.00    -0.199 NA
HETATM   11  N   UNL     1       7.481  25.153  55.271  1.00  0.00    -0.238 N 
HETATM   12  H   UNL     1       5.814  25.879  54.371  1.00  0.00     0.153 HD
HETATM   13  C   UNL     1       8.021  25.707  56.429  1.00  0.00     0.270 A 
HETATM   14  O   UNL     1       8.722  25.213  57.296  1.00  0.00    -0.266 OA
BRANCH  11  15
HETATM   15  C   UNL     1       7.629  23.856  54.736  1.00  0.00     0.055 A 
HETATM   16  C   UNL     1       7.586  22.721  55.561  1.00  0.00     0.034 A 
HETATM   17  C   UNL     1       7.723  21.436  55.025  1.00  0.00     0.044 A 
HETATM   18  C   UNL     1       7.906  21.279  53.660  1.00  0.00     0.116 A 
HETATM   19  F   UNL     1       8.037  20.048  53.146  1.00  0.00    -0.206 F 
HETATM   20  C   UNL     1       7.957  22.381  52.819  1.00  0.00     0.044 A 
HETATM   21  C   UNL     1       7.822  23.665  53.357  1.00  0.00     0.034 A 
ENDBRANCH  11  15
ENDBRANCH   6   7
ENDBRANCH   5   6
ENDBRANCH   1   5
BRANCH   2  22
HETATM   22  C   UNL     1       6.904  31.339  59.543  1.00  0.00     0.034 A 
HETATM   23  C   UNL     1       5.829  32.101  59.077  1.00  0.00     0.031 A 
HETATM   24  C   UNL     1       5.270  33.105  59.873  1.00  0.00     0.027 A 
HETATM   25  C   UNL     1       5.783  33.341  61.150  1.00  0.00     0.074 A 
HETATM   26  C   UNL     1       6.871  32.608  61.622  1.00  0.00     0.027 A 
HETATM   27  C   UNL     1       7.427  31.609  60.816  1.00  0.00     0.031 A 
BRANCH  25  28
HETATM   28  S   UNL     1       5.061  34.607  62.164  1.00  0.00     0.241 S 
HETATM   29  O   UNL     1       5.968  35.734  62.182  1.00  0.00    -0.206 OA
HETATM   30  O   UNL     1       3.671  34.757  61.792  1.00  0.00    -0.206 OA
BRANCH  28  31
HETATM   31  N   UNL     1       5.167  33.890  63.694  1.00  0.00    -0.211 NA
HETATM   32  H   UNL     1       5.220  32.874  63.604  1.00  0.00     0.140 HD
BRANCH  31  33
HETATM   33  C   UNL     1       6.079  34.513  64.649  1.00  0.00     0.071 A 
HETATM   34  C   UNL     1       6.278  33.906  66.010  1.00  0.00     0.022 A 
HETATM   35  C   UNL     1       7.394  33.887  65.006  1.00  0.00     0.022 A 
ENDBRANCH  31  33
ENDBRANCH  28  31
ENDBRANCH  25  28
ENDBRANCH   2  22
TORSDOF 8
ENDMDL
MODEL 6
REMARK VINA RESULT:      -9.3      1.678      2.071
REMARK  8 active torsions:
REMARK  status: ('A' for Active; 'I' for Inactive)
REMARK    1  A    between atoms: N_4  and  C_5 
REMARK    2  A    between atoms: C_14  and  C_15 
REMARK    3  A    between atoms: C_15  and  C_16 
REMARK    4  A    between atoms: C_16  and  C_17 
REMARK       I    between atoms: C_17  and  N_18 
REMARK    5  A    between atoms: N_18  and  C_19 
REMARK    6  A    between atoms: C_22  and  S_23 
REMARK    7  A    between atoms: S_23  and  N_24 
REMARK    8  A    between atoms: N_24  and  C_25 
ROOT
HETATM    1  C   UNL     1       8.745  31.217  59.295  1.00  0.00     0.222 C 
HETATM    2  N   UNL     1       7.987  30.747  60.352  1.00  0.00    -0.327 N 
HETATM    3  O   UNL     1       9.142  32.367  59.135  1.00  0.00    -0.273 OA
HETATM    4  H   UNL     1       7.742  29.765  60.342  1.00  0.00     0.169 HD
ENDROOT
BRANCH   1   5
HETATM    5  C   UNL     1       9.084  30.149  58.269  1.00  0.00     0.108 C 
BRANCH   5   6
HETATM    6  C   UNL     1       7.971  29.112  58.153  1.00  0.00     0.055 C 
BRANCH   6   7
HETATM    7  C   UNL     1       7.087  29.187  56.954  1.00  0.00     0.030 A 
HETATM    8  C   UNL     1       6.173  30.045  56.465  1.00  0.00     0.014 A 
HETATM    9  C   UNL     1       5.704  31.335  57.052  1.00  0.00     0.064 C 
HETATM   10  N   UNL     1       5.609  29.606  55.272  1.00  0.00    -0.199 NA
HETATM   11  N   UNL     1       6.156  28.346  55.004  1.00  0.00    -0.238 N 
HETATM   12  H   UNL     1       4.588  29.593  55.325  1.00  0.00     0.153 HD
HETATM   13  C   UNL     1       7.096  28.042  55.984  1.00  0.00     0.270 A 
HETATM   14  O   UNL     1       7.823  27.071  56.116  1.00  0.00    -0.266 OA
BRANCH  11  15
HETATM   15  C   UNL     1       5.801  27.633  53.839  1.00  0.00     0.055 A 
HETATM   16  C   UNL     1       5.889  28.226  52.570  1.00  0.00     0.034 A 
HETATM   17  C   UNL     1       5.545  27.512  51.417  1.00  0.00     0.044 A 
HETATM   18  C   UNL     1       5.111  26.200  51.527  1.00  0.00     0.116 A 
HETATM   19  F   UNL     1       4.783  25.516  50.422  1.00  0.00    -0.206 F 
HETATM   20  C   UNL     1       5.010  25.588  52.768  1.00  0.00     0.044 A 
HETATM   21  C   UNL     1       5.352  26.304  53.919  1.00  0.00     0.034 A 
ENDBRANCH  11  15
ENDBRANCH   6   7
ENDBRANCH   5   6
ENDBRANCH   1   5
BRANCH   2  22
HETATM   22  C   UNL     1       7.465  31.494  61.429  1.00  0.00     0.034 A 
HETATM   23  C   UNL     1       6.183  32.051  61.444  1.00  0.00     0.031 A 
HETATM   24  C   UNL     1       5.727  32.758  62.561  1.00  0.00     0.027 A 
HETATM   25  C   UNL     1       6.554  32.898  63.676  1.00  0.00     0.074 A 
HETATM   26  C   UNL     1       7.846  32.370  63.670  1.00  0.00     0.027 A 
HETATM   27  C   UNL     1       8.295  31.668  62.546  1.00  0.00     0.031 A 
BRANCH  25  28
HETATM   28  S   UNL     1       5.967  33.782  65.098  1.00  0.00     0.241 S 
HETATM   29  O   UNL     1       4.644  33.289  65.414  1.00  0.00    -0.206 OA
HETATM   30  O   UNL     1       7.021  33.815  66.088  1.00  0.00    -0.206 OA
BRANCH  28  31
HETATM   31  N   UNL     1       5.750  35.329  64.445  1.00  0.00    -0.211 NA
HETATM   32  H   UNL     1       6.284  35.425  63.580  1.00  0.00     0.140 HD
BRANCH  31  33
HETATM   33  C   UNL     1       4.387  35.853  64.436  1.00  0.00     0.071 A 
HETATM   34  C   UNL     1       4.048  37.066  63.614  1.00  0.00     0.022 A 
HETATM   35  C   UNL     1       3.500  35.720  63.234  1.00  0.00     0.022 A 
ENDBRANCH  31  33
ENDBRANCH  28  31
ENDBRANCH  25  28
ENDBRANCH   2  22
TORSDOF 8
ENDMDL
MODEL 7
REMARK VINA RESULT:      -9.2      4.931     11.445
REMARK  8 active torsions:
REMARK  status: ('A' for Active; 'I' for Inactive)
REMARK    1  A    between atoms: N_4  and  C_5 
REMARK    2  A    between atoms: C_14  and  C_15 
REMARK    3  A    between atoms: C_15  and  C_16 
REMARK    4  A    between atoms: C_16  and  C_17 
REMARK       I    between atoms: C_17  and  N_18 
REMARK    5  A    between atoms: N_18  and  C_19 
REMARK    6  A    between atoms: C_22  and  S_23 
REMARK    7  A    between atoms: S_23  and  N_24 
REMARK    8  A    between atoms: N_24  and  C_25 
ROOT
HETATM    1  C   UNL     1       5.648  29.236  56.553  1.00  0.00     0.222 C 
HETATM    2  N   UNL     1       5.659  28.085  57.321  1.00  0.00    -0.327 N 
HETATM    3  O   UNL     1       6.220  29.404  55.480  1.00  0.00    -0.273 OA
HETATM    4  H   UNL     1       5.131  28.103  58.184  1.00  0.00     0.169 HD
ENDROOT
BRANCH   1   5
HETATM    5  C   UNL     1       4.826  30.361  57.159  1.00  0.00     0.108 C 
BRANCH   5   6
HETATM    6  C   UNL     1       5.697  31.561  57.515  1.00  0.00     0.055 C 
BRANCH   6   7
HETATM    7  C   UNL     1       6.417  31.522  58.822  1.00  0.00     0.030 A 
HETATM    8  C   UNL     1       7.531  30.944  59.307  1.00  0.00     0.014 A 
HETATM    9  C   UNL     1       8.496  30.052  58.601  1.00  0.00     0.064 C 
HETATM   10  N   UNL     1       7.742  31.231  60.651  1.00  0.00    -0.199 NA
HETATM   11  N   UNL     1       6.653  32.001  61.078  1.00  0.00    -0.238 N 
HETATM   12  H   UNL     1       7.864  30.377  61.200  1.00  0.00     0.153 HD
HETATM   13  C   UNL     1       5.815  32.242  59.993  1.00  0.00     0.270 A 
HETATM   14  O   UNL     1       4.785  32.889  59.911  1.00  0.00    -0.266 OA
BRANCH  11  15
HETATM   15  C   UNL     1       6.576  32.479  62.403  1.00  0.00     0.055 A 
HETATM   16  C   UNL     1       7.735  32.801  63.127  1.00  0.00     0.034 A 
HETATM   17  C   UNL     1       7.653  33.285  64.438  1.00  0.00     0.044 A 
HETATM   18  C   UNL     1       6.412  33.447  65.032  1.00  0.00     0.116 A 
HETATM   19  F   UNL     1       6.333  33.910  66.287  1.00  0.00    -0.206 F 
HETATM   20  C   UNL     1       5.249  33.132  64.344  1.00  0.00     0.044 A 
HETATM   21  C   UNL     1       5.332  32.648  63.035  1.00  0.00     0.034 A 
ENDBRANCH  11  15
ENDBRANCH   6   7
ENDBRANCH   5   6
ENDBRANCH   1   5
BRANCH   2  22
HETATM   22  C   UNL     1       6.370  26.893  57.066  1.00  0.00     0.034 A 
HETATM   23  C   UNL     1       7.680  26.660  57.490  1.00  0.00     0.031 A 
HETATM   24  C   UNL     1       8.309  25.441  57.220  1.00  0.00     0.027 A 
HETATM   25  C   UNL     1       7.619  24.443  56.531  1.00  0.00     0.074 A 
HETATM   26  C   UNL     1       6.319  24.667  56.078  1.00  0.00     0.027 A 
HETATM   27  C   UNL     1       5.699  25.892  56.348  1.00  0.00     0.031 A 
BRANCH  25  28
HETATM   28  S   UNL     1       8.415  22.891  56.204  1.00  0.00     0.241 S 
HETATM   29  O   UNL     1       9.737  23.170  55.686  1.00  0.00    -0.206 OA
HETATM   30  O   UNL     1       8.214  22.021  57.341  1.00  0.00    -0.206 OA
BRANCH  28  31
HETATM   31  N   UNL     1       7.502  22.334  54.891  1.00  0.00    -0.211 NA
HETATM   32  H   UNL     1       7.377  23.081  54.207  1.00  0.00     0.140 HD
BRANCH  31  33
HETATM   33  C   UNL     1       7.843  21.014  54.368  1.00  0.00     0.071 A 
HETATM   34  C   UNL     1       7.627  20.698  52.914  1.00  0.00     0.022 A 
HETATM   35  C   UNL     1       9.021  20.805  53.463  1.00  0.00     0.022 A 
ENDBRANCH  31  33
ENDBRANCH  28  31
ENDBRANCH  25  28
ENDBRANCH   2  22
TORSDOF 8
ENDMDL
MODEL 8
REMARK VINA RESULT:      -9.0      2.219      2.950
REMARK  8 active torsions:
REMARK  status: ('A' for Active; 'I' for Inactive)
REMARK    1  A    between atoms: N_4  and  C_5 
REMARK    2  A    between atoms: C_14  and  C_15 
REMARK    3  A    between atoms: C_15  and  C_16 
REMARK    4  A    between atoms: C_16  and  C_17 
REMARK       I    between atoms: C_17  and  N_18 
REMARK    5  A    between atoms: N_18  and  C_19 
REMARK    6  A    between atoms: C_22  and  S_23 
REMARK    7  A    between atoms: S_23  and  N_24 
REMARK    8  A    between atoms: N_24  and  C_25 
ROOT
HETATM    1  C   UNL     1       5.357  31.974  57.411  1.00  0.00     0.222 C 
HETATM    2  N   UNL     1       4.969  31.404  58.611  1.00  0.00    -0.327 N 
HETATM    3  O   UNL     1       5.607  33.158  57.211  1.00  0.00    -0.273 OA
HETATM    4  H   UNL     1       4.803  30.406  58.614  1.00  0.00     0.169 HD
ENDROOT
BRANCH   1   5
HETATM    5  C   UNL     1       5.463  30.974  56.272  1.00  0.00     0.108 C 
BRANCH   5   6
HETATM    6  C   UNL     1       5.078  29.569  56.723  1.00  0.00     0.055 C 
BRANCH   6   7
HETATM    7  C   UNL     1       6.086  28.486  56.529  1.00  0.00     0.030 A 
HETATM    8  C   UNL     1       7.269  28.144  57.071  1.00  0.00     0.014 A 
HETATM    9  C   UNL     1       8.027  28.834  58.156  1.00  0.00     0.064 C 
HETATM   10  N   UNL     1       7.819  27.009  56.485  1.00  0.00    -0.199 NA
HETATM   11  N   UNL     1       6.957  26.627  55.451  1.00  0.00    -0.238 N 
HETATM   12  H   UNL     1       8.774  27.181  56.162  1.00  0.00     0.153 HD
HETATM   13  C   UNL     1       5.854  27.477  55.443  1.00  0.00     0.270 A 
HETATM   14  O   UNL     1       4.858  27.482  54.739  1.00  0.00    -0.266 OA
BRANCH  11  15
HETATM   15  C   UNL     1       7.223  25.485  54.667  1.00  0.00     0.055 A 
HETATM   16  C   UNL     1       7.621  25.600  53.326  1.00  0.00     0.034 A 
HETATM   17  C   UNL     1       7.893  24.465  52.556  1.00  0.00     0.044 A 
HETATM   18  C   UNL     1       7.767  23.206  53.122  1.00  0.00     0.116 A 
HETATM   19  F   UNL     1       8.029  22.118  52.385  1.00  0.00    -0.206 F 
HETATM   20  C   UNL     1       7.372  23.058  54.444  1.00  0.00     0.044 A 
HETATM   21  C   UNL     1       7.098  24.194  55.212  1.00  0.00     0.034 A 
ENDBRANCH  11  15
ENDBRANCH   6   7
ENDBRANCH   5   6
ENDBRANCH   1   5
BRANCH   2  22
HETATM   22  C   UNL     1       4.725  32.066  59.832  1.00  0.00     0.034 A 
HETATM   23  C   UNL     1       5.715  32.697  60.590  1.00  0.00     0.031 A 
HETATM   24  C   UNL     1       5.389  33.356  61.779  1.00  0.00     0.027 A 
HETATM   25  C   UNL     1       4.062  33.395  62.208  1.00  0.00     0.074 A 
HETATM   26  C   UNL     1       3.064  32.749  61.478  1.00  0.00     0.027 A 
HETATM   27  C   UNL     1       3.399  32.088  60.292  1.00  0.00     0.031 A 
BRANCH  25  28
HETATM   28  S   UNL     1       3.649  34.245  63.710  1.00  0.00     0.241 S 
HETATM   29  O   UNL     1       4.079  35.620  63.576  1.00  0.00    -0.206 OA
HETATM   30  O   UNL     1       2.291  33.907  64.073  1.00  0.00    -0.206 OA
BRANCH  28  31
HETATM   31  N   UNL     1       4.726  33.517  64.795  1.00  0.00    -0.211 NA
HETATM   32  H   UNL     1       4.894  32.546  64.528  1.00  0.00     0.140 HD
BRANCH  31  33
HETATM   33  C   UNL     1       5.895  34.301  65.186  1.00  0.00     0.071 A 
HETATM   34  C   UNL     1       6.743  33.866  66.348  1.00  0.00     0.022 A 
HETATM   35  C   UNL     1       7.291  33.805  64.951  1.00  0.00     0.022 A 
ENDBRANCH  31  33
ENDBRANCH  28  31
ENDBRANCH  25  28
ENDBRANCH   2  22
TORSDOF 8
ENDMDL
MODEL 9
REMARK VINA RESULT:      -8.9      1.741      2.338
REMARK  8 active torsions:
REMARK  status: ('A' for Active; 'I' for Inactive)
REMARK    1  A    between atoms: N_4  and  C_5 
REMARK    2  A    between atoms: C_14  and  C_15 
REMARK    3  A    between atoms: C_15  and  C_16 
REMARK    4  A    between atoms: C_16  and  C_17 
REMARK       I    between atoms: C_17  and  N_18 
REMARK    5  A    between atoms: N_18  and  C_19 
REMARK    6  A    between atoms: C_22  and  S_23 
REMARK    7  A    between atoms: S_23  and  N_24 
REMARK    8  A    between atoms: N_24  and  C_25 
ROOT
HETATM    1  C   UNL     1       8.467  31.370  58.964  1.00  0.00     0.222 C 
HETATM    2  N   UNL     1       7.231  31.284  59.580  1.00  0.00    -0.327 N 
HETATM    3  O   UNL     1       9.204  32.350  58.939  1.00  0.00    -0.273 OA
HETATM    4  H   UNL     1       6.744  30.399  59.514  1.00  0.00     0.169 HD
ENDROOT
BRANCH   1   5
HETATM    5  C   UNL     1       8.888  30.086  58.270  1.00  0.00     0.108 C 
BRANCH   5   6
HETATM    6  C   UNL     1       7.795  29.024  58.345  1.00  0.00     0.055 C 
BRANCH   6   7
HETATM    7  C   UNL     1       7.359  28.398  57.063  1.00  0.00     0.030 A 
HETATM    8  C   UNL     1       6.547  28.725  56.041  1.00  0.00     0.014 A 
HETATM    9  C   UNL     1       5.729  29.960  55.865  1.00  0.00     0.064 C 
HETATM   10  N   UNL     1       6.482  27.732  55.069  1.00  0.00    -0.199 NA
HETATM   11  N   UNL     1       7.262  26.664  55.526  1.00  0.00    -0.238 N 
HETATM   12  H   UNL     1       5.514  27.463  54.875  1.00  0.00     0.153 HD
HETATM   13  C   UNL     1       7.855  27.020  56.734  1.00  0.00     0.270 A 
HETATM   14  O   UNL     1       8.630  26.408  57.452  1.00  0.00    -0.266 OA
BRANCH  11  15
HETATM   15  C   UNL     1       7.422  25.497  54.750  1.00  0.00     0.055 A 
HETATM   16  C   UNL     1       7.241  24.222  55.310  1.00  0.00     0.034 A 
HETATM   17  C   UNL     1       7.391  23.068  54.534  1.00  0.00     0.044 A 
HETATM   18  C   UNL     1       7.725  23.181  53.193  1.00  0.00     0.116 A 
HETATM   19  F   UNL     1       7.868  22.076  52.449  1.00  0.00    -0.206 F 
HETATM   20  C   UNL     1       7.914  24.427  52.612  1.00  0.00     0.044 A 
HETATM   21  C   UNL     1       7.766  25.580  53.390  1.00  0.00     0.034 A 
ENDBRANCH  11  15
ENDBRANCH   6   7
ENDBRANCH   5   6
ENDBRANCH   1   5
BRANCH   2  22
HETATM   22  C   UNL     1       6.538  32.312  60.253  1.00  0.00     0.034 A 
HETATM   23  C   UNL     1       5.365  32.905  59.778  1.00  0.00     0.031 A 
HETATM   24  C   UNL     1       4.721  33.902  60.516  1.00  0.00     0.027 A 
HETATM   25  C   UNL     1       5.247  34.301  61.745  1.00  0.00     0.074 A 
HETATM   26  C   UNL     1       6.431  33.740  62.224  1.00  0.00     0.027 A 
HETATM   27  C   UNL     1       7.071  32.746  61.476  1.00  0.00     0.031 A 
BRANCH  25  28
HETATM   28  S   UNL     1       4.419  35.557  62.688  1.00  0.00     0.241 S 
HETATM   29  O   UNL     1       3.644  36.364  61.770  1.00  0.00    -0.206 OA
HETATM   30  O   UNL     1       3.817  34.939  63.849  1.00  0.00    -0.206 OA
BRANCH  28  31
HETATM   31  N   UNL     1       5.730  36.515  63.167  1.00  0.00    -0.211 NA
HETATM   32  H   UNL     1       6.586  36.195  62.710  1.00  0.00     0.140 HD
BRANCH  31  33
HETATM   33  C   UNL     1       5.509  37.958  63.210  1.00  0.00     0.071 A 
HETATM   34  C   UNL     1       6.609  38.879  63.657  1.00  0.00     0.022 A 
HETATM   35  C   UNL     1       6.158  38.884  62.225  1.00  0.00     0.022 A 
ENDBRANCH  31  33
ENDBRANCH  28  31
ENDBRANCH  25  28
ENDBRANCH   2  22
TORSDOF 8
ENDMDL
MODEL 10
REMARK VINA RESULT:      -8.8      3.056      4.748
REMARK  8 active torsions:
REMARK  status: ('A' for Active; 'I' for Inactive)
REMARK    1  A    between atoms: N_4  and  C_5 
REMARK    2  A    between atoms: C_14  and  C_15 
REMARK    3  A    between atoms: C_15  and  C_16 
REMARK    4  A    between atoms: C_16  and  C_17 
REMARK       I    between atoms: C_17  and  N_18 
REMARK    5  A    between atoms: N_18  and  C_19 
REMARK    6  A    between atoms: C_22  and  S_23 
REMARK    7  A    between atoms: S_23  and  N_24 
REMARK    8  A    between atoms: N_24  and  C_25 
ROOT
HETATM    1  C   UNL     1       5.034  29.108  55.593  1.00  0.00     0.222 C 
HETATM    2  N   UNL     1       4.690  30.409  55.915  1.00  0.00    -0.327 N 
HETATM    3  O   UNL     1       5.304  28.207  56.381  1.00  0.00    -0.273 OA
HETATM    4  H   UNL     1       4.491  31.036  55.145  1.00  0.00     0.169 HD
ENDROOT
BRANCH   1   5
HETATM    5  C   UNL     1       5.059  28.840  54.097  1.00  0.00     0.108 C 
BRANCH   5   6
HETATM    6  C   UNL     1       6.397  28.255  53.656  1.00  0.00     0.055 C 
BRANCH   6   7
HETATM    7  C   UNL     1       6.411  26.828  53.219  1.00  0.00     0.030 A 
HETATM    8  C   UNL     1       5.936  26.120  52.179  1.00  0.00     0.014 A 
HETATM    9  C   UNL     1       5.149  26.605  51.008  1.00  0.00     0.064 C 
HETATM   10  N   UNL     1       6.225  24.763  52.277  1.00  0.00    -0.199 NA
HETATM   11  N   UNL     1       6.882  24.576  53.499  1.00  0.00    -0.238 N 
HETATM   12  H   UNL     1       5.380  24.194  52.189  1.00  0.00     0.153 HD
HETATM   13  C   UNL     1       7.055  25.812  54.115  1.00  0.00     0.270 A 
HETATM   14  O   UNL     1       7.601  26.108  55.165  1.00  0.00    -0.266 OA
BRANCH  11  15
HETATM   15  C   UNL     1       7.334  23.298  53.893  1.00  0.00     0.055 A 
HETATM   16  C   UNL     1       7.295  22.897  55.237  1.00  0.00     0.034 A 
HETATM   17  C   UNL     1       7.735  21.625  55.622  1.00  0.00     0.044 A 
HETATM   18  C   UNL     1       8.218  20.748  54.663  1.00  0.00     0.116 A 
HETATM   19  F   UNL     1       8.638  19.530  55.030  1.00  0.00    -0.206 F 
HETATM   20  C   UNL     1       8.272  21.117  53.326  1.00  0.00     0.044 A 
HETATM   21  C   UNL     1       7.834  22.389  52.944  1.00  0.00     0.034 A 
ENDBRANCH  11  15
ENDBRANCH   6   7
ENDBRANCH   5   6
ENDBRANCH   1   5
BRANCH   2  22
HETATM   22  C   UNL     1       4.634  30.985  57.201  1.00  0.00     0.034 A 
HETATM   23  C   UNL     1       3.522  30.909  58.043  1.00  0.00     0.031 A 
HETATM   24  C   UNL     1       3.553  31.485  59.317  1.00  0.00     0.027 A 
HETATM   25  C   UNL     1       4.709  32.132  59.756  1.00  0.00     0.074 A 
HETATM   26  C   UNL     1       5.820  32.240  58.920  1.00  0.00     0.027 A 
HETATM   27  C   UNL     1       5.779  31.665  57.645  1.00  0.00     0.031 A 
BRANCH  25  28
HETATM   28  S   UNL     1       4.750  32.848  61.379  1.00  0.00     0.241 S 
HETATM   29  O   UNL     1       5.367  34.153  61.275  1.00  0.00    -0.206 OA
HETATM   30  O   UNL     1       3.454  32.669  61.994  1.00  0.00    -0.206 OA
BRANCH  28  31
HETATM   31  N   UNL     1       5.885  31.849  62.142  1.00  0.00    -0.211 NA
HETATM   32  H   UNL     1       5.769  30.884  61.830  1.00  0.00     0.140 HD
BRANCH  31  33
HETATM   33  C   UNL     1       7.253  32.353  62.223  1.00  0.00     0.071 A 
HETATM   34  C   UNL     1       7.892  32.593  63.563  1.00  0.00     0.022 A 
HETATM   35  C   UNL     1       8.387  31.483  62.679  1.00  0.00     0.022 A 
ENDBRANCH  31  33
ENDBRANCH  28  31
ENDBRANCH  25  28
ENDBRANCH   2  22
TORSDOF 8
ENDMDL
