MODEL 1
REMARK VINA RESULT:      -9.6      0.000      0.000
REMARK  5 active torsions:
REMARK  status: ('A' for Active; 'I' for Inactive)
REMARK    1  A    between atoms: C_2  and  C_3 
REMARK    2  A    between atoms: C_3  and  N_4 
REMARK    3  A    between atoms: N_8  and  C_10 
REMARK    4  A    between atoms: C_10  and  C_11 
REMARK    5  A    between atoms: C_14  and  C_15 
ROOT
HETATM    1  N   UNL     1       6.453  25.730  54.604  1.00  0.00     0.104 N 
HETATM    2  C   UNL     1       6.193  27.193  54.294  1.00  0.00     0.206 C 
HETATM    3  C   UNL     1       7.442  28.092  54.470  1.00  0.00     0.076 C 
HETATM    4  C   UNL     1       7.957  28.050  55.906  1.00  0.00     0.238 C 
HETATM    5  N   UNL     1       6.904  28.561  56.865  1.00  0.00    -0.065 N 
HETATM    6  H   UNL     1       7.278  28.335  57.800  1.00  0.00     0.280 HD
HETATM    7  C   UNL     1       5.622  27.777  56.739  1.00  0.00     0.238 C 
HETATM    8  C   UNL     1       5.131  27.754  55.290  1.00  0.00     0.076 C 
HETATM    9  C   UNL     1       5.644  27.312  52.885  1.00  0.00     0.072 A 
HETATM   10  C   UNL     1       5.080  26.265  52.183  1.00  0.00     0.037 A 
HETATM   11  N   UNL     1       4.700  26.771  50.960  1.00  0.00    -0.354 N 
HETATM   12  H   UNL     1       4.263  26.238  50.208  1.00  0.00     0.166 HD
HETATM   13  C   UNL     1       5.006  28.069  50.876  1.00  0.00     0.181 A 
HETATM   14  N   UNL     1       5.572  28.410  52.045  1.00  0.00    -0.352 N 
HETATM   15  H   UNL     1       5.911  29.352  52.230  1.00  0.00     0.166 HD
HETATM   16  C   UNL     1       4.971  24.876  52.667  1.00  0.00     0.089 C 
HETATM   17  C   UNL     1       5.304  24.852  54.181  1.00  0.00     0.280 C 
ENDROOT
BRANCH   1  18
HETATM   18  C   UNL     1       7.732  25.196  54.052  1.00  0.00     0.273 C 
BRANCH  18  19
HETATM   19  C   UNL     1       8.079  23.752  54.450  1.00  0.00     0.026 C 
HETATM   20  C   UNL     1       8.230  22.821  53.254  1.00  0.00     0.007 C 
ENDBRANCH  18  19
ENDBRANCH   1  18
BRANCH   5  21
HETATM   21  C   UNL     1       6.704  30.080  56.925  1.00  0.00     0.301 C 
BRANCH  21  22
HETATM   22  C   UNL     1       7.180  30.675  58.187  1.00  0.00     0.107 A 
HETATM   23  O   UNL     1       8.130  29.956  58.836  1.00  0.00    -0.216 OA
HETATM   24  N   UNL     1       8.304  30.460  60.099  1.00  0.00    -0.128 NA
HETATM   25  C   UNL     1       7.509  31.539  60.196  1.00  0.00     0.097 A 
HETATM   26  C   UNL     1       6.809  31.740  58.970  1.00  0.00     0.071 A 
BRANCH  25  27
HETATM   27  C   UNL     1       7.352  32.278  61.443  1.00  0.00    -0.005 A 
HETATM   28  C   UNL     1       8.172  31.978  62.543  1.00  0.00     0.014 A 
HETATM   29  C   UNL     1       7.983  32.626  63.765  1.00  0.00     0.001 A 
HETATM   30  C   UNL     1       6.983  33.586  63.896  1.00  0.00     0.000 A 
HETATM   31  C   UNL     1       6.175  33.904  62.805  1.00  0.00     0.001 A 
HETATM   32  C   UNL     1       6.355  33.252  61.583  1.00  0.00     0.014 A 
ENDBRANCH  25  27
ENDBRANCH  21  22
ENDBRANCH   5  21
TORSDOF 5
ENDMDL
MODEL 2
REMARK VINA RESULT:      -9.1      1.877      3.659
REMARK  5 active torsions:
REMARK  status: ('A' for Active; 'I' for Inactive)
REMARK    1  A    between atoms: C_2  and  C_3 
REMARK    2  A    between atoms: C_3  and  N_4 
REMARK    3  A    between atoms: N_8  and  C_10 
REMARK    4  A    between atoms: C_10  and  C_11 
REMARK    5  A    between atoms: C_14  and  C_15 
ROOT
HETATM    1  N   UNL     1       6.614  27.335  54.881  1.00  0.00     0.104 N 
HETATM    2  C   UNL     1       7.434  27.069  56.131  1.00  0.00     0.206 C 
HETATM    3  C   UNL     1       6.785  27.622  57.423  1.00  0.00     0.076 C 
HETATM    4  C   UNL     1       6.606  29.136  57.350  1.00  0.00     0.238 C 
HETATM    5  N   UNL     1       7.945  29.824  57.197  1.00  0.00    -0.065 N 
HETATM    6  H   UNL     1       7.706  30.805  56.989  1.00  0.00     0.280 HD
HETATM    7  C   UNL     1       8.685  29.319  55.984  1.00  0.00     0.238 C 
HETATM    8  C   UNL     1       8.811  27.794  56.011  1.00  0.00     0.076 C 
HETATM    9  C   UNL     1       7.682  25.578  56.253  1.00  0.00     0.072 A 
HETATM   10  C   UNL     1       7.564  24.685  55.206  1.00  0.00     0.037 A 
HETATM   11  N   UNL     1       7.875  23.443  55.712  1.00  0.00    -0.354 N 
HETATM   12  H   UNL     1       7.866  22.569  55.186  1.00  0.00     0.166 HD
HETATM   13  C   UNL     1       8.175  23.528  57.012  1.00  0.00     0.181 A 
HETATM   14  N   UNL     1       8.068  24.824  57.348  1.00  0.00    -0.352 N 
HETATM   15  H   UNL     1       8.233  25.155  58.297  1.00  0.00     0.166 HD
HETATM   16  C   UNL     1       7.133  25.028  53.838  1.00  0.00     0.089 C 
HETATM   17  C   UNL     1       7.137  26.571  53.692  1.00  0.00     0.280 C 
ENDROOT
BRANCH   1  18
HETATM   18  C   UNL     1       5.150  27.096  55.037  1.00  0.00     0.273 C 
BRANCH  18  19
HETATM   19  C   UNL     1       4.235  28.260  54.619  1.00  0.00     0.026 C 
HETATM   20  C   UNL     1       3.778  28.171  53.170  1.00  0.00     0.007 C 
ENDBRANCH  18  19
ENDBRANCH   1  18
BRANCH   5  21
HETATM   21  C   UNL     1       8.812  29.933  58.456  1.00  0.00     0.301 C 
BRANCH  21  22
HETATM   22  C   UNL     1       8.426  31.059  59.326  1.00  0.00     0.107 A 
HETATM   23  O   UNL     1       9.178  32.179  59.180  1.00  0.00    -0.216 OA
HETATM   24  N   UNL     1       8.905  33.052  60.201  1.00  0.00    -0.128 NA
HETATM   25  C   UNL     1       7.927  32.494  60.934  1.00  0.00     0.097 A 
HETATM   26  C   UNL     1       7.557  31.236  60.374  1.00  0.00     0.071 A 
BRANCH  25  27
HETATM   27  C   UNL     1       7.446  33.094  62.172  1.00  0.00    -0.005 A 
HETATM   28  C   UNL     1       7.980  32.682  63.405  1.00  0.00     0.014 A 
HETATM   29  C   UNL     1       7.476  33.194  64.601  1.00  0.00     0.001 A 
HETATM   30  C   UNL     1       6.444  34.128  64.580  1.00  0.00     0.000 A 
HETATM   31  C   UNL     1       5.918  34.556  63.362  1.00  0.00     0.001 A 
HETATM   32  C   UNL     1       6.413  34.040  62.162  1.00  0.00     0.014 A 
ENDBRANCH  25  27
ENDBRANCH  21  22
ENDBRANCH   5  21
TORSDOF 5
ENDMDL
MODEL 3
REMARK VINA RESULT:      -9.1      6.032      8.710
REMARK  5 active torsions:
REMARK  status: ('A' for Active; 'I' for Inactive)
REMARK    1  A    between atoms: C_2  and  C_3 
REMARK    2  A    between atoms: C_3  and  N_4 
REMARK    3  A    between atoms: N_8  and  C_10 
REMARK    4  A    between atoms: C_10  and  C_11 
REMARK    5  A    between atoms: C_14  and  C_15 
ROOT
HETATM    1  N   UNL     1       2.929  28.630  49.581  1.00  0.00     0.104 N 
HETATM    2  C   UNL     1       4.117  29.115  50.392  1.00  0.00     0.206 C 
HETATM    3  C   UNL     1       5.224  28.046  50.563  1.00  0.00     0.076 C 
HETATM    4  C   UNL     1       4.696  26.811  51.287  1.00  0.00     0.238 C 
HETATM    5  N   UNL     1       4.211  27.173  52.674  1.00  0.00    -0.065 N 
HETATM    6  H   UNL     1       3.728  26.324  53.006  1.00  0.00     0.280 HD
HETATM    7  C   UNL     1       3.156  28.249  52.622  1.00  0.00     0.238 C 
HETATM    8  C   UNL     1       3.649  29.467  51.839  1.00  0.00     0.076 C 
HETATM    9  C   UNL     1       4.679  30.368  49.747  1.00  0.00     0.072 A 
HETATM   10  C   UNL     1       3.982  31.159  48.855  1.00  0.00     0.037 A 
HETATM   11  N   UNL     1       4.822  32.193  48.508  1.00  0.00    -0.354 N 
HETATM   12  H   UNL     1       4.601  32.941  47.850  1.00  0.00     0.166 HD
HETATM   13  C   UNL     1       5.995  32.074  49.136  1.00  0.00     0.181 A 
HETATM   14  N   UNL     1       5.915  30.972  49.899  1.00  0.00    -0.352 N 
HETATM   15  H   UNL     1       6.692  30.651  50.473  1.00  0.00     0.166 HD
HETATM   16  C   UNL     1       2.621  30.886  48.357  1.00  0.00     0.089 C 
HETATM   17  C   UNL     1       1.997  29.758  49.219  1.00  0.00     0.280 C 
ENDROOT
BRANCH   1  18
HETATM   18  C   UNL     1       3.286  27.852  48.361  1.00  0.00     0.273 C 
BRANCH  18  19
HETATM   19  C   UNL     1       2.355  26.675  48.023  1.00  0.00     0.026 C 
HETATM   20  C   UNL     1       3.076  25.334  47.980  1.00  0.00     0.007 C 
ENDBRANCH  18  19
ENDBRANCH   1  18
BRANCH   5  21
HETATM   21  C   UNL     1       5.287  27.405  53.741  1.00  0.00     0.301 C 
BRANCH  21  22
HETATM   22  C   UNL     1       6.182  26.247  53.918  1.00  0.00     0.107 A 
HETATM   23  O   UNL     1       7.386  26.356  53.301  1.00  0.00    -0.216 OA
HETATM   24  N   UNL     1       8.019  25.139  53.313  1.00  0.00    -0.128 NA
HETATM   25  C   UNL     1       7.230  24.301  54.006  1.00  0.00     0.097 A 
HETATM   26  C   UNL     1       6.065  24.988  54.455  1.00  0.00     0.071 A 
BRANCH  25  27
HETATM   27  C   UNL     1       7.533  22.881  54.139  1.00  0.00    -0.005 A 
HETATM   28  C   UNL     1       7.538  22.282  55.409  1.00  0.00     0.014 A 
HETATM   29  C   UNL     1       7.899  20.942  55.559  1.00  0.00     0.001 A 
HETATM   30  C   UNL     1       8.248  20.186  54.444  1.00  0.00     0.000 A 
HETATM   31  C   UNL     1       8.230  20.766  53.175  1.00  0.00     0.001 A 
HETATM   32  C   UNL     1       7.878  22.109  53.022  1.00  0.00     0.014 A 
ENDBRANCH  25  27
ENDBRANCH  21  22
ENDBRANCH   5  21
TORSDOF 5
ENDMDL
MODEL 4
REMARK VINA RESULT:      -8.8      5.856      8.630
REMARK  5 active torsions:
REMARK  status: ('A' for Active; 'I' for Inactive)
REMARK    1  A    between atoms: C_2  and  C_3 
REMARK    2  A    between atoms: C_3  and  N_4 
REMARK    3  A    between atoms: N_8  and  C_10 
REMARK    4  A    between atoms: C_10  and  C_11 
REMARK    5  A    between atoms: C_14  and  C_15 
ROOT
HETATM    1  N   UNL     1       5.194  29.636  49.672  1.00  0.00     0.104 N 
HETATM    2  C   UNL     1       4.196  28.710  50.346  1.00  0.00     0.206 C 
HETATM    3  C   UNL     1       3.586  29.300  51.641  1.00  0.00     0.076 C 
HETATM    4  C   UNL     1       4.664  29.586  52.682  1.00  0.00     0.238 C 
HETATM    5  N   UNL     1       5.383  28.312  53.070  1.00  0.00    -0.065 N 
HETATM    6  H   UNL     1       6.185  28.632  53.634  1.00  0.00     0.280 HD
HETATM    7  C   UNL     1       5.978  27.630  51.864  1.00  0.00     0.238 C 
HETATM    8  C   UNL     1       4.920  27.399  50.784  1.00  0.00     0.076 C 
HETATM    9  C   UNL     1       3.105  28.353  49.355  1.00  0.00     0.072 A 
HETATM   10  C   UNL     1       3.228  28.486  47.986  1.00  0.00     0.037 A 
HETATM   11  N   UNL     1       2.039  28.055  47.441  1.00  0.00    -0.354 N 
HETATM   12  H   UNL     1       1.813  28.043  46.446  1.00  0.00     0.166 HD
HETATM   13  C   UNL     1       1.196  27.668  48.403  1.00  0.00     0.181 A 
HETATM   14  N   UNL     1       1.838  27.838  49.570  1.00  0.00    -0.352 N 
HETATM   15  H   UNL     1       1.402  27.627  50.466  1.00  0.00     0.166 HD
HETATM   16  C   UNL     1       4.403  29.038  47.286  1.00  0.00     0.089 C 
HETATM   17  C   UNL     1       5.572  29.150  48.297  1.00  0.00     0.280 C 
ENDROOT
BRANCH   1  18
HETATM   18  C   UNL     1       4.772  31.064  49.610  1.00  0.00     0.273 C 
BRANCH  18  19
HETATM   19  C   UNL     1       5.828  32.093  50.050  1.00  0.00     0.026 C 
HETATM   20  C   UNL     1       5.298  33.100  51.062  1.00  0.00     0.007 C 
ENDBRANCH  18  19
ENDBRANCH   1  18
BRANCH   5  21
HETATM   21  C   UNL     1       4.641  27.365  54.021  1.00  0.00     0.301 C 
BRANCH  21  22
HETATM   22  C   UNL     1       5.451  26.200  54.422  1.00  0.00     0.107 A 
HETATM   23  O   UNL     1       6.547  26.495  55.167  1.00  0.00    -0.216 OA
HETATM   24  N   UNL     1       7.351  25.387  55.258  1.00  0.00    -0.128 NA
HETATM   25  C   UNL     1       6.707  24.391  54.627  1.00  0.00     0.097 A 
HETATM   26  C   UNL     1       5.460  24.860  54.121  1.00  0.00     0.071 A 
BRANCH  25  27
HETATM   27  C   UNL     1       7.311  23.079  54.431  1.00  0.00    -0.005 A 
HETATM   28  C   UNL     1       7.574  22.616  53.131  1.00  0.00     0.014 A 
HETATM   29  C   UNL     1       8.082  21.333  52.925  1.00  0.00     0.001 A 
HETATM   30  C   UNL     1       8.342  20.504  54.014  1.00  0.00     0.000 A 
HETATM   31  C   UNL     1       8.100  20.959  55.309  1.00  0.00     0.001 A 
HETATM   32  C   UNL     1       7.583  22.240  55.519  1.00  0.00     0.014 A 
ENDBRANCH  25  27
ENDBRANCH  21  22
ENDBRANCH   5  21
TORSDOF 5
ENDMDL
MODEL 5
REMARK VINA RESULT:      -8.3      6.817      9.451
REMARK  5 active torsions:
REMARK  status: ('A' for Active; 'I' for Inactive)
REMARK    1  A    between atoms: C_2  and  C_3 
REMARK    2  A    between atoms: C_3  and  N_4 
REMARK    3  A    between atoms: N_8  and  C_10 
REMARK    4  A    between atoms: C_10  and  C_11 
REMARK    5  A    between atoms: C_14  and  C_15 
ROOT
HETATM    1  N   UNL     1       1.902  29.245  48.286  1.00  0.00     0.104 N 
HETATM    2  C   UNL     1       3.316  29.598  48.709  1.00  0.00     0.206 C 
HETATM    3  C   UNL     1       4.329  28.447  48.493  1.00  0.00     0.076 C 
HETATM    4  C   UNL     1       3.945  27.211  49.300  1.00  0.00     0.238 C 
HETATM    5  N   UNL     1       3.936  27.522  50.781  1.00  0.00    -0.065 N 
HETATM    6  H   UNL     1       3.507  26.690  51.215  1.00  0.00     0.280 HD
HETATM    7  C   UNL     1       3.009  28.669  51.094  1.00  0.00     0.238 C 
HETATM    8  C   UNL     1       3.341  29.894  50.241  1.00  0.00     0.076 C 
HETATM    9  C   UNL     1       3.758  30.846  47.968  1.00  0.00     0.072 A 
HETATM   10  C   UNL     1       2.891  31.734  47.362  1.00  0.00     0.037 A 
HETATM   11  N   UNL     1       3.670  32.727  46.810  1.00  0.00    -0.354 N 
HETATM   12  H   UNL     1       3.323  33.527  46.280  1.00  0.00     0.166 HD
HETATM   13  C   UNL     1       4.965  32.491  47.043  1.00  0.00     0.181 A 
HETATM   14  N   UNL     1       5.028  31.354  47.754  1.00  0.00    -0.352 N 
HETATM   15  H   UNL     1       5.913  30.946  48.049  1.00  0.00     0.166 HD
HETATM   16  C   UNL     1       1.426  31.585  47.297  1.00  0.00     0.089 C 
HETATM   17  C   UNL     1       1.001  30.453  48.268  1.00  0.00     0.280 C 
ENDROOT
BRANCH   1  18
HETATM   18  C   UNL     1       1.805  28.518  46.988  1.00  0.00     0.273 C 
BRANCH  18  19
HETATM   19  C   UNL     1       0.749  27.401  46.925  1.00  0.00     0.026 C 
HETATM   20  C   UNL     1      -0.273  27.606  45.815  1.00  0.00     0.007 C 
ENDBRANCH  18  19
ENDBRANCH   1  18
BRANCH   5  21
HETATM   21  C   UNL     1       5.301  27.615  51.474  1.00  0.00     0.301 C 
BRANCH  21  22
HETATM   22  C   UNL     1       5.584  26.462  52.347  1.00  0.00     0.107 A 
HETATM   23  O   UNL     1       5.422  26.695  53.674  1.00  0.00    -0.216 OA
HETATM   24  N   UNL     1       5.955  25.655  54.391  1.00  0.00    -0.128 NA
HETATM   25  C   UNL     1       6.379  24.748  53.496  1.00  0.00     0.097 A 
HETATM   26  C   UNL     1       6.112  25.206  52.173  1.00  0.00     0.071 A 
BRANCH  25  27
HETATM   27  C   UNL     1       7.101  23.544  53.893  1.00  0.00    -0.005 A 
HETATM   28  C   UNL     1       7.232  23.222  55.254  1.00  0.00     0.014 A 
HETATM   29  C   UNL     1       7.983  22.116  55.651  1.00  0.00     0.001 A 
HETATM   30  C   UNL     1       8.600  21.314  54.694  1.00  0.00     0.000 A 
HETATM   31  C   UNL     1       8.463  21.614  53.339  1.00  0.00     0.001 A 
HETATM   32  C   UNL     1       7.719  22.727  52.938  1.00  0.00     0.014 A 
ENDBRANCH  25  27
ENDBRANCH  21  22
ENDBRANCH   5  21
TORSDOF 5
ENDMDL
MODEL 6
REMARK VINA RESULT:      -8.2      3.645      8.950
REMARK  5 active torsions:
REMARK  status: ('A' for Active; 'I' for Inactive)
REMARK    1  A    between atoms: C_2  and  C_3 
REMARK    2  A    between atoms: C_3  and  N_4 
REMARK    3  A    between atoms: N_8  and  C_10 
REMARK    4  A    between atoms: C_10  and  C_11 
REMARK    5  A    between atoms: C_14  and  C_15 
ROOT
HETATM    1  N   UNL     1       4.486  29.416  55.211  1.00  0.00     0.104 N 
HETATM    2  C   UNL     1       5.657  28.717  54.543  1.00  0.00     0.206 C 
HETATM    3  C   UNL     1       5.815  29.077  53.045  1.00  0.00     0.076 C 
HETATM    4  C   UNL     1       4.576  28.683  52.245  1.00  0.00     0.238 C 
HETATM    5  N   UNL     1       4.346  27.190  52.320  1.00  0.00    -0.065 N 
HETATM    6  H   UNL     1       3.413  27.053  51.903  1.00  0.00     0.280 HD
HETATM    7  C   UNL     1       4.224  26.725  53.750  1.00  0.00     0.238 C 
HETATM    8  C   UNL     1       5.429  27.174  54.579  1.00  0.00     0.076 C 
HETATM    9  C   UNL     1       6.927  29.037  55.307  1.00  0.00     0.072 A 
HETATM   10  C   UNL     1       6.952  29.508  56.605  1.00  0.00     0.037 A 
HETATM   11  N   UNL     1       8.278  29.666  56.939  1.00  0.00    -0.354 N 
HETATM   12  H   UNL     1       8.627  30.014  57.833  1.00  0.00     0.166 HD
HETATM   13  C   UNL     1       9.065  29.319  55.916  1.00  0.00     0.181 A 
HETATM   14  N   UNL     1       8.252  28.927  54.921  1.00  0.00    -0.352 N 
HETATM   15  H   UNL     1       8.608  28.624  54.016  1.00  0.00     0.166 HD
HETATM   16  C   UNL     1       5.765  29.820  57.421  1.00  0.00     0.089 C 
HETATM   17  C   UNL     1       4.512  29.248  56.709  1.00  0.00     0.280 C 
ENDROOT
BRANCH   1  18
HETATM   18  C   UNL     1       4.342  30.858  54.862  1.00  0.00     0.273 C 
BRANCH  18  19
HETATM   19  C   UNL     1       2.944  31.296  54.394  1.00  0.00     0.026 C 
HETATM   20  C   UNL     1       2.419  32.517  55.137  1.00  0.00     0.007 C 
ENDBRANCH  18  19
ENDBRANCH   1  18
BRANCH   5  21
HETATM   21  C   UNL     1       5.252  26.308  51.453  1.00  0.00     0.301 C 
BRANCH  21  22
HETATM   22  C   UNL     1       6.108  25.406  52.245  1.00  0.00     0.107 A 
HETATM   23  O   UNL     1       7.429  25.714  52.232  1.00  0.00    -0.216 OA
HETATM   24  N   UNL     1       8.147  24.678  52.774  1.00  0.00    -0.128 NA
HETATM   25  C   UNL     1       7.253  23.764  53.186  1.00  0.00     0.097 A 
HETATM   26  C   UNL     1       5.930  24.218  52.911  1.00  0.00     0.071 A 
BRANCH  25  27
HETATM   27  C   UNL     1       7.656  22.471  53.725  1.00  0.00    -0.005 A 
HETATM   28  C   UNL     1       7.566  22.227  55.105  1.00  0.00     0.014 A 
HETATM   29  C   UNL     1       8.018  21.022  55.643  1.00  0.00     0.001 A 
HETATM   30  C   UNL     1       8.554  20.045  54.809  1.00  0.00     0.000 A 
HETATM   31  C   UNL     1       8.633  20.269  53.434  1.00  0.00     0.001 A 
HETATM   32  C   UNL     1       8.190  21.478  52.893  1.00  0.00     0.014 A 
ENDBRANCH  25  27
ENDBRANCH  21  22
ENDBRANCH   5  21
TORSDOF 5
ENDMDL
MODEL 7
REMARK VINA RESULT:      -8.0      5.382      9.107
REMARK  5 active torsions:
REMARK  status: ('A' for Active; 'I' for Inactive)
REMARK    1  A    between atoms: C_2  and  C_3 
REMARK    2  A    between atoms: C_3  and  N_4 
REMARK    3  A    between atoms: N_8  and  C_10 
REMARK    4  A    between atoms: C_10  and  C_11 
REMARK    5  A    between atoms: C_14  and  C_15 
ROOT
HETATM    1  N   UNL     1       4.222  31.142  51.804  1.00  0.00     0.104 N 
HETATM    2  C   UNL     1       4.087  29.946  50.878  1.00  0.00     0.206 C 
HETATM    3  C   UNL     1       3.083  28.883  51.387  1.00  0.00     0.076 C 
HETATM    4  C   UNL     1       3.507  28.322  52.740  1.00  0.00     0.238 C 
HETATM    5  N   UNL     1       4.856  27.644  52.637  1.00  0.00    -0.065 N 
HETATM    6  H   UNL     1       5.124  27.456  53.615  1.00  0.00     0.280 HD
HETATM    7  C   UNL     1       5.904  28.587  52.103  1.00  0.00     0.238 C 
HETATM    8  C   UNL     1       5.459  29.210  50.778  1.00  0.00     0.076 C 
HETATM    9  C   UNL     1       3.697  30.432  49.495  1.00  0.00     0.072 A 
HETATM   10  C   UNL     1       3.862  31.731  49.055  1.00  0.00     0.037 A 
HETATM   11  N   UNL     1       3.399  31.768  47.759  1.00  0.00    -0.354 N 
HETATM   12  H   UNL     1       3.374  32.595  47.162  1.00  0.00     0.166 HD
HETATM   13  C   UNL     1       2.958  30.563  47.384  1.00  0.00     0.181 A 
HETATM   14  N   UNL     1       3.143  29.742  48.430  1.00  0.00    -0.352 N 
HETATM   15  H   UNL     1       2.872  28.761  48.405  1.00  0.00     0.166 HD
HETATM   16  C   UNL     1       4.387  32.845  49.866  1.00  0.00     0.089 C 
HETATM   17  C   UNL     1       5.001  32.263  51.165  1.00  0.00     0.280 C 
ENDROOT
BRANCH   1  18
HETATM   18  C   UNL     1       2.931  31.660  52.341  1.00  0.00     0.273 C 
BRANCH  18  19
HETATM   19  C   UNL     1       2.872  31.854  53.866  1.00  0.00     0.026 C 
HETATM   20  C   UNL     1       4.113  31.340  54.583  1.00  0.00     0.007 C 
ENDBRANCH  18  19
ENDBRANCH   1  18
BRANCH   5  21
HETATM   21  C   UNL     1       4.881  26.253  51.993  1.00  0.00     0.301 C 
BRANCH  21  22
HETATM   22  C   UNL     1       5.924  25.376  52.555  1.00  0.00     0.107 A 
HETATM   23  O   UNL     1       7.085  25.344  51.852  1.00  0.00    -0.216 OA
HETATM   24  N   UNL     1       7.870  24.318  52.310  1.00  0.00    -0.128 NA
HETATM   25  C   UNL     1       7.218  23.766  53.347  1.00  0.00     0.097 A 
HETATM   26  C   UNL     1       5.988  24.451  53.568  1.00  0.00     0.071 A 
BRANCH  25  27
HETATM   27  C   UNL     1       7.707  22.572  54.025  1.00  0.00    -0.005 A 
HETATM   28  C   UNL     1       8.231  21.505  53.276  1.00  0.00     0.014 A 
HETATM   29  C   UNL     1       8.633  20.327  53.906  1.00  0.00     0.001 A 
HETATM   30  C   UNL     1       8.526  20.206  55.289  1.00  0.00     0.000 A 
HETATM   31  C   UNL     1       8.023  21.264  56.045  1.00  0.00     0.001 A 
HETATM   32  C   UNL     1       7.611  22.442  55.417  1.00  0.00     0.014 A 
ENDBRANCH  25  27
ENDBRANCH  21  22
ENDBRANCH   5  21
TORSDOF 5
ENDMDL
MODEL 8
REMARK VINA RESULT:      -7.8      3.046      9.437
REMARK  5 active torsions:
REMARK  status: ('A' for Active; 'I' for Inactive)
REMARK    1  A    between atoms: C_2  and  C_3 
REMARK    2  A    between atoms: C_3  and  N_4 
REMARK    3  A    between atoms: N_8  and  C_10 
REMARK    4  A    between atoms: C_10  and  C_11 
REMARK    5  A    between atoms: C_14  and  C_15 
ROOT
HETATM    1  N   UNL     1       4.295  32.194  56.204  1.00  0.00     0.104 N 
HETATM    2  C   UNL     1       4.848  31.257  57.263  1.00  0.00     0.206 C 
HETATM    3  C   UNL     1       6.159  30.552  56.836  1.00  0.00     0.076 C 
HETATM    4  C   UNL     1       5.950  29.700  55.588  1.00  0.00     0.238 C 
HETATM    5  N   UNL     1       4.928  28.616  55.847  1.00  0.00    -0.065 N 
HETATM    6  H   UNL     1       4.737  28.216  54.916  1.00  0.00     0.280 HD
HETATM    7  C   UNL     1       3.618  29.198  56.316  1.00  0.00     0.238 C 
HETATM    8  C   UNL     1       3.824  30.110  57.527  1.00  0.00     0.076 C 
HETATM    9  C   UNL     1       5.052  32.031  58.551  1.00  0.00     0.072 A 
HETATM   10  C   UNL     1       4.443  33.238  58.834  1.00  0.00     0.037 A 
HETATM   11  N   UNL     1       4.872  33.609  60.089  1.00  0.00    -0.354 N 
HETATM   12  H   UNL     1       4.608  34.465  60.577  1.00  0.00     0.166 HD
HETATM   13  C   UNL     1       5.711  32.695  60.587  1.00  0.00     0.181 A 
HETATM   14  N   UNL     1       5.821  31.727  59.662  1.00  0.00    -0.352 N 
HETATM   15  H   UNL     1       6.420  30.915  59.794  1.00  0.00     0.166 HD
HETATM   16  C   UNL     1       3.554  33.978  57.921  1.00  0.00     0.089 C 
HETATM   17  C   UNL     1       3.175  33.049  56.739  1.00  0.00     0.280 C 
ENDROOT
BRANCH   1  18
HETATM   18  C   UNL     1       5.316  33.051  55.537  1.00  0.00     0.273 C 
BRANCH  18  19
HETATM   19  C   UNL     1       4.882  33.701  54.213  1.00  0.00     0.026 C 
HETATM   20  C   UNL     1       4.958  35.222  54.239  1.00  0.00     0.007 C 
ENDBRANCH  18  19
ENDBRANCH   1  18
BRANCH   5  21
HETATM   21  C   UNL     1       5.398  27.404  56.660  1.00  0.00     0.301 C 
BRANCH  21  22
HETATM   22  C   UNL     1       6.020  26.357  55.828  1.00  0.00     0.107 A 
HETATM   23  O   UNL     1       5.660  26.379  54.519  1.00  0.00    -0.216 OA
HETATM   24  N   UNL     1       6.083  25.226  53.909  1.00  0.00    -0.128 NA
HETATM   25  C   UNL     1       6.769  24.531  54.831  1.00  0.00     0.097 A 
HETATM   26  C   UNL     1       6.795  25.249  56.062  1.00  0.00     0.071 A 
BRANCH  25  27
HETATM   27  C   UNL     1       7.286  23.193  54.569  1.00  0.00    -0.005 A 
HETATM   28  C   UNL     1       7.515  22.776  53.247  1.00  0.00     0.014 A 
HETATM   29  C   UNL     1       7.938  21.474  52.978  1.00  0.00     0.001 A 
HETATM   30  C   UNL     1       8.147  20.580  54.025  1.00  0.00     0.000 A 
HETATM   31  C   UNL     1       7.939  20.987  55.342  1.00  0.00     0.001 A 
HETATM   32  C   UNL     1       7.507  22.287  55.615  1.00  0.00     0.014 A 
ENDBRANCH  25  27
ENDBRANCH  21  22
ENDBRANCH   5  21
TORSDOF 5
ENDMDL
MODEL 9
REMARK VINA RESULT:      -7.5      6.710      9.342
REMARK  5 active torsions:
REMARK  status: ('A' for Active; 'I' for Inactive)
REMARK    1  A    between atoms: C_2  and  C_3 
REMARK    2  A    between atoms: C_3  and  N_4 
REMARK    3  A    between atoms: N_8  and  C_10 
REMARK    4  A    between atoms: C_10  and  C_11 
REMARK    5  A    between atoms: C_14  and  C_15 
ROOT
HETATM    1  N   UNL     1       3.137  30.533  49.559  1.00  0.00     0.104 N 
HETATM    2  C   UNL     1       4.333  30.658  50.486  1.00  0.00     0.206 C 
HETATM    3  C   UNL     1       5.560  29.836  50.021  1.00  0.00     0.076 C 
HETATM    4  C   UNL     1       5.237  28.347  49.950  1.00  0.00     0.238 C 
HETATM    5  N   UNL     1       4.841  27.821  51.313  1.00  0.00    -0.065 N 
HETATM    6  H   UNL     1       4.484  26.872  51.127  1.00  0.00     0.280 HD
HETATM    7  C   UNL     1       3.675  28.591  51.879  1.00  0.00     0.238 C 
HETATM    8  C   UNL     1       3.961  30.094  51.892  1.00  0.00     0.076 C 
HETATM    9  C   UNL     1       4.695  32.124  50.632  1.00  0.00     0.072 A 
HETATM   10  C   UNL     1       3.839  33.166  50.336  1.00  0.00     0.037 A 
HETATM   11  N   UNL     1       4.527  34.328  50.606  1.00  0.00    -0.354 N 
HETATM   12  H   UNL     1       4.168  35.274  50.475  1.00  0.00     0.166 HD
HETATM   13  C   UNL     1       5.758  34.051  51.047  1.00  0.00     0.181 A 
HETATM   14  N   UNL     1       5.867  32.713  51.075  1.00  0.00    -0.352 N 
HETATM   15  H   UNL     1       6.723  32.243  51.364  1.00  0.00     0.166 HD
HETATM   16  C   UNL     1       2.477  33.021  49.790  1.00  0.00     0.089 C 
HETATM   17  C   UNL     1       2.059  31.532  49.894  1.00  0.00     0.280 C 
ENDROOT
BRANCH   1  18
HETATM   18  C   UNL     1       3.466  30.605  48.107  1.00  0.00     0.273 C 
BRANCH  18  19
HETATM   19  C   UNL     1       2.987  29.419  47.253  1.00  0.00     0.026 C 
HETATM   20  C   UNL     1       1.611  29.640  46.639  1.00  0.00     0.007 C 
ENDBRANCH  18  19
ENDBRANCH   1  18
BRANCH   5  21
HETATM   21  C   UNL     1       5.976  27.581  52.315  1.00  0.00     0.301 C 
BRANCH  21  22
HETATM   22  C   UNL     1       6.291  26.152  52.498  1.00  0.00     0.107 A 
HETATM   23  O   UNL     1       5.252  25.306  52.281  1.00  0.00    -0.216 OA
HETATM   24  N   UNL     1       5.582  24.052  52.727  1.00  0.00    -0.128 NA
HETATM   25  C   UNL     1       6.855  24.116  53.151  1.00  0.00     0.097 A 
HETATM   26  C   UNL     1       7.362  25.436  52.972  1.00  0.00     0.071 A 
BRANCH  25  27
HETATM   27  C   UNL     1       7.518  22.987  53.793  1.00  0.00    -0.005 A 
HETATM   28  C   UNL     1       7.901  21.872  53.029  1.00  0.00     0.014 A 
HETATM   29  C   UNL     1       8.468  20.755  53.641  1.00  0.00     0.001 A 
HETATM   30  C   UNL     1       8.669  20.742  55.019  1.00  0.00     0.000 A 
HETATM   31  C   UNL     1       8.307  21.850  55.786  1.00  0.00     0.001 A 
HETATM   32  C   UNL     1       7.731  22.968  55.177  1.00  0.00     0.014 A 
ENDBRANCH  25  27
ENDBRANCH  21  22
ENDBRANCH   5  21
TORSDOF 5
ENDMDL
MODEL 10
REMARK VINA RESULT:      -7.5      3.629      9.112
REMARK  5 active torsions:
REMARK  status: ('A' for Active; 'I' for Inactive)
REMARK    1  A    between atoms: C_2  and  C_3 
REMARK    2  A    between atoms: C_3  and  N_4 
REMARK    3  A    between atoms: N_8  and  C_10 
REMARK    4  A    between atoms: C_10  and  C_11 
REMARK    5  A    between atoms: C_14  and  C_15 
ROOT
HETATM    1  N   UNL     1       4.500  32.697  57.250  1.00  0.00     0.104 N 
HETATM    2  C   UNL     1       3.719  31.802  56.305  1.00  0.00     0.206 C 
HETATM    3  C   UNL     1       3.138  30.541  56.991  1.00  0.00     0.076 C 
HETATM    4  C   UNL     1       4.244  29.670  57.579  1.00  0.00     0.238 C 
HETATM    5  N   UNL     1       5.181  29.191  56.492  1.00  0.00    -0.065 N 
HETATM    6  H   UNL     1       5.970  28.766  57.002  1.00  0.00     0.280 HD
HETATM    7  C   UNL     1       5.769  30.350  55.726  1.00  0.00     0.238 C 
HETATM    8  C   UNL     1       4.670  31.269  55.189  1.00  0.00     0.076 C 
HETATM    9  C   UNL     1       2.615  32.612  55.653  1.00  0.00     0.072 A 
HETATM   10  C   UNL     1       2.598  33.992  55.595  1.00  0.00     0.037 A 
HETATM   11  N   UNL     1       1.448  34.343  54.924  1.00  0.00    -0.354 N 
HETATM   12  H   UNL     1       1.142  35.296  54.731  1.00  0.00     0.166 HD
HETATM   13  C   UNL     1       0.760  33.252  54.572  1.00  0.00     0.181 A 
HETATM   14  N   UNL     1       1.466  32.194  55.004  1.00  0.00    -0.352 N 
HETATM   15  H   UNL     1       1.145  31.237  54.871  1.00  0.00     0.166 HD
HETATM   16  C   UNL     1       3.609  34.882  56.194  1.00  0.00     0.089 C 
HETATM   17  C   UNL     1       4.830  34.027  56.620  1.00  0.00     0.280 C 
ENDROOT
BRANCH   1  18
HETATM   18  C   UNL     1       3.859  32.908  58.579  1.00  0.00     0.273 C 
BRANCH  18  19
HETATM   19  C   UNL     1       4.724  33.619  59.633  1.00  0.00     0.026 C 
HETATM   20  C   UNL     1       3.990  34.744  60.350  1.00  0.00     0.007 C 
ENDBRANCH  18  19
ENDBRANCH   1  18
BRANCH   5  21
HETATM   21  C   UNL     1       4.679  28.047  55.604  1.00  0.00     0.301 C 
BRANCH  21  22
HETATM   22  C   UNL     1       5.549  26.857  55.649  1.00  0.00     0.107 A 
HETATM   23  O   UNL     1       6.589  26.943  56.516  1.00  0.00    -0.216 OA
HETATM   24  N   UNL     1       7.462  25.910  56.287  1.00  0.00    -0.128 NA
HETATM   25  C   UNL     1       6.915  25.148  55.326  1.00  0.00     0.097 A 
HETATM   26  C   UNL     1       5.661  25.695  54.926  1.00  0.00     0.071 A 
BRANCH  25  27
HETATM   27  C   UNL     1       7.614  24.007  54.746  1.00  0.00    -0.005 A 
HETATM   28  C   UNL     1       7.215  23.501  53.498  1.00  0.00     0.014 A 
HETATM   29  C   UNL     1       7.826  22.365  52.967  1.00  0.00     0.001 A 
HETATM   30  C   UNL     1       8.847  21.730  53.670  1.00  0.00     0.000 A 
HETATM   31  C   UNL     1       9.262  22.233  54.902  1.00  0.00     0.001 A 
HETATM   32  C   UNL     1       8.647  23.366  55.442  1.00  0.00     0.014 A 
ENDBRANCH  25  27
ENDBRANCH  21  22
ENDBRANCH   5  21
TORSDOF 5
ENDMDL
