MODEL 1
REMARK VINA RESULT:      -9.7      0.000      0.000
REMARK  6 active torsions:
REMARK  status: ('A' for Active; 'I' for Inactive)
REMARK    1  A    between atoms: C_2  and  C_3 
REMARK       I    between atoms: C_3  and  N_4 
REMARK    2  A    between atoms: N_4  and  C_5 
REMARK    3  A    between atoms: C_5  and  C_6 
REMARK    4  A    between atoms: N_8  and  C_10 
REMARK    5  A    between atoms: C_10  and  C_11 
REMARK    6  A    between atoms: C_12  and  C_13 
ROOT
HETATM    1  C   UNL     1       8.395  28.649  57.173  1.00  0.00     0.029 C 
HETATM    2  C   UNL     1       8.422  28.470  55.651  1.00  0.00     0.241 C 
HETATM    3  N   UNL     1       7.344  27.498  55.209  1.00  0.00    -0.067 N 
HETATM    4  H   UNL     1       7.519  26.601  55.676  1.00  0.00     0.280 HD
HETATM    5  C   UNL     1       5.968  27.947  55.627  1.00  0.00     0.235 C 
HETATM    6  C   UNL     1       5.927  28.076  57.141  1.00  0.00     0.028 C 
HETATM    7  C   UNL     1       6.988  29.042  57.650  1.00  0.00     0.009 C 
ENDROOT
BRANCH   3   8
HETATM    8  C   UNL     1       7.456  27.225  53.716  1.00  0.00     0.277 C 
BRANCH   8   9
HETATM    9  C   UNL     1       6.291  26.487  53.158  1.00  0.00     0.016 A 
HETATM   10  C   UNL     1       5.993  25.084  53.229  1.00  0.00     0.096 A 
HETATM   11  N   UNL     1       4.858  24.814  52.570  1.00  0.00    -0.174 NA
HETATM   12  N   UNL     1       4.461  25.975  52.048  1.00  0.00    -0.288 N 
HETATM   13  H   UNL     1       3.622  25.982  51.473  1.00  0.00     0.188 HD
HETATM   14  C   UNL     1       5.281  27.013  52.372  1.00  0.00     0.120 A 
BRANCH  10  15
HETATM   15  C   UNL     1       6.739  23.991  53.860  1.00  0.00    -0.003 A 
HETATM   16  C   UNL     1       7.267  22.930  53.118  1.00  0.00     0.037 A 
HETATM   17  C   UNL     1       7.959  21.899  53.758  1.00  0.00     0.035 A 
HETATM   18 CL   UNL     1       8.567  20.592  52.816  1.00  0.00    -0.084 Cl
HETATM   19  C   UNL     1       8.157  21.919  55.135  1.00  0.00     0.024 A 
HETATM   20  C   UNL     1       7.658  22.984  55.883  1.00  0.00     0.003 A 
HETATM   21  C   UNL     1       6.953  24.011  55.248  1.00  0.00     0.014 A 
ENDBRANCH  10  15
ENDBRANCH   8   9
ENDBRANCH   3   8
BRANCH   1  22
HETATM   22  C   UNL     1       9.398  29.718  57.645  1.00  0.00     0.128 C 
BRANCH  22  23
HETATM   23  N   UNL     1       9.026  30.372  58.883  1.00  0.00    -0.360 N 
HETATM   24  C   UNL     1       9.393  31.676  59.150  1.00  0.00     0.221 C 
HETATM   25  O   UNL     1      10.251  32.248  58.482  1.00  0.00    -0.273 OA
HETATM   26  H   UNL     1       8.262  29.974  59.421  1.00  0.00     0.162 HD
BRANCH  24  27
HETATM   27  C   UNL     1       8.697  32.299  60.358  1.00  0.00     0.070 C 
HETATM   28  C   UNL     1       9.357  31.849  61.660  1.00  0.00     0.019 C 
HETATM   29  C   UNL     1       7.212  31.938  60.373  1.00  0.00     0.019 C 
ENDBRANCH  24  27
ENDBRANCH  22  23
ENDBRANCH   1  22
TORSDOF 6
ENDMDL
MODEL 2
REMARK VINA RESULT:      -9.4      1.493      2.276
REMARK  6 active torsions:
REMARK  status: ('A' for Active; 'I' for Inactive)
REMARK    1  A    between atoms: C_2  and  C_3 
REMARK       I    between atoms: C_3  and  N_4 
REMARK    2  A    between atoms: N_4  and  C_5 
REMARK    3  A    between atoms: C_5  and  C_6 
REMARK    4  A    between atoms: N_8  and  C_10 
REMARK    5  A    between atoms: C_10  and  C_11 
REMARK    6  A    between atoms: C_12  and  C_13 
ROOT
HETATM    1  C   UNL     1       7.405  30.096  57.640  1.00  0.00     0.029 C 
HETATM    2  C   UNL     1       6.458  28.891  57.613  1.00  0.00     0.241 C 
HETATM    3  N   UNL     1       6.942  27.854  56.616  1.00  0.00    -0.067 N 
HETATM    4  H   UNL     1       6.977  28.299  55.692  1.00  0.00     0.280 HD
HETATM    5  C   UNL     1       8.336  27.376  56.926  1.00  0.00     0.235 C 
HETATM    6  C   UNL     1       9.284  28.564  56.902  1.00  0.00     0.028 C 
HETATM    7  C   UNL     1       8.854  29.645  57.885  1.00  0.00     0.009 C 
ENDROOT
BRANCH   3   8
HETATM    8  C   UNL     1       5.932  26.721  56.499  1.00  0.00     0.277 C 
BRANCH   8   9
HETATM    9  C   UNL     1       5.342  26.591  55.140  1.00  0.00     0.016 A 
HETATM   10  C   UNL     1       5.611  25.607  54.130  1.00  0.00     0.096 A 
HETATM   11  N   UNL     1       4.889  25.858  53.029  1.00  0.00    -0.174 NA
HETATM   12  N   UNL     1       4.220  26.982  53.287  1.00  0.00    -0.288 N 
HETATM   13  H   UNL     1       3.629  27.369  52.555  1.00  0.00     0.188 HD
HETATM   14  C   UNL     1       4.450  27.463  54.540  1.00  0.00     0.120 A 
BRANCH  10  15
HETATM   15  C   UNL     1       6.532  24.465  54.144  1.00  0.00    -0.003 A 
HETATM   16  C   UNL     1       6.931  23.852  55.335  1.00  0.00     0.037 A 
HETATM   17  C   UNL     1       7.821  22.776  55.310  1.00  0.00     0.035 A 
HETATM   18 CL   UNL     1       8.318  22.067  56.798  1.00  0.00    -0.084 Cl
HETATM   19  C   UNL     1       8.307  22.280  54.103  1.00  0.00     0.024 A 
HETATM   20  C   UNL     1       7.896  22.866  52.908  1.00  0.00     0.003 A 
HETATM   21  C   UNL     1       7.016  23.952  52.930  1.00  0.00     0.014 A 
ENDBRANCH  10  15
ENDBRANCH   8   9
ENDBRANCH   3   8
BRANCH   1  22
HETATM   22  C   UNL     1       7.010  31.116  58.724  1.00  0.00     0.128 C 
BRANCH  22  23
HETATM   23  N   UNL     1       7.736  30.965  59.969  1.00  0.00    -0.360 N 
HETATM   24  C   UNL     1       8.658  31.905  60.386  1.00  0.00     0.221 C 
HETATM   25  O   UNL     1       9.088  32.762  59.619  1.00  0.00    -0.273 OA
HETATM   26  H   UNL     1       7.362  30.325  60.663  1.00  0.00     0.162 HD
BRANCH  24  27
HETATM   27  C   UNL     1       9.125  31.740  61.831  1.00  0.00     0.070 C 
HETATM   28  C   UNL     1       9.405  30.273  62.150  1.00  0.00     0.019 C 
HETATM   29  C   UNL     1       8.085  32.298  62.802  1.00  0.00     0.019 C 
ENDBRANCH  24  27
ENDBRANCH  22  23
ENDBRANCH   1  22
TORSDOF 6
ENDMDL
MODEL 3
REMARK VINA RESULT:      -9.1      4.242      9.413
REMARK  6 active torsions:
REMARK  status: ('A' for Active; 'I' for Inactive)
REMARK    1  A    between atoms: C_2  and  C_3 
REMARK       I    between atoms: C_3  and  N_4 
REMARK    2  A    between atoms: N_4  and  C_5 
REMARK    3  A    between atoms: C_5  and  C_6 
REMARK    4  A    between atoms: N_8  and  C_10 
REMARK    5  A    between atoms: C_10  and  C_11 
REMARK    6  A    between atoms: C_12  and  C_13 
ROOT
HETATM    1  C   UNL     1       7.494  25.747  55.558  1.00  0.00     0.029 C 
HETATM    2  C   UNL     1       7.378  26.638  56.800  1.00  0.00     0.241 C 
HETATM    3  N   UNL     1       8.076  27.966  56.571  1.00  0.00    -0.067 N 
HETATM    4  H   UNL     1       9.062  27.772  56.364  1.00  0.00     0.280 HD
HETATM    5  C   UNL     1       7.516  28.704  55.384  1.00  0.00     0.235 C 
HETATM    6  C   UNL     1       7.677  27.841  54.142  1.00  0.00     0.028 C 
HETATM    7  C   UNL     1       6.995  26.489  54.308  1.00  0.00     0.009 C 
ENDROOT
BRANCH   3   8
HETATM    8  C   UNL     1       8.070  28.795  57.848  1.00  0.00     0.277 C 
BRANCH   8   9
HETATM    9  C   UNL     1       9.137  29.830  57.889  1.00  0.00     0.016 A 
HETATM   10  C   UNL     1       9.194  31.038  58.663  1.00  0.00     0.096 A 
HETATM   11  N   UNL     1      10.317  31.716  58.389  1.00  0.00    -0.174 NA
HETATM   12  N   UNL     1      10.939  31.013  57.443  1.00  0.00    -0.288 N 
HETATM   13  H   UNL     1      11.810  31.380  57.065  1.00  0.00     0.188 HD
HETATM   14  C   UNL     1      10.279  29.870  57.107  1.00  0.00     0.120 A 
BRANCH  10  15
HETATM   15  C   UNL     1       8.231  31.592  59.621  1.00  0.00    -0.003 A 
HETATM   16  C   UNL     1       8.569  31.825  60.957  1.00  0.00     0.037 A 
HETATM   17  C   UNL     1       7.620  32.340  61.843  1.00  0.00     0.035 A 
HETATM   18 CL   UNL     1       8.061  32.582  63.490  1.00  0.00    -0.084 Cl
HETATM   19  C   UNL     1       6.335  32.653  61.411  1.00  0.00     0.024 A 
HETATM   20  C   UNL     1       5.994  32.450  60.075  1.00  0.00     0.003 A 
HETATM   21  C   UNL     1       6.937  31.922  59.188  1.00  0.00     0.014 A 
ENDBRANCH  10  15
ENDBRANCH   8   9
ENDBRANCH   3   8
BRANCH   1  22
HETATM   22  C   UNL     1       6.698  24.438  55.711  1.00  0.00     0.128 C 
BRANCH  22  23
HETATM   23  N   UNL     1       7.469  23.243  55.439  1.00  0.00    -0.360 N 
HETATM   24  C   UNL     1       7.633  22.765  54.153  1.00  0.00     0.221 C 
HETATM   25  O   UNL     1       6.936  23.173  53.228  1.00  0.00    -0.273 OA
HETATM   26  H   UNL     1       8.119  22.923  56.151  1.00  0.00     0.162 HD
BRANCH  24  27
HETATM   27  C   UNL     1       8.686  21.669  54.011  1.00  0.00     0.070 C 
HETATM   28  C   UNL     1       8.271  20.647  52.954  1.00  0.00     0.019 C 
HETATM   29  C   UNL     1       8.925  20.971  55.349  1.00  0.00     0.019 C 
ENDBRANCH  24  27
ENDBRANCH  22  23
ENDBRANCH   1  22
TORSDOF 6
ENDMDL
MODEL 4
REMARK VINA RESULT:      -8.8      4.050      9.260
REMARK  6 active torsions:
REMARK  status: ('A' for Active; 'I' for Inactive)
REMARK    1  A    between atoms: C_2  and  C_3 
REMARK       I    between atoms: C_3  and  N_4 
REMARK    2  A    between atoms: N_4  and  C_5 
REMARK    3  A    between atoms: C_5  and  C_6 
REMARK    4  A    between atoms: N_8  and  C_10 
REMARK    5  A    between atoms: C_10  and  C_11 
REMARK    6  A    between atoms: C_12  and  C_13 
ROOT
HETATM    1  C   UNL     1       5.734  27.852  55.289  1.00  0.00     0.029 C 
HETATM    2  C   UNL     1       6.600  27.778  56.552  1.00  0.00     0.241 C 
HETATM    3  N   UNL     1       6.800  29.162  57.143  1.00  0.00    -0.067 N 
HETATM    4  H   UNL     1       7.257  29.744  56.432  1.00  0.00     0.280 HD
HETATM    5  C   UNL     1       5.493  29.829  57.482  1.00  0.00     0.235 C 
HETATM    6  C   UNL     1       4.655  29.948  56.219  1.00  0.00     0.028 C 
HETATM    7  C   UNL     1       4.416  28.589  55.574  1.00  0.00     0.009 C 
ENDROOT
BRANCH   3   8
HETATM    8  C   UNL     1       7.763  29.100  58.320  1.00  0.00     0.277 C 
BRANCH   8   9
HETATM    9  C   UNL     1       8.826  30.139  58.272  1.00  0.00     0.016 A 
HETATM   10  C   UNL     1       8.924  31.365  59.014  1.00  0.00     0.096 A 
HETATM   11  N   UNL     1      10.025  32.040  58.657  1.00  0.00    -0.174 NA
HETATM   12  N   UNL     1      10.591  31.319  57.689  1.00  0.00    -0.288 N 
HETATM   13  H   UNL     1      11.435  31.679  57.250  1.00  0.00     0.188 HD
HETATM   14  C   UNL     1       9.917  30.166  57.420  1.00  0.00     0.120 A 
BRANCH  10  15
HETATM   15  C   UNL     1       8.021  31.936  60.017  1.00  0.00    -0.003 A 
HETATM   16  C   UNL     1       8.428  32.167  61.335  1.00  0.00     0.037 A 
HETATM   17  C   UNL     1       7.534  32.700  62.265  1.00  0.00     0.035 A 
HETATM   18 CL   UNL     1       8.060  32.938  63.888  1.00  0.00    -0.084 Cl
HETATM   19  C   UNL     1       6.234  33.033  61.897  1.00  0.00     0.024 A 
HETATM   20  C   UNL     1       5.823  32.832  60.581  1.00  0.00     0.003 A 
HETATM   21  C   UNL     1       6.711  32.287  59.649  1.00  0.00     0.014 A 
ENDBRANCH  10  15
ENDBRANCH   8   9
ENDBRANCH   3   8
BRANCH   1  22
HETATM   22  C   UNL     1       5.413  26.455  54.728  1.00  0.00     0.128 C 
BRANCH  22  23
HETATM   23  N   UNL     1       6.490  25.864  53.961  1.00  0.00    -0.360 N 
HETATM   24  C   UNL     1       7.072  24.668  54.333  1.00  0.00     0.221 C 
HETATM   25  O   UNL     1       6.886  24.188  55.449  1.00  0.00    -0.273 OA
HETATM   26  H   UNL     1       6.621  26.178  53.004  1.00  0.00     0.162 HD
BRANCH  24  27
HETATM   27  C   UNL     1       7.992  24.052  53.282  1.00  0.00     0.070 C 
HETATM   28  C   UNL     1       7.891  24.810  51.959  1.00  0.00     0.019 C 
HETATM   29  C   UNL     1       7.656  22.577  53.067  1.00  0.00     0.019 C 
ENDBRANCH  24  27
ENDBRANCH  22  23
ENDBRANCH   1  22
TORSDOF 6
ENDMDL
MODEL 5
REMARK VINA RESULT:      -8.5      4.236      7.896
REMARK  6 active torsions:
REMARK  status: ('A' for Active; 'I' for Inactive)
REMARK    1  A    between atoms: C_2  and  C_3 
REMARK       I    between atoms: C_3  and  N_4 
REMARK    2  A    between atoms: N_4  and  C_5 
REMARK    3  A    between atoms: C_5  and  C_6 
REMARK    4  A    between atoms: N_8  and  C_10 
REMARK    5  A    between atoms: C_10  and  C_11 
REMARK    6  A    between atoms: C_12  and  C_13 
ROOT
HETATM    1  C   UNL     1       5.176  27.330  51.434  1.00  0.00     0.029 C 
HETATM    2  C   UNL     1       4.994  26.375  52.620  1.00  0.00     0.241 C 
HETATM    3  N   UNL     1       5.316  27.078  53.926  1.00  0.00    -0.067 N 
HETATM    4  H   UNL     1       6.289  27.401  53.876  1.00  0.00     0.280 HD
HETATM    5  C   UNL     1       4.460  28.297  54.141  1.00  0.00     0.235 C 
HETATM    6  C   UNL     1       4.679  29.267  52.991  1.00  0.00     0.028 C 
HETATM    7  C   UNL     1       4.370  28.621  51.646  1.00  0.00     0.009 C 
ENDROOT
BRANCH   3   8
HETATM    8  C   UNL     1       5.259  26.094  55.085  1.00  0.00     0.277 C 
BRANCH   8   9
HETATM    9  C   UNL     1       6.488  26.090  55.922  1.00  0.00     0.016 A 
HETATM   10  C   UNL     1       7.553  25.129  55.958  1.00  0.00     0.096 A 
HETATM   11  N   UNL     1       8.466  25.476  56.875  1.00  0.00    -0.174 NA
HETATM   12  N   UNL     1       7.994  26.583  57.450  1.00  0.00    -0.288 N 
HETATM   13  H   UNL     1       8.530  26.997  58.210  1.00  0.00     0.188 HD
HETATM   14  C   UNL     1       6.813  26.999  56.915  1.00  0.00     0.120 A 
BRANCH  10  15
HETATM   15  C   UNL     1       7.735  23.892  55.192  1.00  0.00    -0.003 A 
HETATM   16  C   UNL     1       7.808  22.641  55.813  1.00  0.00     0.037 A 
HETATM   17  C   UNL     1       7.996  21.486  55.050  1.00  0.00     0.035 A 
HETATM   18 CL   UNL     1       8.116  19.967  55.852  1.00  0.00    -0.084 Cl
HETATM   19  C   UNL     1       8.090  21.554  53.663  1.00  0.00     0.024 A 
HETATM   20  C   UNL     1       7.993  22.791  53.031  1.00  0.00     0.003 A 
HETATM   21  C   UNL     1       7.818  23.951  53.791  1.00  0.00     0.014 A 
ENDBRANCH  10  15
ENDBRANCH   8   9
ENDBRANCH   3   8
BRANCH   1  22
HETATM   22  C   UNL     1       4.745  26.686  50.104  1.00  0.00     0.128 C 
BRANCH  22  23
HETATM   23  N   UNL     1       3.570  27.289  49.509  1.00  0.00    -0.360 N 
HETATM   24  C   UNL     1       2.858  26.653  48.510  1.00  0.00     0.221 C 
HETATM   25  O   UNL     1       3.324  25.687  47.911  1.00  0.00    -0.273 OA
HETATM   26  H   UNL     1       3.109  28.036  50.019  1.00  0.00     0.162 HD
BRANCH  24  27
HETATM   27  C   UNL     1       1.507  27.287  48.189  1.00  0.00     0.070 C 
HETATM   28  C   UNL     1       1.168  27.128  46.708  1.00  0.00     0.019 C 
HETATM   29  C   UNL     1       1.499  28.767  48.572  1.00  0.00     0.019 C 
ENDBRANCH  24  27
ENDBRANCH  22  23
ENDBRANCH   1  22
TORSDOF 6
ENDMDL
MODEL 6
REMARK VINA RESULT:      -8.5      3.646      8.062
REMARK  6 active torsions:
REMARK  status: ('A' for Active; 'I' for Inactive)
REMARK    1  A    between atoms: C_2  and  C_3 
REMARK       I    between atoms: C_3  and  N_4 
REMARK    2  A    between atoms: N_4  and  C_5 
REMARK    3  A    between atoms: C_5  and  C_6 
REMARK    4  A    between atoms: N_8  and  C_10 
REMARK    5  A    between atoms: C_10  and  C_11 
REMARK    6  A    between atoms: C_12  and  C_13 
ROOT
HETATM    1  C   UNL     1       7.081  24.642  53.163  1.00  0.00     0.029 C 
HETATM    2  C   UNL     1       7.472  25.564  54.324  1.00  0.00     0.241 C 
HETATM    3  N   UNL     1       7.394  24.821  55.645  1.00  0.00    -0.067 N 
HETATM    4  H   UNL     1       6.430  24.490  55.763  1.00  0.00     0.280 HD
HETATM    5  C   UNL     1       8.280  23.603  55.664  1.00  0.00     0.235 C 
HETATM    6  C   UNL     1       7.858  22.665  54.544  1.00  0.00     0.028 C 
HETATM    7  C   UNL     1       7.916  23.352  53.187  1.00  0.00     0.009 C 
ENDROOT
BRANCH   3   8
HETATM    8  C   UNL     1       7.658  25.771  56.804  1.00  0.00     0.277 C 
BRANCH   8   9
HETATM    9  C   UNL     1       6.628  26.835  56.945  1.00  0.00     0.016 A 
HETATM   10  C   UNL     1       6.807  28.236  57.203  1.00  0.00     0.096 A 
HETATM   11  N   UNL     1       5.619  28.851  57.289  1.00  0.00    -0.174 NA
HETATM   12  N   UNL     1       4.706  27.889  57.148  1.00  0.00    -0.288 N 
HETATM   13  H   UNL     1       3.724  28.145  57.216  1.00  0.00     0.188 HD
HETATM   14  C   UNL     1       5.255  26.661  56.934  1.00  0.00     0.120 A 
BRANCH  10  15
HETATM   15  C   UNL     1       8.036  29.011  57.399  1.00  0.00    -0.003 A 
HETATM   16  C   UNL     1       8.230  29.819  58.524  1.00  0.00     0.037 A 
HETATM   17  C   UNL     1       9.409  30.554  58.668  1.00  0.00     0.035 A 
HETATM   18 CL   UNL     1       9.599  31.565  60.049  1.00  0.00    -0.084 Cl
HETATM   19  C   UNL     1      10.419  30.478  57.713  1.00  0.00     0.024 A 
HETATM   20  C   UNL     1      10.248  29.656  56.601  1.00  0.00     0.003 A 
HETATM   21  C   UNL     1       9.064  28.930  56.446  1.00  0.00     0.014 A 
ENDBRANCH  10  15
ENDBRANCH   8   9
ENDBRANCH   3   8
BRANCH   1  22
HETATM   22  C   UNL     1       7.261  25.328  51.797  1.00  0.00     0.128 C 
BRANCH  22  23
HETATM   23  N   UNL     1       6.016  25.673  51.140  1.00  0.00    -0.360 N 
HETATM   24  C   UNL     1       5.530  26.965  51.144  1.00  0.00     0.221 C 
HETATM   25  O   UNL     1       5.984  27.815  51.906  1.00  0.00    -0.273 OA
HETATM   26  H   UNL     1       5.654  25.031  50.442  1.00  0.00     0.162 HD
BRANCH  24  27
HETATM   27  C   UNL     1       4.366  27.211  50.187  1.00  0.00     0.070 C 
HETATM   28  C   UNL     1       4.699  26.705  48.784  1.00  0.00     0.019 C 
HETATM   29  C   UNL     1       4.011  28.696  50.137  1.00  0.00     0.019 C 
ENDBRANCH  24  27
ENDBRANCH  22  23
ENDBRANCH   1  22
TORSDOF 6
ENDMDL
MODEL 7
REMARK VINA RESULT:      -8.3      4.225      8.957
REMARK  6 active torsions:
REMARK  status: ('A' for Active; 'I' for Inactive)
REMARK    1  A    between atoms: C_2  and  C_3 
REMARK       I    between atoms: C_3  and  N_4 
REMARK    2  A    between atoms: N_4  and  C_5 
REMARK    3  A    between atoms: C_5  and  C_6 
REMARK    4  A    between atoms: N_8  and  C_10 
REMARK    5  A    between atoms: C_10  and  C_11 
REMARK    6  A    between atoms: C_12  and  C_13 
ROOT
HETATM    1  C   UNL     1       6.470  25.695  55.683  1.00  0.00     0.029 C 
HETATM    2  C   UNL     1       6.720  27.186  55.426  1.00  0.00     0.241 C 
HETATM    3  N   UNL     1       6.851  27.938  56.738  1.00  0.00    -0.067 N 
HETATM    4  H   UNL     1       5.980  27.808  57.263  1.00  0.00     0.280 HD
HETATM    5  C   UNL     1       7.964  27.393  57.595  1.00  0.00     0.235 C 
HETATM    6  C   UNL     1       7.690  25.928  57.892  1.00  0.00     0.028 C 
HETATM    7  C   UNL     1       7.548  25.114  56.612  1.00  0.00     0.009 C 
ENDROOT
BRANCH   3   8
HETATM    8  C   UNL     1       6.970  29.433  56.481  1.00  0.00     0.277 C 
BRANCH   8   9
HETATM    9  C   UNL     1       5.940  30.240  57.187  1.00  0.00     0.016 A 
HETATM   10  C   UNL     1       6.087  31.083  58.340  1.00  0.00     0.096 A 
HETATM   11  N   UNL     1       4.906  31.614  58.685  1.00  0.00    -0.174 NA
HETATM   12  N   UNL     1       4.019  31.101  57.832  1.00  0.00    -0.288 N 
HETATM   13  H   UNL     1       3.040  31.355  57.945  1.00  0.00     0.188 HD
HETATM   14  C   UNL     1       4.584  30.274  56.909  1.00  0.00     0.120 A 
BRANCH  10  15
HETATM   15  C   UNL     1       7.277  31.386  59.142  1.00  0.00    -0.003 A 
HETATM   16  C   UNL     1       7.190  31.718  60.498  1.00  0.00     0.037 A 
HETATM   17  C   UNL     1       8.344  32.015  61.225  1.00  0.00     0.035 A 
HETATM   18 CL   UNL     1       8.197  32.452  62.884  1.00  0.00    -0.084 Cl
HETATM   19  C   UNL     1       9.600  31.963  60.626  1.00  0.00     0.024 A 
HETATM   20  C   UNL     1       9.701  31.609  59.282  1.00  0.00     0.003 A 
HETATM   21  C   UNL     1       8.547  31.324  58.547  1.00  0.00     0.014 A 
ENDBRANCH  10  15
ENDBRANCH   8   9
ENDBRANCH   3   8
BRANCH   1  22
HETATM   22  C   UNL     1       6.448  24.881  54.376  1.00  0.00     0.128 C 
BRANCH  22  23
HETATM   23  N   UNL     1       6.937  23.524  54.516  1.00  0.00    -0.360 N 
HETATM   24  C   UNL     1       7.752  22.947  53.562  1.00  0.00     0.221 C 
HETATM   25  O   UNL     1       7.891  23.452  52.451  1.00  0.00    -0.273 OA
HETATM   26  H   UNL     1       6.915  23.104  55.440  1.00  0.00     0.162 HD
BRANCH  24  27
HETATM   27  C   UNL     1       8.395  21.629  53.988  1.00  0.00     0.070 C 
HETATM   28  C   UNL     1       8.212  20.561  52.911  1.00  0.00     0.019 C 
HETATM   29  C   UNL     1       7.807  21.143  55.312  1.00  0.00     0.019 C 
ENDBRANCH  24  27
ENDBRANCH  22  23
ENDBRANCH   1  22
TORSDOF 6
ENDMDL
MODEL 8
REMARK VINA RESULT:      -8.2      3.977      6.896
REMARK  6 active torsions:
REMARK  status: ('A' for Active; 'I' for Inactive)
REMARK    1  A    between atoms: C_2  and  C_3 
REMARK       I    between atoms: C_3  and  N_4 
REMARK    2  A    between atoms: N_4  and  C_5 
REMARK    3  A    between atoms: C_5  and  C_6 
REMARK    4  A    between atoms: N_8  and  C_10 
REMARK    5  A    between atoms: C_10  and  C_11 
REMARK    6  A    between atoms: C_12  and  C_13 
ROOT
HETATM    1  C   UNL     1       6.871  33.297  61.695  1.00  0.00     0.029 C 
HETATM    2  C   UNL     1       6.645  32.282  60.568  1.00  0.00     0.241 C 
HETATM    3  N   UNL     1       7.940  31.570  60.225  1.00  0.00    -0.067 N 
HETATM    4  H   UNL     1       8.621  32.279  59.933  1.00  0.00     0.280 HD
HETATM    5  C   UNL     1       8.530  30.859  61.415  1.00  0.00     0.235 C 
HETATM    6  C   UNL     1       8.801  31.874  62.514  1.00  0.00     0.028 C 
HETATM    7  C   UNL     1       7.536  32.626  62.907  1.00  0.00     0.009 C 
ENDROOT
BRANCH   3   8
HETATM    8  C   UNL     1       7.740  30.659  59.023  1.00  0.00     0.277 C 
BRANCH   8   9
HETATM    9  C   UNL     1       8.961  30.499  58.189  1.00  0.00     0.016 A 
HETATM   10  C   UNL     1       9.222  29.552  57.142  1.00  0.00     0.096 A 
HETATM   11  N   UNL     1      10.460  29.721  56.657  1.00  0.00    -0.174 NA
HETATM   12  N   UNL     1      11.002  30.696  57.387  1.00  0.00    -0.288 N 
HETATM   13  H   UNL     1      11.967  30.959  57.199  1.00  0.00     0.188 HD
HETATM   14  C   UNL     1      10.146  31.202  58.318  1.00  0.00     0.120 A 
BRANCH  10  15
HETATM   15  C   UNL     1       8.375  28.484  56.601  1.00  0.00    -0.003 A 
HETATM   16  C   UNL     1       8.415  27.181  57.105  1.00  0.00     0.037 A 
HETATM   17  C   UNL     1       7.602  26.188  56.554  1.00  0.00     0.035 A 
HETATM   18 CL   UNL     1       7.703  24.585  57.177  1.00  0.00    -0.084 Cl
HETATM   19  C   UNL     1       6.724  26.479  55.514  1.00  0.00     0.024 A 
HETATM   20  C   UNL     1       6.656  27.780  55.021  1.00  0.00     0.003 A 
HETATM   21  C   UNL     1       7.477  28.774  55.561  1.00  0.00     0.014 A 
ENDBRANCH  10  15
ENDBRANCH   8   9
ENDBRANCH   3   8
BRANCH   1  22
HETATM   22  C   UNL     1       5.555  33.955  62.150  1.00  0.00     0.128 C 
BRANCH  22  23
HETATM   23  N   UNL     1       5.477  34.195  63.577  1.00  0.00    -0.360 N 
HETATM   24  C   UNL     1       4.345  33.878  64.302  1.00  0.00     0.221 C 
HETATM   25  O   UNL     1       3.281  33.623  63.745  1.00  0.00    -0.273 OA
HETATM   26  H   UNL     1       6.345  34.328  64.085  1.00  0.00     0.162 HD
BRANCH  24  27
HETATM   27  C   UNL     1       4.523  33.936  65.817  1.00  0.00     0.070 C 
HETATM   28  C   UNL     1       3.703  35.076  66.420  1.00  0.00     0.019 C 
HETATM   29  C   UNL     1       5.997  34.102  66.183  1.00  0.00     0.019 C 
ENDBRANCH  24  27
ENDBRANCH  22  23
ENDBRANCH   1  22
TORSDOF 6
ENDMDL
MODEL 9
REMARK VINA RESULT:      -8.1      1.904      2.449
REMARK  6 active torsions:
REMARK  status: ('A' for Active; 'I' for Inactive)
REMARK    1  A    between atoms: C_2  and  C_3 
REMARK       I    between atoms: C_3  and  N_4 
REMARK    2  A    between atoms: N_4  and  C_5 
REMARK    3  A    between atoms: C_5  and  C_6 
REMARK    4  A    between atoms: N_8  and  C_10 
REMARK    5  A    between atoms: C_10  and  C_11 
REMARK    6  A    between atoms: C_12  and  C_13 
ROOT
HETATM    1  C   UNL     1       6.449  29.710  56.518  1.00  0.00     0.029 C 
HETATM    2  C   UNL     1       6.336  28.831  55.267  1.00  0.00     0.241 C 
HETATM    3  N   UNL     1       7.615  28.042  55.052  1.00  0.00    -0.067 N 
HETATM    4  H   UNL     1       8.384  28.714  54.948  1.00  0.00     0.280 HD
HETATM    5  C   UNL     1       7.951  27.173  56.235  1.00  0.00     0.235 C 
HETATM    6  C   UNL     1       8.112  28.051  57.466  1.00  0.00     0.028 C 
HETATM    7  C   UNL     1       6.858  28.871  57.738  1.00  0.00     0.009 C 
ENDROOT
BRANCH   3   8
HETATM    8  C   UNL     1       7.548  27.271  53.743  1.00  0.00     0.277 C 
BRANCH   8   9
HETATM    9  C   UNL     1       6.281  26.513  53.564  1.00  0.00     0.016 A 
HETATM   10  C   UNL     1       6.035  25.110  53.745  1.00  0.00     0.096 A 
HETATM   11  N   UNL     1       4.760  24.818  53.454  1.00  0.00    -0.174 NA
HETATM   12  N   UNL     1       4.212  25.964  53.050  1.00  0.00    -0.288 N 
HETATM   13  H   UNL     1       3.241  25.953  52.745  1.00  0.00     0.188 HD
HETATM   14  C   UNL     1       5.077  27.015  53.100  1.00  0.00     0.120 A 
BRANCH  10  15
HETATM   15  C   UNL     1       6.947  24.036  54.151  1.00  0.00    -0.003 A 
HETATM   16  C   UNL     1       7.259  22.970  53.301  1.00  0.00     0.037 A 
HETATM   17  C   UNL     1       8.121  21.958  53.728  1.00  0.00     0.035 A 
HETATM   18 CL   UNL     1       8.456  20.643  52.667  1.00  0.00    -0.084 Cl
HETATM   19  C   UNL     1       8.703  22.001  54.992  1.00  0.00     0.024 A 
HETATM   20  C   UNL     1       8.420  23.071  55.838  1.00  0.00     0.003 A 
HETATM   21  C   UNL     1       7.547  24.080  55.419  1.00  0.00     0.014 A 
ENDBRANCH  10  15
ENDBRANCH   8   9
ENDBRANCH   3   8
BRANCH   1  22
HETATM   22  C   UNL     1       5.128  30.436  56.832  1.00  0.00     0.128 C 
BRANCH  22  23
HETATM   23  N   UNL     1       4.971  30.801  58.225  1.00  0.00    -0.360 N 
HETATM   24  C   UNL     1       5.238  32.080  58.672  1.00  0.00     0.221 C 
HETATM   25  O   UNL     1       5.854  32.883  57.977  1.00  0.00    -0.273 OA
HETATM   26  H   UNL     1       4.397  30.202  58.812  1.00  0.00     0.162 HD
BRANCH  24  27
HETATM   27  C   UNL     1       4.765  32.369  60.095  1.00  0.00     0.070 C 
HETATM   28  C   UNL     1       3.535  33.276  60.087  1.00  0.00     0.019 C 
HETATM   29  C   UNL     1       5.882  33.009  60.917  1.00  0.00     0.019 C 
ENDBRANCH  24  27
ENDBRANCH  22  23
ENDBRANCH   1  22
TORSDOF 6
ENDMDL
MODEL 10
REMARK VINA RESULT:      -8.0      4.026      7.388
REMARK  6 active torsions:
REMARK  status: ('A' for Active; 'I' for Inactive)
REMARK    1  A    between atoms: C_2  and  C_3 
REMARK       I    between atoms: C_3  and  N_4 
REMARK    2  A    between atoms: N_4  and  C_5 
REMARK    3  A    between atoms: C_5  and  C_6 
REMARK    4  A    between atoms: N_8  and  C_10 
REMARK    5  A    between atoms: C_10  and  C_11 
REMARK    6  A    between atoms: C_12  and  C_13 
ROOT
HETATM    1  C   UNL     1       4.981  26.462  52.096  1.00  0.00     0.029 C 
HETATM    2  C   UNL     1       5.003  26.287  53.619  1.00  0.00     0.241 C 
HETATM    3  N   UNL     1       5.802  25.056  54.003  1.00  0.00    -0.067 N 
HETATM    4  H   UNL     1       5.361  24.243  53.558  1.00  0.00     0.280 HD
HETATM    5  C   UNL     1       7.219  25.118  53.496  1.00  0.00     0.235 C 
HETATM    6  C   UNL     1       7.199  25.241  51.981  1.00  0.00     0.028 C 
HETATM    7  C   UNL     1       6.409  26.462  51.528  1.00  0.00     0.009 C 
ENDROOT
BRANCH   3   8
HETATM    8  C   UNL     1       5.713  24.814  55.503  1.00  0.00     0.277 C 
BRANCH   8   9
HETATM    9  C   UNL     1       7.004  25.015  56.214  1.00  0.00     0.016 A 
HETATM   10  C   UNL     1       8.073  24.080  56.426  1.00  0.00     0.096 A 
HETATM   11  N   UNL     1       9.054  24.646  57.143  1.00  0.00    -0.174 NA
HETATM   12  N   UNL     1       8.624  25.874  57.432  1.00  0.00    -0.288 N 
HETATM   13  H   UNL     1       9.216  26.468  58.008  1.00  0.00     0.188 HD
HETATM   14  C   UNL     1       7.403  26.151  56.897  1.00  0.00     0.120 A 
BRANCH  10  15
HETATM   15  C   UNL     1       8.199  22.679  56.011  1.00  0.00    -0.003 A 
HETATM   16  C   UNL     1       8.214  22.305  54.664  1.00  0.00     0.037 A 
HETATM   17  C   UNL     1       8.320  20.959  54.307  1.00  0.00     0.035 A 
HETATM   18 CL   UNL     1       8.300  20.533  52.639  1.00  0.00    -0.084 Cl
HETATM   19  C   UNL     1       8.439  19.970  55.280  1.00  0.00     0.024 A 
HETATM   20  C   UNL     1       8.452  20.333  56.625  1.00  0.00     0.003 A 
HETATM   21  C   UNL     1       8.332  21.678  56.986  1.00  0.00     0.014 A 
ENDBRANCH  10  15
ENDBRANCH   8   9
ENDBRANCH   3   8
BRANCH   1  22
HETATM   22  C   UNL     1       4.278  27.765  51.675  1.00  0.00     0.128 C 
BRANCH  22  23
HETATM   23  N   UNL     1       3.801  27.765  50.307  1.00  0.00    -0.360 N 
HETATM   24  C   UNL     1       4.471  28.441  49.307  1.00  0.00     0.221 C 
HETATM   25  O   UNL     1       5.340  29.269  49.569  1.00  0.00    -0.273 OA
HETATM   26  H   UNL     1       3.143  27.041  50.033  1.00  0.00     0.162 HD
BRANCH  24  27
HETATM   27  C   UNL     1       3.998  28.117  47.892  1.00  0.00     0.070 C 
HETATM   28  C   UNL     1       2.561  28.590  47.675  1.00  0.00     0.019 C 
HETATM   29  C   UNL     1       4.104  26.618  47.617  1.00  0.00     0.019 C 
ENDBRANCH  24  27
ENDBRANCH  22  23
ENDBRANCH   1  22
TORSDOF 6
ENDMDL
