MODEL 1
REMARK VINA RESULT:      -7.9      0.000      0.000
REMARK  3 active torsions:
REMARK  status: ('A' for Active; 'I' for Inactive)
REMARK    1  A    between atoms: C_4  and  C_5 
REMARK    2  A    between atoms: C_5  and  N_6 
REMARK    3  A    between atoms: N_10  and  S_11 
ROOT
HETATM    1  N   UNL     1       6.510  25.740  54.383  1.00  0.00    -0.063 N 
HETATM    2  H   UNL     1       5.659  26.001  53.867  1.00  0.00     0.280 HD
HETATM    3  C   UNL     1       7.147  27.010  54.932  1.00  0.00     0.267 C 
HETATM    4  C   UNL     1       6.191  27.765  55.918  1.00  0.00     0.067 C 
HETATM    5  N   UNL     1       6.831  29.040  56.494  1.00  0.00    -0.300 N 
HETATM    6  C   UNL     1       5.901  29.795  57.394  1.00  0.00     0.136 C 
HETATM    7  C   UNL     1       4.675  30.244  56.608  1.00  0.00     0.021 C 
HETATM    8  C   UNL     1       3.966  29.070  55.951  1.00  0.00     0.004 C 
HETATM    9  C   UNL     1       4.943  28.247  55.116  1.00  0.00     0.033 C 
HETATM   10  C   UNL     1       5.812  26.756  57.033  1.00  0.00     0.035 C 
HETATM   11  C   UNL     1       5.249  25.439  56.489  1.00  0.00     0.030 C 
HETATM   12  C   UNL     1       6.170  24.773  55.477  1.00  0.00     0.235 C 
ENDROOT
BRANCH   5  13
HETATM   13  S   UNL     1       8.453  28.963  57.031  1.00  0.00     0.225 S 
HETATM   14  C   UNL     1       8.558  30.188  58.327  1.00  0.00     0.186 C 
HETATM   15  O   UNL     1       8.647  27.645  57.587  1.00  0.00    -0.206 OA
HETATM   16  O   UNL     1       9.274  29.428  55.931  1.00  0.00    -0.206 OA
ENDBRANCH   5  13
BRANCH   1  17
HETATM   17  C   UNL     1       7.378  25.110  53.308  1.00  0.00     0.299 C 
BRANCH  17  18
HETATM   18  C   UNL     1       7.976  23.829  53.762  1.00  0.00     0.079 A 
HETATM   19  O   UNL     1       7.748  22.745  52.959  1.00  0.00    -0.318 OA
HETATM   20  C   UNL     1       8.390  21.687  53.531  1.00  0.00     0.049 A 
HETATM   21  C   UNL     1       8.299  20.390  52.829  1.00  0.00     0.076 C 
HETATM   22  C   UNL     1       9.020  22.086  54.689  1.00  0.00     0.035 A 
HETATM   23  C   UNL     1       8.753  23.468  54.840  1.00  0.00     0.037 A 
ENDBRANCH  17  18
ENDBRANCH   1  17
TORSDOF 3
ENDMDL
MODEL 2
REMARK VINA RESULT:      -7.9      2.068      6.475
REMARK  3 active torsions:
REMARK  status: ('A' for Active; 'I' for Inactive)
REMARK    1  A    between atoms: C_4  and  C_5 
REMARK    2  A    between atoms: C_5  and  N_6 
REMARK    3  A    between atoms: N_10  and  S_11 
ROOT
HETATM    1  N   UNL     1       6.482  27.550  56.761  1.00  0.00    -0.063 N 
HETATM    2  H   UNL     1       7.107  27.309  57.542  1.00  0.00     0.280 HD
HETATM    3  C   UNL     1       7.067  26.970  55.480  1.00  0.00     0.267 C 
HETATM    4  C   UNL     1       7.183  25.408  55.546  1.00  0.00     0.067 C 
HETATM    5  N   UNL     1       7.756  24.808  54.250  1.00  0.00    -0.300 N 
HETATM    6  C   UNL     1       7.922  23.321  54.329  1.00  0.00     0.136 C 
HETATM    7  C   UNL     1       8.904  22.970  55.438  1.00  0.00     0.021 C 
HETATM    8  C   UNL     1       8.469  23.542  56.778  1.00  0.00     0.004 C 
HETATM    9  C   UNL     1       8.205  25.041  56.666  1.00  0.00     0.033 C 
HETATM   10  C   UNL     1       5.763  24.867  55.853  1.00  0.00     0.035 C 
HETATM   11  C   UNL     1       5.128  25.507  57.093  1.00  0.00     0.030 C 
HETATM   12  C   UNL     1       5.102  27.027  57.027  1.00  0.00     0.235 C 
ENDROOT
BRANCH   5  13
HETATM   13  S   UNL     1       7.166  25.392  52.755  1.00  0.00     0.225 S 
HETATM   14  C   UNL     1       5.502  24.751  52.645  1.00  0.00     0.186 C 
HETATM   15  O   UNL     1       7.130  26.832  52.853  1.00  0.00    -0.206 OA
HETATM   16  O   UNL     1       7.947  24.743  51.722  1.00  0.00    -0.206 OA
ENDBRANCH   5  13
BRANCH   1  17
HETATM   17  C   UNL     1       6.528  29.069  56.748  1.00  0.00     0.299 C 
BRANCH  17  18
HETATM   18  C   UNL     1       7.697  29.592  57.498  1.00  0.00     0.079 A 
HETATM   19  O   UNL     1       8.913  29.442  56.891  1.00  0.00    -0.318 OA
HETATM   20  C   UNL     1       9.841  29.999  57.719  1.00  0.00     0.049 A 
HETATM   21  C   UNL     1      11.248  29.970  57.265  1.00  0.00     0.076 C 
HETATM   22  C   UNL     1       9.229  30.499  58.847  1.00  0.00     0.035 A 
HETATM   23  C   UNL     1       7.845  30.236  58.706  1.00  0.00     0.037 A 
ENDBRANCH  17  18
ENDBRANCH   1  17
TORSDOF 3
ENDMDL
MODEL 3
REMARK VINA RESULT:      -7.8      2.767      6.509
REMARK  3 active torsions:
REMARK  status: ('A' for Active; 'I' for Inactive)
REMARK    1  A    between atoms: C_4  and  C_5 
REMARK    2  A    between atoms: C_5  and  N_6 
REMARK    3  A    between atoms: N_10  and  S_11 
ROOT
HETATM    1  N   UNL     1       6.453  27.403  56.468  1.00  0.00    -0.063 N 
HETATM    2  H   UNL     1       7.361  26.948  56.637  1.00  0.00     0.280 HD
HETATM    3  C   UNL     1       6.337  27.706  54.981  1.00  0.00     0.267 C 
HETATM    4  C   UNL     1       6.398  26.403  54.111  1.00  0.00     0.067 C 
HETATM    5  N   UNL     1       6.262  26.696  52.607  1.00  0.00    -0.300 N 
HETATM    6  C   UNL     1       6.377  25.459  51.768  1.00  0.00     0.136 C 
HETATM    7  C   UNL     1       7.750  24.828  51.963  1.00  0.00     0.021 C 
HETATM    8  C   UNL     1       8.026  24.522  53.427  1.00  0.00     0.004 C 
HETATM    9  C   UNL     1       7.809  25.763  54.290  1.00  0.00     0.033 C 
HETATM   10  C   UNL     1       5.268  25.472  54.622  1.00  0.00     0.035 C 
HETATM   11  C   UNL     1       5.324  25.228  56.134  1.00  0.00     0.030 C 
HETATM   12  C   UNL     1       5.340  26.517  56.942  1.00  0.00     0.235 C 
ENDROOT
BRANCH   5  13
HETATM   13  S   UNL     1       5.064  27.805  52.100  1.00  0.00     0.225 S 
HETATM   14  C   UNL     1       4.668  27.310  50.430  1.00  0.00     0.186 C 
HETATM   15  O   UNL     1       3.918  27.603  52.955  1.00  0.00    -0.206 OA
HETATM   16  O   UNL     1       5.708  29.101  52.025  1.00  0.00    -0.206 OA
ENDBRANCH   5  13
BRANCH   1  17
HETATM   17  C   UNL     1       6.558  28.680  57.284  1.00  0.00     0.299 C 
BRANCH  17  18
HETATM   18  C   UNL     1       7.961  29.148  57.399  1.00  0.00     0.079 A 
HETATM   19  O   UNL     1       8.151  30.303  58.107  1.00  0.00    -0.318 OA
HETATM   20  C   UNL     1       9.492  30.548  58.116  1.00  0.00     0.049 A 
HETATM   21  C   UNL     1       9.948  31.751  58.841  1.00  0.00     0.076 C 
HETATM   22  C   UNL     1      10.157  29.563  57.419  1.00  0.00     0.035 A 
HETATM   23  C   UNL     1       9.170  28.660  56.955  1.00  0.00     0.037 A 
ENDBRANCH  17  18
ENDBRANCH   1  17
TORSDOF 3
ENDMDL
MODEL 4
REMARK VINA RESULT:      -7.7     11.186     14.669
REMARK  3 active torsions:
REMARK  status: ('A' for Active; 'I' for Inactive)
REMARK    1  A    between atoms: C_4  and  C_5 
REMARK    2  A    between atoms: C_5  and  N_6 
REMARK    3  A    between atoms: N_10  and  S_11 
ROOT
HETATM    1  N   UNL     1       5.609  34.574  66.395  1.00  0.00    -0.063 N 
HETATM    2  H   UNL     1       5.924  35.542  66.542  1.00  0.00     0.280 HD
HETATM    3  C   UNL     1       4.537  34.576  65.314  1.00  0.00     0.267 C 
HETATM    4  C   UNL     1       5.084  35.122  63.949  1.00  0.00     0.067 C 
HETATM    5  N   UNL     1       4.015  35.110  62.843  1.00  0.00    -0.300 N 
HETATM    6  C   UNL     1       4.516  35.684  61.553  1.00  0.00     0.136 C 
HETATM    7  C   UNL     1       4.913  37.141  61.756  1.00  0.00     0.021 C 
HETATM    8  C   UNL     1       5.947  37.295  62.859  1.00  0.00     0.004 C 
HETATM    9  C   UNL     1       5.472  36.620  64.144  1.00  0.00     0.033 C 
HETATM   10  C   UNL     1       6.309  34.247  63.576  1.00  0.00     0.035 C 
HETATM   11  C   UNL     1       7.356  34.167  64.692  1.00  0.00     0.030 C 
HETATM   12  C   UNL     1       6.774  33.706  66.021  1.00  0.00     0.235 C 
ENDROOT
BRANCH   5  13
HETATM   13  S   UNL     1       3.026  33.724  62.683  1.00  0.00     0.225 S 
HETATM   14  C   UNL     1       2.269  33.893  61.075  1.00  0.00     0.186 C 
HETATM   15  O   UNL     1       3.907  32.580  62.692  1.00  0.00    -0.206 OA
HETATM   16  O   UNL     1       1.974  33.852  63.671  1.00  0.00    -0.206 OA
ENDBRANCH   5  13
BRANCH   1  17
HETATM   17  C   UNL     1       5.026  34.200  67.747  1.00  0.00     0.299 C 
BRANCH  17  18
HETATM   18  C   UNL     1       5.851  34.717  68.867  1.00  0.00     0.079 A 
HETATM   19  O   UNL     1       5.368  34.482  70.125  1.00  0.00    -0.318 OA
HETATM   20  C   UNL     1       6.269  35.009  71.001  1.00  0.00     0.049 A 
HETATM   21  C   UNL     1       5.968  34.864  72.440  1.00  0.00     0.076 C 
HETATM   22  C   UNL     1       7.318  35.581  70.314  1.00  0.00     0.035 A 
HETATM   23  C   UNL     1       7.048  35.394  68.937  1.00  0.00     0.037 A 
ENDBRANCH  17  18
ENDBRANCH   1  17
TORSDOF 3
ENDMDL
MODEL 5
REMARK VINA RESULT:      -7.7      2.956      4.349
REMARK  3 active torsions:
REMARK  status: ('A' for Active; 'I' for Inactive)
REMARK    1  A    between atoms: C_4  and  C_5 
REMARK    2  A    between atoms: C_5  and  N_6 
REMARK    3  A    between atoms: N_10  and  S_11 
ROOT
HETATM    1  N   UNL     1       6.277  26.215  55.972  1.00  0.00    -0.063 N 
HETATM    2  H   UNL     1       5.652  26.788  56.555  1.00  0.00     0.280 HD
HETATM    3  C   UNL     1       5.606  25.994  54.623  1.00  0.00     0.267 C 
HETATM    4  C   UNL     1       5.341  27.346  53.873  1.00  0.00     0.067 C 
HETATM    5  N   UNL     1       4.680  27.133  52.500  1.00  0.00    -0.300 N 
HETATM    6  C   UNL     1       4.373  28.425  51.804  1.00  0.00     0.136 C 
HETATM    7  C   UNL     1       3.390  29.238  52.636  1.00  0.00     0.021 C 
HETATM    8  C   UNL     1       3.913  29.487  54.042  1.00  0.00     0.004 C 
HETATM    9  C   UNL     1       4.318  28.175  54.709  1.00  0.00     0.033 C 
HETATM   10  C   UNL     1       6.709  28.064  53.749  1.00  0.00     0.035 C 
HETATM   11  C   UNL     1       7.435  28.216  55.091  1.00  0.00     0.030 C 
HETATM   12  C   UNL     1       7.607  26.894  55.825  1.00  0.00     0.235 C 
ENDROOT
BRANCH   5  13
HETATM   13  S   UNL     1       5.285  25.893  51.490  1.00  0.00     0.225 S 
HETATM   14  C   UNL     1       4.760  26.353  49.846  1.00  0.00     0.186 C 
HETATM   15  O   UNL     1       6.725  25.949  51.577  1.00  0.00    -0.206 OA
HETATM   16  O   UNL     1       4.571  24.685  51.849  1.00  0.00    -0.206 OA
ENDBRANCH   5  13
BRANCH   1  17
HETATM   17  C   UNL     1       6.378  24.918  56.755  1.00  0.00     0.299 C 
BRANCH  17  18
HETATM   18  C   UNL     1       7.371  23.989  56.160  1.00  0.00     0.079 A 
HETATM   19  O   UNL     1       6.974  23.334  55.027  1.00  0.00    -0.318 OA
HETATM   20  C   UNL     1       8.022  22.558  54.630  1.00  0.00     0.049 A 
HETATM   21  C   UNL     1       7.833  21.755  53.404  1.00  0.00     0.076 C 
HETATM   22  C   UNL     1       9.079  22.709  55.500  1.00  0.00     0.035 A 
HETATM   23  C   UNL     1       8.660  23.632  56.489  1.00  0.00     0.037 A 
ENDBRANCH  17  18
ENDBRANCH   1  17
TORSDOF 3
ENDMDL
MODEL 6
REMARK VINA RESULT:      -7.6      2.232      3.257
REMARK  3 active torsions:
REMARK  status: ('A' for Active; 'I' for Inactive)
REMARK    1  A    between atoms: C_4  and  C_5 
REMARK    2  A    between atoms: C_5  and  N_6 
REMARK    3  A    between atoms: N_10  and  S_11 
ROOT
HETATM    1  N   UNL     1       6.779  26.096  54.752  1.00  0.00    -0.063 N 
HETATM    2  H   UNL     1       7.524  25.712  55.348  1.00  0.00     0.280 HD
HETATM    3  C   UNL     1       5.937  27.049  55.591  1.00  0.00     0.267 C 
HETATM    4  C   UNL     1       6.784  28.246  56.144  1.00  0.00     0.067 C 
HETATM    5  N   UNL     1       5.939  29.226  56.977  1.00  0.00    -0.300 N 
HETATM    6  C   UNL     1       6.756  30.341  57.555  1.00  0.00     0.136 C 
HETATM    7  C   UNL     1       7.812  29.774  58.495  1.00  0.00     0.021 C 
HETATM    8  C   UNL     1       8.698  28.754  57.797  1.00  0.00     0.004 C 
HETATM    9  C   UNL     1       7.854  27.674  57.124  1.00  0.00     0.033 C 
HETATM   10  C   UNL     1       7.430  28.941  54.918  1.00  0.00     0.035 C 
HETATM   11  C   UNL     1       8.210  27.975  54.018  1.00  0.00     0.030 C 
HETATM   12  C   UNL     1       7.377  26.786  53.562  1.00  0.00     0.235 C 
ENDROOT
BRANCH   5  13
HETATM   13  S   UNL     1       4.405  29.687  56.379  1.00  0.00     0.225 S 
HETATM   14  C   UNL     1       3.670  30.632  57.705  1.00  0.00     0.186 C 
HETATM   15  O   UNL     1       4.641  30.543  55.240  1.00  0.00    -0.206 OA
HETATM   16  O   UNL     1       3.634  28.469  56.239  1.00  0.00    -0.206 OA
ENDBRANCH   5  13
BRANCH   1  17
HETATM   17  C   UNL     1       5.986  24.861  54.361  1.00  0.00     0.299 C 
BRANCH  17  18
HETATM   18  C   UNL     1       6.865  23.680  54.170  1.00  0.00     0.079 A 
HETATM   19  O   UNL     1       7.078  22.907  55.279  1.00  0.00    -0.318 OA
HETATM   20  C   UNL     1       7.881  21.875  54.895  1.00  0.00     0.049 A 
HETATM   21  C   UNL     1       8.243  20.886  55.932  1.00  0.00     0.076 C 
HETATM   22  C   UNL     1       8.184  21.985  53.555  1.00  0.00     0.035 A 
HETATM   23  C   UNL     1       7.529  23.150  53.087  1.00  0.00     0.037 A 
ENDBRANCH  17  18
ENDBRANCH   1  17
TORSDOF 3
ENDMDL
MODEL 7
REMARK VINA RESULT:      -7.5      8.017     10.771
REMARK  3 active torsions:
REMARK  status: ('A' for Active; 'I' for Inactive)
REMARK    1  A    between atoms: C_4  and  C_5 
REMARK    2  A    between atoms: C_5  and  N_6 
REMARK    3  A    between atoms: N_10  and  S_11 
ROOT
HETATM    1  N   UNL     1       5.219  33.667  60.558  1.00  0.00    -0.063 N 
HETATM    2  H   UNL     1       5.976  34.281  60.229  1.00  0.00     0.280 HD
HETATM    3  C   UNL     1       5.110  33.808  62.070  1.00  0.00     0.267 C 
HETATM    4  C   UNL     1       4.767  35.277  62.498  1.00  0.00     0.067 C 
HETATM    5  N   UNL     1       4.635  35.427  64.024  1.00  0.00    -0.300 N 
HETATM    6  C   UNL     1       4.363  36.840  64.441  1.00  0.00     0.136 C 
HETATM    7  C   UNL     1       5.521  37.735  64.017  1.00  0.00     0.021 C 
HETATM    8  C   UNL     1       5.782  37.648  62.521  1.00  0.00     0.004 C 
HETATM    9  C   UNL     1       5.958  36.195  62.086  1.00  0.00     0.033 C 
HETATM   10  C   UNL     1       3.455  35.661  61.765  1.00  0.00     0.035 C 
HETATM   11  C   UNL     1       3.524  35.442  60.250  1.00  0.00     0.030 C 
HETATM   12  C   UNL     1       3.934  34.025  59.873  1.00  0.00     0.235 C 
ENDROOT
BRANCH   5  13
HETATM   13  S   UNL     1       3.758  34.237  64.884  1.00  0.00     0.225 S 
HETATM   14  C   UNL     1       3.311  35.030  66.421  1.00  0.00     0.186 C 
HETATM   15  O   UNL     1       2.569  33.956  64.114  1.00  0.00    -0.206 OA
HETATM   16  O   UNL     1       4.698  33.181  65.201  1.00  0.00    -0.206 OA
ENDBRANCH   5  13
BRANCH   1  17
HETATM   17  C   UNL     1       5.711  32.284  60.168  1.00  0.00     0.299 C 
BRANCH  17  18
HETATM   18  C   UNL     1       7.183  32.160  60.314  1.00  0.00     0.079 A 
HETATM   19  O   UNL     1       7.879  31.913  59.162  1.00  0.00    -0.318 OA
HETATM   20  C   UNL     1       9.198  31.857  59.501  1.00  0.00     0.049 A 
HETATM   21  C   UNL     1      10.161  31.612  58.406  1.00  0.00     0.076 C 
HETATM   22  C   UNL     1       9.348  32.063  60.855  1.00  0.00     0.035 A 
HETATM   23  C   UNL     1       8.048  32.257  61.380  1.00  0.00     0.037 A 
ENDBRANCH  17  18
ENDBRANCH   1  17
TORSDOF 3
ENDMDL
MODEL 8
REMARK VINA RESULT:      -7.4      2.898      3.664
REMARK  3 active torsions:
REMARK  status: ('A' for Active; 'I' for Inactive)
REMARK    1  A    between atoms: C_4  and  C_5 
REMARK    2  A    between atoms: C_5  and  N_6 
REMARK    3  A    between atoms: N_10  and  S_11 
ROOT
HETATM    1  N   UNL     1       6.211  25.754  54.085  1.00  0.00    -0.063 N 
HETATM    2  H   UNL     1       6.112  25.455  55.065  1.00  0.00     0.280 HD
HETATM    3  C   UNL     1       5.132  26.786  53.786  1.00  0.00     0.267 C 
HETATM    4  C   UNL     1       5.265  28.054  54.698  1.00  0.00     0.067 C 
HETATM    5  N   UNL     1       4.191  29.112  54.392  1.00  0.00    -0.300 N 
HETATM    6  C   UNL     1       4.280  30.301  55.300  1.00  0.00     0.136 C 
HETATM    7  C   UNL     1       4.059  29.866  56.743  1.00  0.00     0.021 C 
HETATM    8  C   UNL     1       5.043  28.785  57.162  1.00  0.00     0.004 C 
HETATM    9  C   UNL     1       5.019  27.619  56.176  1.00  0.00     0.033 C 
HETATM   10  C   UNL     1       6.698  28.608  54.486  1.00  0.00     0.035 C 
HETATM   11  C   UNL     1       7.791  27.555  54.701  1.00  0.00     0.030 C 
HETATM   12  C   UNL     1       7.586  26.307  53.854  1.00  0.00     0.235 C 
ENDROOT
BRANCH   5  13
HETATM   13  S   UNL     1       3.852  29.474  52.756  1.00  0.00     0.225 S 
HETATM   14  C   UNL     1       3.267  31.162  52.779  1.00  0.00     0.186 C 
HETATM   15  O   UNL     1       5.105  29.400  52.043  1.00  0.00    -0.206 OA
HETATM   16  O   UNL     1       2.734  28.636  52.371  1.00  0.00    -0.206 OA
ENDBRANCH   5  13
BRANCH   1  17
HETATM   17  C   UNL     1       5.973  24.468  53.313  1.00  0.00     0.299 C 
BRANCH  17  18
HETATM   18  C   UNL     1       6.993  23.438  53.627  1.00  0.00     0.079 A 
HETATM   19  O   UNL     1       7.059  23.041  54.934  1.00  0.00    -0.318 OA
HETATM   20  C   UNL     1       8.030  22.087  55.010  1.00  0.00     0.049 A 
HETATM   21  C   UNL     1       8.279  21.489  56.339  1.00  0.00     0.076 C 
HETATM   22  C   UNL     1       8.585  21.876  53.767  1.00  0.00     0.035 A 
HETATM   23  C   UNL     1       7.917  22.748  52.874  1.00  0.00     0.037 A 
ENDBRANCH  17  18
ENDBRANCH   1  17
TORSDOF 3
ENDMDL
MODEL 9
REMARK VINA RESULT:      -7.3      3.730      5.221
REMARK  3 active torsions:
REMARK  status: ('A' for Active; 'I' for Inactive)
REMARK    1  A    between atoms: C_4  and  C_5 
REMARK    2  A    between atoms: C_5  and  N_6 
REMARK    3  A    between atoms: N_10  and  S_11 
ROOT
HETATM    1  N   UNL     1       5.902  26.830  52.682  1.00  0.00    -0.063 N 
HETATM    2  H   UNL     1       6.324  27.728  52.412  1.00  0.00     0.280 HD
HETATM    3  C   UNL     1       6.826  26.145  53.680  1.00  0.00     0.267 C 
HETATM    4  C   UNL     1       7.023  27.000  54.979  1.00  0.00     0.067 C 
HETATM    5  N   UNL     1       7.941  26.309  56.002  1.00  0.00    -0.300 N 
HETATM    6  C   UNL     1       8.177  27.148  57.221  1.00  0.00     0.136 C 
HETATM    7  C   UNL     1       8.870  28.446  56.827  1.00  0.00     0.021 C 
HETATM    8  C   UNL     1       8.077  29.214  55.782  1.00  0.00     0.004 C 
HETATM    9  C   UNL     1       7.752  28.322  54.586  1.00  0.00     0.033 C 
HETATM   10  C   UNL     1       5.610  27.265  55.558  1.00  0.00     0.035 C 
HETATM   11  C   UNL     1       4.644  27.877  54.537  1.00  0.00     0.030 C 
HETATM   12  C   UNL     1       4.536  27.058  53.258  1.00  0.00     0.235 C 
ENDROOT
BRANCH   5  13
HETATM   13  S   UNL     1       7.708  24.642  56.305  1.00  0.00     0.225 S 
HETATM   14  C   UNL     1       8.755  24.288  57.708  1.00  0.00     0.186 C 
HETATM   15  O   UNL     1       6.323  24.473  56.673  1.00  0.00    -0.206 OA
HETATM   16  O   UNL     1       8.260  23.936  55.167  1.00  0.00    -0.206 OA
ENDBRANCH   5  13
BRANCH   1  17
HETATM   17  C   UNL     1       5.851  26.071  51.367  1.00  0.00     0.299 C 
BRANCH  17  18
HETATM   18  C   UNL     1       5.214  26.871  50.292  1.00  0.00     0.079 A 
HETATM   19  O   UNL     1       4.323  26.204  49.498  1.00  0.00    -0.318 OA
HETATM   20  C   UNL     1       3.839  27.108  48.599  1.00  0.00     0.049 A 
HETATM   21  C   UNL     1       2.835  26.618  47.631  1.00  0.00     0.076 C 
HETATM   22  C   UNL     1       4.416  28.341  48.811  1.00  0.00     0.035 A 
HETATM   23  C   UNL     1       5.305  28.189  49.902  1.00  0.00     0.037 A 
ENDBRANCH  17  18
ENDBRANCH   1  17
TORSDOF 3
ENDMDL
MODEL 10
REMARK VINA RESULT:      -7.1      1.751      2.424
REMARK  3 active torsions:
REMARK  status: ('A' for Active; 'I' for Inactive)
REMARK    1  A    between atoms: C_4  and  C_5 
REMARK    2  A    between atoms: C_5  and  N_6 
REMARK    3  A    between atoms: N_10  and  S_11 
ROOT
HETATM    1  N   UNL     1       6.624  28.048  54.753  1.00  0.00    -0.063 N 
HETATM    2  H   UNL     1       6.028  28.618  54.138  1.00  0.00     0.280 HD
HETATM    3  C   UNL     1       7.312  28.975  55.746  1.00  0.00     0.267 C 
HETATM    4  C   UNL     1       6.280  29.743  56.642  1.00  0.00     0.067 C 
HETATM    5  N   UNL     1       6.965  30.669  57.663  1.00  0.00    -0.300 N 
HETATM    6  C   UNL     1       5.981  31.447  58.483  1.00  0.00     0.136 C 
HETATM    7  C   UNL     1       5.149  32.344  57.576  1.00  0.00     0.021 C 
HETATM    8  C   UNL     1       4.444  31.548  56.489  1.00  0.00     0.004 C 
HETATM    9  C   UNL     1       5.438  30.681  55.722  1.00  0.00     0.033 C 
HETATM   10  C   UNL     1       5.404  28.668  57.336  1.00  0.00     0.035 C 
HETATM   11  C   UNL     1       4.774  27.676  56.352  1.00  0.00     0.030 C 
HETATM   12  C   UNL     1       5.799  27.007  55.447  1.00  0.00     0.235 C 
ENDROOT
BRANCH   5  13
HETATM   13  S   UNL     1       8.313  30.069  58.526  1.00  0.00     0.225 S 
HETATM   14  C   UNL     1       8.185  30.821  60.141  1.00  0.00     0.186 C 
HETATM   15  O   UNL     1       8.137  28.640  58.636  1.00  0.00    -0.206 OA
HETATM   16  O   UNL     1       9.490  30.620  57.886  1.00  0.00    -0.206 OA
ENDBRANCH   5  13
BRANCH   1  17
HETATM   17  C   UNL     1       7.624  27.438  53.786  1.00  0.00     0.299 C 
BRANCH  17  18
HETATM   18  C   UNL     1       7.326  26.011  53.511  1.00  0.00     0.079 A 
HETATM   19  O   UNL     1       7.959  25.102  54.314  1.00  0.00    -0.318 OA
HETATM   20  C   UNL     1       7.541  23.866  53.921  1.00  0.00     0.049 A 
HETATM   21  C   UNL     1       8.085  22.708  54.661  1.00  0.00     0.076 C 
HETATM   22  C   UNL     1       6.652  23.978  52.875  1.00  0.00     0.035 A 
HETATM   23  C   UNL     1       6.514  25.362  52.608  1.00  0.00     0.037 A 
ENDBRANCH  17  18
ENDBRANCH   1  17
TORSDOF 3
ENDMDL
