MODEL 1
REMARK VINA RESULT:      -8.4      0.000      0.000
REMARK  7 active torsions:
REMARK  status: ('A' for Active; 'I' for Inactive)
REMARK    1  A    between atoms: C_2  and  C_3 
REMARK    2  A    between atoms: C_4  and  N_5 
REMARK       I    between atoms: N_5  and  C_6 
REMARK    3  A    between atoms: C_6  and  C_7 
REMARK    4  A    between atoms: C_7  and  N_8 
REMARK    5  A    between atoms: N_12  and  C_13 
REMARK    6  A    between atoms: C_14  and  O_15 
REMARK    7  A    between atoms: C_24  and  C_25 
ROOT
HETATM    1  N   UNL     1       6.207  29.739  55.270  1.00  0.00    -0.325 N 
HETATM    2  C   UNL     1       5.484  28.581  55.048  1.00  0.00     0.248 C 
HETATM    3  O   UNL     1       5.062  27.803  55.903  1.00  0.00    -0.271 OA
HETATM    4  H   UNL     1       6.873  29.999  54.553  1.00  0.00     0.169 HD
ENDROOT
BRANCH   2   5
HETATM    5  C   UNL     1       5.234  28.291  53.566  1.00  0.00     0.337 C 
BRANCH   5   6
HETATM    6  N   UNL     1       5.882  26.988  53.117  1.00  0.00    -0.060 N 
HETATM    7  H   UNL     1       5.873  27.010  52.085  1.00  0.00     0.280 HD
HETATM    8  C   UNL     1       7.363  26.890  53.504  1.00  0.00     0.255 C 
HETATM    9  C   UNL     1       7.970  25.588  52.945  1.00  0.00     0.150 C 
HETATM   10  N   UNL     1       7.191  24.415  53.372  1.00  0.00    -0.375 N 
HETATM   11  C   UNL     1       5.752  24.465  53.053  1.00  0.00     0.150 C 
HETATM   12  C   UNL     1       5.115  25.763  53.589  1.00  0.00     0.255 C 
BRANCH  10  13
HETATM   13  C   UNL     1       7.594  23.624  54.455  1.00  0.00     0.064 A 
HETATM   14  C   UNL     1       7.960  22.258  54.292  1.00  0.00     0.094 A 
HETATM   15  C   UNL     1       8.333  21.480  55.400  1.00  0.00     0.039 A 
HETATM   16  C   UNL     1       8.394  22.041  56.672  1.00  0.00     0.003 A 
HETATM   17  C   UNL     1       8.084  23.381  56.848  1.00  0.00     0.002 A 
HETATM   18  C   UNL     1       7.694  24.159  55.754  1.00  0.00     0.032 A 
BRANCH  14  19
HETATM   19  O   UNL     1       7.945  21.762  53.007  1.00  0.00    -0.354 OA
HETATM   20  C   UNL     1       8.302  20.394  52.833  1.00  0.00     0.210 C 
ENDBRANCH  14  19
ENDBRANCH  10  13
ENDBRANCH   5   6
ENDBRANCH   2   5
BRANCH   1  21
HETATM   21  C   UNL     1       6.532  30.181  56.576  1.00  0.00     0.048 A 
HETATM   22  C   UNL     1       7.806  29.846  57.112  1.00  0.00    -0.027 A 
HETATM   23  C   UNL     1       8.138  30.325  58.392  1.00  0.00     0.010 A 
HETATM   24  C   UNL     1       7.263  31.131  59.111  1.00  0.00     0.001 A 
HETATM   25  C   UNL     1       6.030  31.472  58.569  1.00  0.00     0.010 A 
HETATM   26  C   UNL     1       5.635  31.011  57.298  1.00  0.00    -0.027 A 
BRANCH  22  27
HETATM   27  C   UNL     1       8.770  28.876  56.427  1.00  0.00     0.013 C 
HETATM   28  C   UNL     1       8.610  27.473  57.023  1.00  0.00     0.015 C 
HETATM   29  C   UNL     1      10.237  29.319  56.473  1.00  0.00     0.015 C 
ENDBRANCH  22  27
BRANCH  26  30
HETATM   30  C   UNL     1       4.311  31.519  56.732  1.00  0.00     0.013 C 
HETATM   31  C   UNL     1       3.138  30.594  57.076  1.00  0.00     0.015 C 
HETATM   32  C   UNL     1       4.026  32.953  57.197  1.00  0.00     0.015 C 
ENDBRANCH  26  30
ENDBRANCH   1  21
TORSDOF 7
ENDMDL
MODEL 2
REMARK VINA RESULT:      -8.3      3.823      8.080
REMARK  7 active torsions:
REMARK  status: ('A' for Active; 'I' for Inactive)
REMARK    1  A    between atoms: C_2  and  C_3 
REMARK    2  A    between atoms: C_4  and  N_5 
REMARK       I    between atoms: N_5  and  C_6 
REMARK    3  A    between atoms: C_6  and  C_7 
REMARK    4  A    between atoms: C_7  and  N_8 
REMARK    5  A    between atoms: N_12  and  C_13 
REMARK    6  A    between atoms: C_14  and  O_15 
REMARK    7  A    between atoms: C_24  and  C_25 
ROOT
HETATM    1  N   UNL     1       6.274  24.820  54.107  1.00  0.00    -0.325 N 
HETATM    2  C   UNL     1       6.702  25.202  52.848  1.00  0.00     0.248 C 
HETATM    3  O   UNL     1       7.849  25.505  52.523  1.00  0.00    -0.271 OA
HETATM    4  H   UNL     1       5.324  25.067  54.353  1.00  0.00     0.169 HD
ENDROOT
BRANCH   2   5
HETATM    5  C   UNL     1       5.580  25.245  51.808  1.00  0.00     0.337 C 
BRANCH   5   6
HETATM    6  N   UNL     1       5.655  26.488  50.932  1.00  0.00    -0.060 N 
HETATM    7  H   UNL     1       6.623  26.525  50.577  1.00  0.00     0.280 HD
HETATM    8  C   UNL     1       4.773  26.395  49.681  1.00  0.00     0.255 C 
HETATM    9  C   UNL     1       4.965  27.649  48.805  1.00  0.00     0.150 C 
HETATM   10  N   UNL     1       4.728  28.877  49.579  1.00  0.00    -0.375 N 
HETATM   11  C   UNL     1       5.529  29.010  50.811  1.00  0.00     0.150 C 
HETATM   12  C   UNL     1       5.367  27.765  51.706  1.00  0.00     0.255 C 
BRANCH  10  13
HETATM   13  C   UNL     1       3.504  29.556  49.518  1.00  0.00     0.064 A 
HETATM   14  C   UNL     1       3.332  30.724  48.721  1.00  0.00     0.094 A 
HETATM   15  C   UNL     1       2.102  31.401  48.700  1.00  0.00     0.039 A 
HETATM   16  C   UNL     1       1.016  30.920  49.425  1.00  0.00     0.003 A 
HETATM   17  C   UNL     1       1.148  29.760  50.174  1.00  0.00     0.002 A 
HETATM   18  C   UNL     1       2.373  29.089  50.215  1.00  0.00     0.032 A 
BRANCH  14  19
HETATM   19  O   UNL     1       4.416  31.128  47.973  1.00  0.00    -0.354 OA
HETATM   20  C   UNL     1       4.354  30.907  46.567  1.00  0.00     0.210 C 
ENDBRANCH  14  19
ENDBRANCH  10  13
ENDBRANCH   5   6
ENDBRANCH   2   5
BRANCH   1  21
HETATM   21  C   UNL     1       7.167  24.713  55.202  1.00  0.00     0.048 A 
HETATM   22  C   UNL     1       7.292  25.816  56.090  1.00  0.00    -0.027 A 
HETATM   23  C   UNL     1       8.148  25.686  57.199  1.00  0.00     0.010 A 
HETATM   24  C   UNL     1       8.834  24.503  57.446  1.00  0.00     0.001 A 
HETATM   25  C   UNL     1       8.687  23.423  56.584  1.00  0.00     0.010 A 
HETATM   26  C   UNL     1       7.856  23.498  55.450  1.00  0.00    -0.027 A 
BRANCH  22  27
HETATM   27  C   UNL     1       6.655  27.180  55.819  1.00  0.00     0.013 C 
HETATM   28  C   UNL     1       7.646  28.081  55.074  1.00  0.00     0.015 C 
HETATM   29  C   UNL     1       6.128  27.882  57.077  1.00  0.00     0.015 C 
ENDBRANCH  22  27
BRANCH  26  30
HETATM   30  C   UNL     1       7.668  22.232  54.616  1.00  0.00     0.013 C 
HETATM   31  C   UNL     1       8.695  22.122  53.484  1.00  0.00     0.015 C 
HETATM   32  C   UNL     1       7.698  20.979  55.500  1.00  0.00     0.015 C 
ENDBRANCH  26  30
ENDBRANCH   1  21
TORSDOF 7
ENDMDL
MODEL 3
REMARK VINA RESULT:      -8.2      3.776      7.673
REMARK  7 active torsions:
REMARK  status: ('A' for Active; 'I' for Inactive)
REMARK    1  A    between atoms: C_2  and  C_3 
REMARK    2  A    between atoms: C_4  and  N_5 
REMARK       I    between atoms: N_5  and  C_6 
REMARK    3  A    between atoms: C_6  and  C_7 
REMARK    4  A    between atoms: C_7  and  N_8 
REMARK    5  A    between atoms: N_12  and  C_13 
REMARK    6  A    between atoms: C_14  and  O_15 
REMARK    7  A    between atoms: C_24  and  C_25 
ROOT
HETATM    1  N   UNL     1       6.271  24.753  54.137  1.00  0.00    -0.325 N 
HETATM    2  C   UNL     1       6.718  25.117  52.880  1.00  0.00     0.248 C 
HETATM    3  O   UNL     1       7.871  25.408  52.566  1.00  0.00    -0.271 OA
HETATM    4  H   UNL     1       5.319  25.010  54.369  1.00  0.00     0.169 HD
ENDROOT
BRANCH   2   5
HETATM    5  C   UNL     1       5.609  25.156  51.825  1.00  0.00     0.337 C 
BRANCH   5   6
HETATM    6  N   UNL     1       5.686  26.404  50.955  1.00  0.00    -0.060 N 
HETATM    7  H   UNL     1       6.652  26.434  50.591  1.00  0.00     0.280 HD
HETATM    8  C   UNL     1       4.792  26.325  49.712  1.00  0.00     0.255 C 
HETATM    9  C   UNL     1       4.986  27.582  48.841  1.00  0.00     0.150 C 
HETATM   10  N   UNL     1       4.767  28.808  49.623  1.00  0.00    -0.375 N 
HETATM   11  C   UNL     1       5.580  28.927  50.848  1.00  0.00     0.150 C 
HETATM   12  C   UNL     1       5.416  27.678  51.739  1.00  0.00     0.255 C 
BRANCH  10  13
HETATM   13  C   UNL     1       3.549  29.497  49.577  1.00  0.00     0.064 A 
HETATM   14  C   UNL     1       3.372  30.658  48.771  1.00  0.00     0.094 A 
HETATM   15  C   UNL     1       2.148  31.346  48.765  1.00  0.00     0.039 A 
HETATM   16  C   UNL     1       1.071  30.883  49.515  1.00  0.00     0.003 A 
HETATM   17  C   UNL     1       1.207  29.730  50.274  1.00  0.00     0.002 A 
HETATM   18  C   UNL     1       2.427  29.048  50.300  1.00  0.00     0.032 A 
BRANCH  14  19
HETATM   19  O   UNL     1       4.446  31.044  47.998  1.00  0.00    -0.354 OA
HETATM   20  C   UNL     1       4.369  30.780  46.601  1.00  0.00     0.210 C 
ENDBRANCH  14  19
ENDBRANCH  10  13
ENDBRANCH   5   6
ENDBRANCH   2   5
BRANCH   1  21
HETATM   21  C   UNL     1       7.149  24.653  55.245  1.00  0.00     0.048 A 
HETATM   22  C   UNL     1       7.872  23.443  55.434  1.00  0.00    -0.027 A 
HETATM   23  C   UNL     1       8.774  23.367  56.511  1.00  0.00     0.010 A 
HETATM   24  C   UNL     1       8.983  24.450  57.356  1.00  0.00     0.001 A 
HETATM   25  C   UNL     1       8.288  25.635  57.148  1.00  0.00     0.010 A 
HETATM   26  C   UNL     1       7.362  25.768  56.096  1.00  0.00    -0.027 A 
BRANCH  22  27
HETATM   27  C   UNL     1       7.611  22.179  54.613  1.00  0.00     0.013 C 
HETATM   28  C   UNL     1       7.611  20.951  55.531  1.00  0.00     0.015 C 
HETATM   29  C   UNL     1       8.587  21.981  53.447  1.00  0.00     0.015 C 
ENDBRANCH  22  27
BRANCH  26  30
HETATM   30  C   UNL     1       6.722  27.137  55.874  1.00  0.00     0.013 C 
HETATM   31  C   UNL     1       6.386  27.843  57.192  1.00  0.00     0.015 C 
HETATM   32  C   UNL     1       7.610  28.024  54.993  1.00  0.00     0.015 C 
ENDBRANCH  26  30
ENDBRANCH   1  21
TORSDOF 7
ENDMDL
MODEL 4
REMARK VINA RESULT:      -8.2      2.344      8.765
REMARK  7 active torsions:
REMARK  status: ('A' for Active; 'I' for Inactive)
REMARK    1  A    between atoms: C_2  and  C_3 
REMARK    2  A    between atoms: C_4  and  N_5 
REMARK       I    between atoms: N_5  and  C_6 
REMARK    3  A    between atoms: C_6  and  C_7 
REMARK    4  A    between atoms: C_7  and  N_8 
REMARK    5  A    between atoms: N_12  and  C_13 
REMARK    6  A    between atoms: C_14  and  O_15 
REMARK    7  A    between atoms: C_24  and  C_25 
ROOT
HETATM    1  N   UNL     1       6.150  25.398  55.749  1.00  0.00    -0.325 N 
HETATM    2  C   UNL     1       6.687  26.660  55.936  1.00  0.00     0.248 C 
HETATM    3  O   UNL     1       7.710  27.106  55.420  1.00  0.00    -0.271 OA
HETATM    4  H   UNL     1       5.649  25.002  56.535  1.00  0.00     0.169 HD
ENDROOT
BRANCH   2   5
HETATM    5  C   UNL     1       5.882  27.528  56.907  1.00  0.00     0.337 C 
BRANCH   5   6
HETATM    6  N   UNL     1       6.536  28.883  57.143  1.00  0.00    -0.060 N 
HETATM    7  H   UNL     1       6.779  29.246  56.207  1.00  0.00     0.280 HD
HETATM    8  C   UNL     1       5.574  29.919  57.737  1.00  0.00     0.255 C 
HETATM    9  C   UNL     1       6.280  31.283  57.868  1.00  0.00     0.150 C 
HETATM   10  N   UNL     1       7.529  31.160  58.635  1.00  0.00    -0.375 N 
HETATM   11  C   UNL     1       8.484  30.157  58.127  1.00  0.00     0.150 C 
HETATM   12  C   UNL     1       7.805  28.781  57.974  1.00  0.00     0.255 C 
BRANCH  10  13
HETATM   13  C   UNL     1       7.588  31.490  59.996  1.00  0.00     0.064 A 
HETATM   14  C   UNL     1       6.700  32.439  60.577  1.00  0.00     0.094 A 
HETATM   15  C   UNL     1       6.800  32.772  61.938  1.00  0.00     0.039 A 
HETATM   16  C   UNL     1       7.741  32.149  62.753  1.00  0.00     0.003 A 
HETATM   17  C   UNL     1       8.586  31.189  62.217  1.00  0.00     0.002 A 
HETATM   18  C   UNL     1       8.506  30.865  60.860  1.00  0.00     0.032 A 
BRANCH  14  19
HETATM   19  O   UNL     1       5.746  32.985  59.747  1.00  0.00    -0.354 OA
HETATM   20  C   UNL     1       4.727  33.771  60.355  1.00  0.00     0.210 C 
ENDBRANCH  14  19
ENDBRANCH  10  13
ENDBRANCH   5   6
ENDBRANCH   2   5
BRANCH   1  21
HETATM   21  C   UNL     1       6.747  24.451  54.881  1.00  0.00     0.048 A 
HETATM   22  C   UNL     1       6.512  24.564  53.483  1.00  0.00    -0.027 A 
HETATM   23  C   UNL     1       7.143  23.646  52.625  1.00  0.00     0.010 A 
HETATM   24  C   UNL     1       7.999  22.668  53.117  1.00  0.00     0.001 A 
HETATM   25  C   UNL     1       8.239  22.580  54.483  1.00  0.00     0.010 A 
HETATM   26  C   UNL     1       7.626  23.461  55.393  1.00  0.00    -0.027 A 
BRANCH  22  27
HETATM   27  C   UNL     1       5.500  25.542  52.885  1.00  0.00     0.013 C 
HETATM   28  C   UNL     1       4.618  24.819  51.860  1.00  0.00     0.015 C 
HETATM   29  C   UNL     1       6.134  26.793  52.264  1.00  0.00     0.015 C 
ENDBRANCH  22  27
BRANCH  26  30
HETATM   30  C   UNL     1       8.027  23.365  56.864  1.00  0.00     0.013 C 
HETATM   31  C   UNL     1       8.387  21.933  57.276  1.00  0.00     0.015 C 
HETATM   32  C   UNL     1       9.175  24.328  57.187  1.00  0.00     0.015 C 
ENDBRANCH  26  30
ENDBRANCH   1  21
TORSDOF 7
ENDMDL
MODEL 5
REMARK VINA RESULT:      -8.2      2.918      5.345
REMARK  7 active torsions:
REMARK  status: ('A' for Active; 'I' for Inactive)
REMARK    1  A    between atoms: C_2  and  C_3 
REMARK    2  A    between atoms: C_4  and  N_5 
REMARK       I    between atoms: N_5  and  C_6 
REMARK    3  A    between atoms: C_6  and  C_7 
REMARK    4  A    between atoms: C_7  and  N_8 
REMARK    5  A    between atoms: N_12  and  C_13 
REMARK    6  A    between atoms: C_14  and  O_15 
REMARK    7  A    between atoms: C_24  and  C_25 
ROOT
HETATM    1  N   UNL     1       6.843  31.316  60.112  1.00  0.00    -0.325 N 
HETATM    2  C   UNL     1       7.949  31.332  59.281  1.00  0.00     0.248 C 
HETATM    3  O   UNL     1       8.550  32.327  58.878  1.00  0.00    -0.271 OA
HETATM    4  H   UNL     1       6.189  30.555  59.976  1.00  0.00     0.169 HD
ENDROOT
BRANCH   2   5
HETATM    5  C   UNL     1       8.407  29.938  58.845  1.00  0.00     0.337 C 
BRANCH   5   6
HETATM    6  N   UNL     1       7.846  29.547  57.485  1.00  0.00    -0.060 N 
HETATM    7  H   UNL     1       7.584  30.432  57.023  1.00  0.00     0.280 HD
HETATM    8  C   UNL     1       8.893  28.908  56.565  1.00  0.00     0.255 C 
HETATM    9  C   UNL     1       8.275  28.618  55.182  1.00  0.00     0.150 C 
HETATM   10  N   UNL     1       7.056  27.805  55.307  1.00  0.00    -0.375 N 
HETATM   11  C   UNL     1       6.021  28.355  56.204  1.00  0.00     0.150 C 
HETATM   12  C   UNL     1       6.610  28.667  57.595  1.00  0.00     0.255 C 
BRANCH  10  13
HETATM   13  C   UNL     1       7.076  26.419  55.105  1.00  0.00     0.064 A 
HETATM   14  C   UNL     1       6.594  25.829  53.902  1.00  0.00     0.094 A 
HETATM   15  C   UNL     1       6.600  24.435  53.737  1.00  0.00     0.039 A 
HETATM   16  C   UNL     1       7.117  23.606  54.728  1.00  0.00     0.003 A 
HETATM   17  C   UNL     1       7.632  24.161  55.889  1.00  0.00     0.002 A 
HETATM   18  C   UNL     1       7.614  25.547  56.070  1.00  0.00     0.032 A 
BRANCH  14  19
HETATM   19  O   UNL     1       6.149  26.692  52.924  1.00  0.00    -0.354 OA
HETATM   20  C   UNL     1       6.044  26.176  51.601  1.00  0.00     0.210 C 
ENDBRANCH  14  19
ENDBRANCH  10  13
ENDBRANCH   5   6
ENDBRANCH   2   5
BRANCH   1  21
HETATM   21  C   UNL     1       6.275  32.507  60.627  1.00  0.00     0.048 A 
HETATM   22  C   UNL     1       5.250  33.152  59.881  1.00  0.00    -0.027 A 
HETATM   23  C   UNL     1       4.661  34.310  60.421  1.00  0.00     0.010 A 
HETATM   24  C   UNL     1       5.042  34.802  61.663  1.00  0.00     0.001 A 
HETATM   25  C   UNL     1       6.028  34.151  62.394  1.00  0.00     0.010 A 
HETATM   26  C   UNL     1       6.665  32.996  61.901  1.00  0.00    -0.027 A 
BRANCH  22  27
HETATM   27  C   UNL     1       4.860  32.731  58.463  1.00  0.00     0.013 C 
HETATM   28  C   UNL     1       4.472  33.965  57.640  1.00  0.00     0.015 C 
HETATM   29  C   UNL     1       3.750  31.675  58.410  1.00  0.00     0.015 C 
ENDBRANCH  22  27
BRANCH  26  30
HETATM   30  C   UNL     1       7.660  32.283  62.813  1.00  0.00     0.013 C 
HETATM   31  C   UNL     1       9.078  32.272  62.233  1.00  0.00     0.015 C 
HETATM   32  C   UNL     1       7.654  32.892  64.221  1.00  0.00     0.015 C 
ENDBRANCH  26  30
ENDBRANCH   1  21
TORSDOF 7
ENDMDL
MODEL 6
REMARK VINA RESULT:      -8.1      2.334      8.509
REMARK  7 active torsions:
REMARK  status: ('A' for Active; 'I' for Inactive)
REMARK    1  A    between atoms: C_2  and  C_3 
REMARK    2  A    between atoms: C_4  and  N_5 
REMARK       I    between atoms: N_5  and  C_6 
REMARK    3  A    between atoms: C_6  and  C_7 
REMARK    4  A    between atoms: C_7  and  N_8 
REMARK    5  A    between atoms: N_12  and  C_13 
REMARK    6  A    between atoms: C_14  and  O_15 
REMARK    7  A    between atoms: C_24  and  C_25 
ROOT
HETATM    1  N   UNL     1       6.334  25.282  55.734  1.00  0.00    -0.325 N 
HETATM    2  C   UNL     1       6.776  26.588  55.836  1.00  0.00     0.248 C 
HETATM    3  O   UNL     1       7.729  27.089  55.241  1.00  0.00    -0.271 OA
HETATM    4  H   UNL     1       5.912  24.883  56.565  1.00  0.00     0.169 HD
ENDROOT
BRANCH   2   5
HETATM    5  C   UNL     1       5.962  27.435  56.818  1.00  0.00     0.337 C 
BRANCH   5   6
HETATM    6  N   UNL     1       6.592  28.800  57.061  1.00  0.00    -0.060 N 
HETATM    7  H   UNL     1       6.783  29.192  56.125  1.00  0.00     0.280 HD
HETATM    8  C   UNL     1       5.632  29.794  57.725  1.00  0.00     0.255 C 
HETATM    9  C   UNL     1       6.310  31.172  57.861  1.00  0.00     0.150 C 
HETATM   10  N   UNL     1       7.595  31.063  58.568  1.00  0.00    -0.375 N 
HETATM   11  C   UNL     1       8.551  30.098  57.990  1.00  0.00     0.150 C 
HETATM   12  C   UNL     1       7.900  28.709  57.831  1.00  0.00     0.255 C 
BRANCH  10  13
HETATM   13  C   UNL     1       7.708  31.359  59.932  1.00  0.00     0.064 A 
HETATM   14  C   UNL     1       6.880  32.332  60.560  1.00  0.00     0.094 A 
HETATM   15  C   UNL     1       7.034  32.629  61.924  1.00  0.00     0.039 A 
HETATM   16  C   UNL     1       7.970  31.948  62.697  1.00  0.00     0.003 A 
HETATM   17  C   UNL     1       8.757  30.966  62.116  1.00  0.00     0.002 A 
HETATM   18  C   UNL     1       8.624  30.675  60.755  1.00  0.00     0.032 A 
BRANCH  14  19
HETATM   19  O   UNL     1       5.927  32.936  59.771  1.00  0.00    -0.354 OA
HETATM   20  C   UNL     1       4.845  33.581  60.435  1.00  0.00     0.210 C 
ENDBRANCH  14  19
ENDBRANCH  10  13
ENDBRANCH   5   6
ENDBRANCH   2   5
BRANCH   1  21
HETATM   21  C   UNL     1       6.954  24.345  54.871  1.00  0.00     0.048 A 
HETATM   22  C   UNL     1       7.727  23.298  55.443  1.00  0.00    -0.027 A 
HETATM   23  C   UNL     1       8.303  22.347  54.581  1.00  0.00     0.010 A 
HETATM   24  C   UNL     1       8.103  22.403  53.207  1.00  0.00     0.001 A 
HETATM   25  C   UNL     1       7.328  23.418  52.660  1.00  0.00     0.010 A 
HETATM   26  C   UNL     1       6.737  24.407  53.470  1.00  0.00    -0.027 A 
BRANCH  22  27
HETATM   27  C   UNL     1       8.077  23.238  56.931  1.00  0.00     0.013 C 
HETATM   28  C   UNL     1       9.208  24.226  57.241  1.00  0.00     0.015 C 
HETATM   29  C   UNL     1       8.436  21.833  57.430  1.00  0.00     0.015 C 
ENDBRANCH  22  27
BRANCH  26  30
HETATM   30  C   UNL     1       5.813  25.422  52.800  1.00  0.00     0.013 C 
HETATM   31  C   UNL     1       6.294  25.811  51.398  1.00  0.00     0.015 C 
HETATM   32  C   UNL     1       4.368  24.909  52.756  1.00  0.00     0.015 C 
ENDBRANCH  26  30
ENDBRANCH   1  21
TORSDOF 7
ENDMDL
MODEL 7
REMARK VINA RESULT:      -8.1      2.865      4.789
REMARK  7 active torsions:
REMARK  status: ('A' for Active; 'I' for Inactive)
REMARK    1  A    between atoms: C_2  and  C_3 
REMARK    2  A    between atoms: C_4  and  N_5 
REMARK       I    between atoms: N_5  and  C_6 
REMARK    3  A    between atoms: C_6  and  C_7 
REMARK    4  A    between atoms: C_7  and  N_8 
REMARK    5  A    between atoms: N_12  and  C_13 
REMARK    6  A    between atoms: C_14  and  O_15 
REMARK    7  A    between atoms: C_24  and  C_25 
ROOT
HETATM    1  N   UNL     1       6.803  31.233  60.041  1.00  0.00    -0.325 N 
HETATM    2  C   UNL     1       7.916  31.285  59.221  1.00  0.00     0.248 C 
HETATM    3  O   UNL     1       8.502  32.297  58.841  1.00  0.00    -0.271 OA
HETATM    4  H   UNL     1       6.165  30.463  59.886  1.00  0.00     0.169 HD
ENDROOT
BRANCH   2   5
HETATM    5  C   UNL     1       8.403  29.907  58.765  1.00  0.00     0.337 C 
BRANCH   5   6
HETATM    6  N   UNL     1       7.793  29.493  57.433  1.00  0.00    -0.060 N 
HETATM    7  H   UNL     1       7.478  30.367  56.983  1.00  0.00     0.280 HD
HETATM    8  C   UNL     1       8.818  28.890  56.465  1.00  0.00     0.255 C 
HETATM    9  C   UNL     1       8.147  28.574  55.114  1.00  0.00     0.150 C 
HETATM   10  N   UNL     1       6.965  27.718  55.297  1.00  0.00    -0.375 N 
HETATM   11  C   UNL     1       5.955  28.233  56.241  1.00  0.00     0.150 C 
HETATM   12  C   UNL     1       6.597  28.569  57.602  1.00  0.00     0.255 C 
BRANCH  10  13
HETATM   13  C   UNL     1       7.026  26.333  55.095  1.00  0.00     0.064 A 
HETATM   14  C   UNL     1       6.496  25.721  53.924  1.00  0.00     0.094 A 
HETATM   15  C   UNL     1       6.545  24.328  53.760  1.00  0.00     0.039 A 
HETATM   16  C   UNL     1       7.151  23.522  54.719  1.00  0.00     0.003 A 
HETATM   17  C   UNL     1       7.714  24.100  55.846  1.00  0.00     0.002 A 
HETATM   18  C   UNL     1       7.653  25.485  56.027  1.00  0.00     0.032 A 
BRANCH  14  19
HETATM   19  O   UNL     1       5.960  26.563  52.973  1.00  0.00    -0.354 OA
HETATM   20  C   UNL     1       6.062  26.156  51.613  1.00  0.00     0.210 C 
ENDBRANCH  14  19
ENDBRANCH  10  13
ENDBRANCH   5   6
ENDBRANCH   2   5
BRANCH   1  21
HETATM   21  C   UNL     1       6.208  32.404  60.572  1.00  0.00     0.048 A 
HETATM   22  C   UNL     1       6.704  32.925  61.799  1.00  0.00    -0.027 A 
HETATM   23  C   UNL     1       6.137  34.112  62.297  1.00  0.00     0.010 A 
HETATM   24  C   UNL     1       5.139  34.783  61.602  1.00  0.00     0.001 A 
HETATM   25  C   UNL     1       4.676  34.277  60.393  1.00  0.00     0.010 A 
HETATM   26  C   UNL     1       5.194  33.086  59.850  1.00  0.00    -0.027 A 
BRANCH  22  27
HETATM   27  C   UNL     1       7.721  32.184  62.669  1.00  0.00     0.013 C 
HETATM   28  C   UNL     1       7.686  32.736  64.098  1.00  0.00     0.015 C 
HETATM   29  C   UNL     1       9.150  32.209  62.115  1.00  0.00     0.015 C 
ENDBRANCH  22  27
BRANCH  26  30
HETATM   30  C   UNL     1       4.707  32.658  58.467  1.00  0.00     0.013 C 
HETATM   31  C   UNL     1       3.682  31.521  58.536  1.00  0.00     0.015 C 
HETATM   32  C   UNL     1       4.143  33.852  57.687  1.00  0.00     0.015 C 
ENDBRANCH  26  30
ENDBRANCH   1  21
TORSDOF 7
ENDMDL
MODEL 8
REMARK VINA RESULT:      -8.1      4.094      7.208
REMARK  7 active torsions:
REMARK  status: ('A' for Active; 'I' for Inactive)
REMARK    1  A    between atoms: C_2  and  C_3 
REMARK    2  A    between atoms: C_4  and  N_5 
REMARK       I    between atoms: N_5  and  C_6 
REMARK    3  A    between atoms: C_6  and  C_7 
REMARK    4  A    between atoms: C_7  and  N_8 
REMARK    5  A    between atoms: N_12  and  C_13 
REMARK    6  A    between atoms: C_14  and  O_15 
REMARK    7  A    between atoms: C_24  and  C_25 
ROOT
HETATM    1  N   UNL     1       7.135  27.676  54.017  1.00  0.00    -0.325 N 
HETATM    2  C   UNL     1       5.853  28.193  53.970  1.00  0.00     0.248 C 
HETATM    3  O   UNL     1       4.904  27.868  54.683  1.00  0.00    -0.271 OA
HETATM    4  H   UNL     1       7.641  27.648  53.140  1.00  0.00     0.169 HD
ENDROOT
BRANCH   2   5
HETATM    5  C   UNL     1       5.662  29.260  52.889  1.00  0.00     0.337 C 
BRANCH   5   6
HETATM    6  N   UNL     1       5.598  28.657  51.492  1.00  0.00    -0.060 N 
HETATM    7  H   UNL     1       6.518  28.218  51.332  1.00  0.00     0.280 HD
HETATM    8  C   UNL     1       4.582  27.514  51.377  1.00  0.00     0.255 C 
HETATM    9  C   UNL     1       4.634  26.902  49.963  1.00  0.00     0.150 C 
HETATM   10  N   UNL     1       4.449  27.933  48.931  1.00  0.00    -0.375 N 
HETATM   11  C   UNL     1       5.381  29.075  49.008  1.00  0.00     0.150 C 
HETATM   12  C   UNL     1       5.361  29.705  50.415  1.00  0.00     0.255 C 
BRANCH  10  13
HETATM   13  C   UNL     1       3.206  28.143  48.321  1.00  0.00     0.064 A 
HETATM   14  C   UNL     1       2.703  27.265  47.320  1.00  0.00     0.094 A 
HETATM   15  C   UNL     1       1.466  27.515  46.704  1.00  0.00     0.039 A 
HETATM   16  C   UNL     1       0.690  28.603  47.090  1.00  0.00     0.003 A 
HETATM   17  C   UNL     1       1.139  29.447  48.094  1.00  0.00     0.002 A 
HETATM   18  C   UNL     1       2.378  29.217  48.700  1.00  0.00     0.032 A 
BRANCH  14  19
HETATM   19  O   UNL     1       3.478  26.167  47.013  1.00  0.00    -0.354 OA
HETATM   20  C   UNL     1       2.988  24.893  47.416  1.00  0.00     0.210 C 
ENDBRANCH  14  19
ENDBRANCH  10  13
ENDBRANCH   5   6
ENDBRANCH   2   5
BRANCH   1  21
HETATM   21  C   UNL     1       7.510  26.684  54.956  1.00  0.00     0.048 A 
HETATM   22  C   UNL     1       7.833  27.087  56.281  1.00  0.00    -0.027 A 
HETATM   23  C   UNL     1       8.162  26.091  57.219  1.00  0.00     0.010 A 
HETATM   24  C   UNL     1       8.146  24.744  56.877  1.00  0.00     0.001 A 
HETATM   25  C   UNL     1       7.807  24.360  55.586  1.00  0.00     0.010 A 
HETATM   26  C   UNL     1       7.482  25.311  54.599  1.00  0.00    -0.027 A 
BRANCH  22  27
HETATM   27  C   UNL     1       7.977  28.552  56.695  1.00  0.00     0.013 C 
HETATM   28  C   UNL     1       9.438  28.852  57.051  1.00  0.00     0.015 C 
HETATM   29  C   UNL     1       7.045  28.971  57.839  1.00  0.00     0.015 C 
ENDBRANCH  22  27
BRANCH  26  30
HETATM   30  C   UNL     1       7.018  24.799  53.237  1.00  0.00     0.013 C 
HETATM   31  C   UNL     1       7.765  23.532  52.806  1.00  0.00     0.015 C 
HETATM   32  C   UNL     1       5.502  24.568  53.222  1.00  0.00     0.015 C 
ENDBRANCH  26  30
ENDBRANCH   1  21
TORSDOF 7
ENDMDL
MODEL 9
REMARK VINA RESULT:      -8.0      4.090      7.060
REMARK  7 active torsions:
REMARK  status: ('A' for Active; 'I' for Inactive)
REMARK    1  A    between atoms: C_2  and  C_3 
REMARK    2  A    between atoms: C_4  and  N_5 
REMARK       I    between atoms: N_5  and  C_6 
REMARK    3  A    between atoms: C_6  and  C_7 
REMARK    4  A    between atoms: C_7  and  N_8 
REMARK    5  A    between atoms: N_12  and  C_13 
REMARK    6  A    between atoms: C_14  and  O_15 
REMARK    7  A    between atoms: C_24  and  C_25 
ROOT
HETATM    1  N   UNL     1       7.147  27.641  54.034  1.00  0.00    -0.325 N 
HETATM    2  C   UNL     1       5.872  28.173  53.971  1.00  0.00     0.248 C 
HETATM    3  O   UNL     1       4.914  27.870  54.681  1.00  0.00    -0.271 OA
HETATM    4  H   UNL     1       7.659  27.594  53.161  1.00  0.00     0.169 HD
ENDROOT
BRANCH   2   5
HETATM    5  C   UNL     1       5.703  29.229  52.875  1.00  0.00     0.337 C 
BRANCH   5   6
HETATM    6  N   UNL     1       5.631  28.609  51.486  1.00  0.00    -0.060 N 
HETATM    7  H   UNL     1       6.545  28.153  51.333  1.00  0.00     0.280 HD
HETATM    8  C   UNL     1       4.598  27.481  51.385  1.00  0.00     0.255 C 
HETATM    9  C   UNL     1       4.642  26.848  49.979  1.00  0.00     0.150 C 
HETATM   10  N   UNL     1       4.475  27.869  48.934  1.00  0.00    -0.375 N 
HETATM   11  C   UNL     1       5.424  28.996  48.997  1.00  0.00     0.150 C 
HETATM   12  C   UNL     1       5.412  29.646  50.396  1.00  0.00     0.255 C 
BRANCH  10  13
HETATM   13  C   UNL     1       3.236  28.090  48.319  1.00  0.00     0.064 A 
HETATM   14  C   UNL     1       2.729  27.216  47.316  1.00  0.00     0.094 A 
HETATM   15  C   UNL     1       1.496  27.477  46.696  1.00  0.00     0.039 A 
HETATM   16  C   UNL     1       0.728  28.572  47.079  1.00  0.00     0.003 A 
HETATM   17  C   UNL     1       1.181  29.412  48.085  1.00  0.00     0.002 A 
HETATM   18  C   UNL     1       2.415  29.171  48.695  1.00  0.00     0.032 A 
BRANCH  14  19
HETATM   19  O   UNL     1       3.495  26.112  47.012  1.00  0.00    -0.354 OA
HETATM   20  C   UNL     1       2.988  24.841  47.405  1.00  0.00     0.210 C 
ENDBRANCH  14  19
ENDBRANCH  10  13
ENDBRANCH   5   6
ENDBRANCH   2   5
BRANCH   1  21
HETATM   21  C   UNL     1       7.502  26.656  54.988  1.00  0.00     0.048 A 
HETATM   22  C   UNL     1       7.538  25.294  54.581  1.00  0.00    -0.027 A 
HETATM   23  C   UNL     1       7.933  24.327  55.523  1.00  0.00     0.010 A 
HETATM   24  C   UNL     1       8.311  24.685  56.811  1.00  0.00     0.001 A 
HETATM   25  C   UNL     1       8.294  26.022  57.192  1.00  0.00     0.010 A 
HETATM   26  C   UNL     1       7.894  27.034  56.299  1.00  0.00    -0.027 A 
BRANCH  22  27
HETATM   27  C   UNL     1       7.032  24.818  53.219  1.00  0.00     0.013 C 
HETATM   28  C   UNL     1       5.526  24.540  53.288  1.00  0.00     0.015 C 
HETATM   29  C   UNL     1       7.780  23.597  52.668  1.00  0.00     0.015 C 
ENDBRANCH  22  27
BRANCH  26  30
HETATM   30  C   UNL     1       8.007  28.484  56.763  1.00  0.00     0.013 C 
HETATM   31  C   UNL     1       7.138  28.772  57.993  1.00  0.00     0.015 C 
HETATM   32  C   UNL     1       9.469  28.866  57.029  1.00  0.00     0.015 C 
ENDBRANCH  26  30
ENDBRANCH   1  21
TORSDOF 7
ENDMDL
MODEL 10
REMARK VINA RESULT:      -7.9      2.700      5.302
REMARK  7 active torsions:
REMARK  status: ('A' for Active; 'I' for Inactive)
REMARK    1  A    between atoms: C_2  and  C_3 
REMARK    2  A    between atoms: C_4  and  N_5 
REMARK       I    between atoms: N_5  and  C_6 
REMARK    3  A    between atoms: C_6  and  C_7 
REMARK    4  A    between atoms: C_7  and  N_8 
REMARK    5  A    between atoms: N_12  and  C_13 
REMARK    6  A    between atoms: C_14  and  O_15 
REMARK    7  A    between atoms: C_24  and  C_25 
ROOT
HETATM    1  N   UNL     1       5.355  31.389  59.287  1.00  0.00    -0.325 N 
HETATM    2  C   UNL     1       5.490  31.716  57.950  1.00  0.00     0.248 C 
HETATM    3  O   UNL     1       6.002  32.737  57.492  1.00  0.00    -0.271 OA
HETATM    4  H   UNL     1       4.546  30.833  59.535  1.00  0.00     0.169 HD
ENDROOT
BRANCH   2   5
HETATM    5  C   UNL     1       4.907  30.665  57.002  1.00  0.00     0.337 C 
BRANCH   5   6
HETATM    6  N   UNL     1       5.504  29.284  57.237  1.00  0.00    -0.060 N 
HETATM    7  H   UNL     1       5.455  29.126  58.256  1.00  0.00     0.280 HD
HETATM    8  C   UNL     1       4.671  28.157  56.616  1.00  0.00     0.255 C 
HETATM    9  C   UNL     1       5.289  26.788  56.966  1.00  0.00     0.150 C 
HETATM   10  N   UNL     1       6.705  26.732  56.574  1.00  0.00    -0.375 N 
HETATM   11  C   UNL     1       7.553  27.810  57.119  1.00  0.00     0.150 C 
HETATM   12  C   UNL     1       6.956  29.194  56.795  1.00  0.00     0.255 C 
BRANCH  10  13
HETATM   13  C   UNL     1       7.111  26.120  55.381  1.00  0.00     0.064 A 
HETATM   14  C   UNL     1       7.421  24.732  55.316  1.00  0.00     0.094 A 
HETATM   15  C   UNL     1       7.853  24.151  54.113  1.00  0.00     0.039 A 
HETATM   16  C   UNL     1       7.945  24.911  52.952  1.00  0.00     0.003 A 
HETATM   17  C   UNL     1       7.606  26.255  52.981  1.00  0.00     0.002 A 
HETATM   18  C   UNL     1       7.193  26.847  54.178  1.00  0.00     0.032 A 
BRANCH  14  19
HETATM   19  O   UNL     1       7.257  24.006  56.476  1.00  0.00    -0.354 OA
HETATM   20  C   UNL     1       8.388  23.292  56.962  1.00  0.00     0.210 C 
ENDBRANCH  14  19
ENDBRANCH  10  13
ENDBRANCH   5   6
ENDBRANCH   2   5
BRANCH   1  21
HETATM   21  C   UNL     1       5.839  32.232  60.318  1.00  0.00     0.048 A 
HETATM   22  C   UNL     1       4.944  33.161  60.916  1.00  0.00    -0.027 A 
HETATM   23  C   UNL     1       5.422  33.964  61.968  1.00  0.00     0.010 A 
HETATM   24  C   UNL     1       6.723  33.839  62.438  1.00  0.00     0.001 A 
HETATM   25  C   UNL     1       7.583  32.913  61.861  1.00  0.00     0.010 A 
HETATM   26  C   UNL     1       7.168  32.091  60.796  1.00  0.00    -0.027 A 
BRANCH  22  27
HETATM   27  C   UNL     1       3.537  33.428  60.379  1.00  0.00     0.013 C 
HETATM   28  C   UNL     1       3.586  34.529  59.314  1.00  0.00     0.015 C 
HETATM   29  C   UNL     1       2.510  33.771  61.465  1.00  0.00     0.015 C 
ENDBRANCH  22  27
BRANCH  26  30
HETATM   30  C   UNL     1       8.140  31.027  60.292  1.00  0.00     0.013 C 
HETATM   31  C   UNL     1       8.984  31.520  59.111  1.00  0.00     0.015 C 
HETATM   32  C   UNL     1       9.039  30.519  61.426  1.00  0.00     0.015 C 
ENDBRANCH  26  30
ENDBRANCH   1  21
TORSDOF 7
ENDMDL
