MODEL 1
REMARK VINA RESULT:      -9.1      0.000      0.000
REMARK  10 active torsions:
REMARK  status: ('A' for Active; 'I' for Inactive)
REMARK    1  A    between atoms: C_4  and  C_5 
REMARK    2  A    between atoms: C_7  and  C_8 
REMARK    3  A    between atoms: C_8  and  C_9 
REMARK       I    between atoms: C_9  and  N_10 
REMARK    4  A    between atoms: N_10  and  C_11 
REMARK    5  A    between atoms: C_11  and  C_12 
REMARK    6  A    between atoms: C_12  and  N_13 
REMARK    7  A    between atoms: C_24  and  C_25 
REMARK    8  A    between atoms: C_25  and  O_26 
REMARK    9  A    between atoms: O_26  and  C_27 
REMARK   10  A    between atoms: C_27  and  C_28 
ROOT
HETATM    1  C   UNL     1       6.325  28.317  53.809  1.00  0.00     0.166 C 
HETATM    2  N   UNL     1       5.105  29.200  53.785  1.00  0.00    -0.318 N 
HETATM    3  C   UNL     1       4.637  30.231  54.429  1.00  0.00     0.011 C 
HETATM    4  C   UNL     1       4.199  28.886  52.553  1.00  0.00     0.170 C 
HETATM    5  S   UNL     1       3.032  30.120  52.237  1.00  0.00    -0.086 SA
HETATM    6  C   UNL     1       3.496  30.974  53.744  1.00  0.00     0.135 C 
HETATM    7  N   UNL     1       4.243  27.825  51.840  1.00  0.00    -0.229 NA
HETATM    8  C   UNL     1       5.150  26.845  52.149  1.00  0.00     0.048 C 
HETATM    9  C   UNL     1       5.010  25.626  51.264  1.00  0.00     0.071 C 
HETATM   10  C   UNL     1       6.119  27.013  53.076  1.00  0.00     0.069 C 
ENDROOT
BRANCH   3  11
HETATM   11  C   UNL     1       5.191  30.789  55.717  1.00  0.00     0.156 C 
BRANCH  11  12
HETATM   12  C   UNL     1       4.191  30.718  56.864  1.00  0.00     0.223 C 
HETATM   13  N   UNL     1       4.341  31.666  57.841  1.00  0.00    -0.359 N 
HETATM   14  H   UNL     1       5.217  32.185  57.859  1.00  0.00     0.162 HD
HETATM   15  O   UNL     1       3.289  29.883  56.892  1.00  0.00    -0.273 OA
BRANCH  13  16
HETATM   16  C   UNL     1       3.604  31.658  59.111  1.00  0.00     0.150 C 
BRANCH  16  17
HETATM   17  C   UNL     1       4.158  32.568  60.234  1.00  0.00     0.253 C 
BRANCH  17  18
HETATM   18  N   UNL     1       5.294  31.926  61.008  1.00  0.00    -0.077 N 
HETATM   19  H   UNL     1       5.255  30.907  60.803  1.00  0.00     0.279 HD
HETATM   20  C   UNL     1       6.659  32.395  60.582  1.00  0.00     0.269 C 
HETATM   21  C   UNL     1       5.120  32.076  62.495  1.00  0.00     0.269 C 
ENDBRANCH  17  18
ENDBRANCH  16  17
ENDBRANCH  13  16
ENDBRANCH  11  12
ENDBRANCH   3  11
BRANCH   1  22
HETATM   22  C   UNL     1       6.986  28.245  55.180  1.00  0.00    -0.024 A 
HETATM   23  C   UNL     1       8.274  28.834  55.292  1.00  0.00     0.017 A 
HETATM   24  C   UNL     1       8.959  28.898  56.510  1.00  0.00    -0.061 A 
HETATM   25  C   UNL     1      10.326  29.519  56.586  1.00  0.00     0.048 C 
HETATM   26  C   UNL     1       8.382  28.310  57.631  1.00  0.00     0.007 A 
HETATM   27  C   UNL     1       7.128  27.699  57.541  1.00  0.00     0.008 A 
HETATM   28  C   UNL     1       6.404  27.677  56.334  1.00  0.00    -0.053 A 
HETATM   29  C   UNL     1       5.076  26.968  56.349  1.00  0.00     0.049 C 
ENDBRANCH   1  22
BRANCH  10  30
HETATM   30  C   UNL     1       7.154  25.970  53.268  1.00  0.00     0.294 C 
HETATM   31  O   UNL     1       8.263  26.059  52.773  1.00  0.00    -0.259 OA
BRANCH  30  32
HETATM   32  O   UNL     1       6.691  24.996  54.078  1.00  0.00    -0.313 OA
BRANCH  32  33
HETATM   33  C   UNL     1       7.657  24.441  54.986  1.00  0.00     0.217 C 
BRANCH  33  34
HETATM   34  C   UNL     1       7.825  22.978  54.654  1.00  0.00    -0.034 A 
HETATM   35  C   UNL     1       7.755  22.006  55.665  1.00  0.00     0.009 A 
HETATM   36  C   UNL     1       7.907  20.651  55.366  1.00  0.00     0.001 A 
HETATM   37  C   UNL     1       8.117  20.248  54.050  1.00  0.00     0.000 A 
HETATM   38  C   UNL     1       8.173  21.199  53.034  1.00  0.00     0.001 A 
HETATM   39  C   UNL     1       8.032  22.557  53.333  1.00  0.00     0.009 A 
ENDBRANCH  33  34
ENDBRANCH  32  33
ENDBRANCH  30  32
ENDBRANCH  10  30
TORSDOF 10
ENDMDL
MODEL 2
REMARK VINA RESULT:      -9.0      1.595      2.613
REMARK  10 active torsions:
REMARK  status: ('A' for Active; 'I' for Inactive)
REMARK    1  A    between atoms: C_4  and  C_5 
REMARK    2  A    between atoms: C_7  and  C_8 
REMARK    3  A    between atoms: C_8  and  C_9 
REMARK       I    between atoms: C_9  and  N_10 
REMARK    4  A    between atoms: N_10  and  C_11 
REMARK    5  A    between atoms: C_11  and  C_12 
REMARK    6  A    between atoms: C_12  and  N_13 
REMARK    7  A    between atoms: C_24  and  C_25 
REMARK    8  A    between atoms: C_25  and  O_26 
REMARK    9  A    between atoms: O_26  and  C_27 
REMARK   10  A    between atoms: C_27  and  C_28 
ROOT
HETATM    1  C   UNL     1       5.972  28.431  54.075  1.00  0.00     0.166 C 
HETATM    2  N   UNL     1       4.772  29.333  54.200  1.00  0.00    -0.318 N 
HETATM    3  C   UNL     1       4.158  30.013  55.126  1.00  0.00     0.011 C 
HETATM    4  C   UNL     1       4.162  29.666  52.803  1.00  0.00     0.170 C 
HETATM    5  S   UNL     1       3.072  31.005  52.840  1.00  0.00    -0.086 SA
HETATM    6  C   UNL     1       3.181  31.072  54.628  1.00  0.00     0.135 C 
HETATM    7  N   UNL     1       4.378  29.024  51.717  1.00  0.00    -0.229 NA
HETATM    8  C   UNL     1       5.212  27.936  51.734  1.00  0.00     0.048 C 
HETATM    9  C   UNL     1       5.288  27.244  50.391  1.00  0.00     0.071 C 
HETATM   10  C   UNL     1       5.953  27.601  52.814  1.00  0.00     0.069 C 
ENDROOT
BRANCH   3  11
HETATM   11  C   UNL     1       4.409  29.903  56.610  1.00  0.00     0.156 C 
BRANCH  11  12
HETATM   12  C   UNL     1       5.485  30.866  57.094  1.00  0.00     0.223 C 
HETATM   13  N   UNL     1       6.254  30.421  58.137  1.00  0.00    -0.359 N 
HETATM   14  H   UNL     1       5.918  29.610  58.654  1.00  0.00     0.162 HD
HETATM   15  O   UNL     1       5.672  31.958  56.561  1.00  0.00    -0.273 OA
BRANCH  13  16
HETATM   16  C   UNL     1       7.214  31.260  58.865  1.00  0.00     0.150 C 
BRANCH  16  17
HETATM   17  C   UNL     1       8.338  30.517  59.627  1.00  0.00     0.253 C 
BRANCH  17  18
HETATM   18  N   UNL     1       8.125  30.505  61.129  1.00  0.00    -0.077 N 
HETATM   19  H   UNL     1       7.565  29.656  61.344  1.00  0.00     0.279 HD
HETATM   20  C   UNL     1       9.401  30.384  61.920  1.00  0.00     0.269 C 
HETATM   21  C   UNL     1       7.321  31.687  61.595  1.00  0.00     0.269 C 
ENDBRANCH  17  18
ENDBRANCH  16  17
ENDBRANCH  13  16
ENDBRANCH  11  12
ENDBRANCH   3  11
BRANCH   1  22
HETATM   22  C   UNL     1       6.320  27.712  55.373  1.00  0.00    -0.024 A 
HETATM   23  C   UNL     1       5.377  26.756  55.838  1.00  0.00     0.017 A 
HETATM   24  C   UNL     1       5.608  25.977  56.976  1.00  0.00    -0.061 A 
HETATM   25  C   UNL     1       4.582  24.984  57.443  1.00  0.00     0.048 C 
HETATM   26  C   UNL     1       6.773  26.194  57.707  1.00  0.00     0.007 A 
HETATM   27  C   UNL     1       7.702  27.148  57.286  1.00  0.00     0.008 A 
HETATM   28  C   UNL     1       7.508  27.900  56.112  1.00  0.00    -0.053 A 
HETATM   29  C   UNL     1       8.564  28.917  55.772  1.00  0.00     0.049 C 
ENDBRANCH   1  22
BRANCH  10  30
HETATM   30  C   UNL     1       6.938  26.498  52.727  1.00  0.00     0.294 C 
HETATM   31  O   UNL     1       8.120  26.664  52.970  1.00  0.00    -0.259 OA
BRANCH  30  32
HETATM   32  O   UNL     1       6.320  25.344  52.401  1.00  0.00    -0.313 OA
BRANCH  32  33
HETATM   33  C   UNL     1       5.906  24.534  53.514  1.00  0.00     0.217 C 
BRANCH  33  34
HETATM   34  C   UNL     1       7.069  23.658  53.914  1.00  0.00    -0.034 A 
HETATM   35  C   UNL     1       7.642  22.769  52.990  1.00  0.00     0.009 A 
HETATM   36  C   UNL     1       8.718  21.957  53.351  1.00  0.00     0.001 A 
HETATM   37  C   UNL     1       9.246  22.033  54.636  1.00  0.00     0.000 A 
HETATM   38  C   UNL     1       8.699  22.921  55.560  1.00  0.00     0.001 A 
HETATM   39  C   UNL     1       7.614  23.727  55.203  1.00  0.00     0.009 A 
ENDBRANCH  33  34
ENDBRANCH  32  33
ENDBRANCH  30  32
ENDBRANCH  10  30
TORSDOF 10
ENDMDL
MODEL 3
REMARK VINA RESULT:      -8.9      2.084      7.772
REMARK  10 active torsions:
REMARK  status: ('A' for Active; 'I' for Inactive)
REMARK    1  A    between atoms: C_4  and  C_5 
REMARK    2  A    between atoms: C_7  and  C_8 
REMARK    3  A    between atoms: C_8  and  C_9 
REMARK       I    between atoms: C_9  and  N_10 
REMARK    4  A    between atoms: N_10  and  C_11 
REMARK    5  A    between atoms: C_11  and  C_12 
REMARK    6  A    between atoms: C_12  and  N_13 
REMARK    7  A    between atoms: C_24  and  C_25 
REMARK    8  A    between atoms: C_25  and  O_26 
REMARK    9  A    between atoms: O_26  and  C_27 
REMARK   10  A    between atoms: C_27  and  C_28 
ROOT
HETATM    1  C   UNL     1       5.215  28.704  55.045  1.00  0.00     0.166 C 
HETATM    2  N   UNL     1       5.339  28.496  53.559  1.00  0.00    -0.318 N 
HETATM    3  C   UNL     1       5.993  27.728  52.735  1.00  0.00     0.011 C 
HETATM    4  C   UNL     1       4.288  29.343  52.775  1.00  0.00     0.170 C 
HETATM    5  S   UNL     1       4.097  28.838  51.134  1.00  0.00    -0.086 SA
HETATM    6  C   UNL     1       5.462  27.688  51.307  1.00  0.00     0.135 C 
HETATM    7  N   UNL     1       3.636  30.343  53.235  1.00  0.00    -0.229 NA
HETATM    8  C   UNL     1       3.847  30.745  54.528  1.00  0.00     0.048 C 
HETATM    9  C   UNL     1       3.063  31.990  54.883  1.00  0.00     0.071 C 
HETATM   10  C   UNL     1       4.596  30.035  55.401  1.00  0.00     0.069 C 
ENDROOT
BRANCH   3  11
HETATM   11  C   UNL     1       7.143  26.822  53.103  1.00  0.00     0.156 C 
BRANCH  11  12
HETATM   12  C   UNL     1       6.707  25.378  53.309  1.00  0.00     0.223 C 
HETATM   13  N   UNL     1       7.688  24.434  53.151  1.00  0.00    -0.359 N 
HETATM   14  H   UNL     1       8.549  24.726  52.694  1.00  0.00     0.162 HD
HETATM   15  O   UNL     1       5.557  25.082  53.628  1.00  0.00    -0.273 OA
BRANCH  13  16
HETATM   16  C   UNL     1       7.437  22.988  53.125  1.00  0.00     0.150 C 
BRANCH  16  17
HETATM   17  C   UNL     1       7.616  22.234  54.465  1.00  0.00     0.253 C 
BRANCH  17  18
HETATM   18  N   UNL     1       7.891  20.753  54.278  1.00  0.00    -0.077 N 
HETATM   19  H   UNL     1       6.987  20.261  54.428  1.00  0.00     0.279 HD
HETATM   20  C   UNL     1       8.346  20.393  52.889  1.00  0.00     0.269 C 
HETATM   21  C   UNL     1       8.851  20.221  55.306  1.00  0.00     0.269 C 
ENDBRANCH  17  18
ENDBRANCH  16  17
ENDBRANCH  13  16
ENDBRANCH  11  12
ENDBRANCH   3  11
BRANCH   1  22
HETATM   22  C   UNL     1       6.463  28.292  55.815  1.00  0.00    -0.024 A 
HETATM   23  C   UNL     1       7.625  29.082  55.604  1.00  0.00     0.017 A 
HETATM   24  C   UNL     1       8.816  28.855  56.302  1.00  0.00    -0.061 A 
HETATM   25  C   UNL     1      10.028  29.704  56.043  1.00  0.00     0.048 C 
HETATM   26  C   UNL     1       8.876  27.780  57.185  1.00  0.00     0.007 A 
HETATM   27  C   UNL     1       7.755  26.971  57.389  1.00  0.00     0.008 A 
HETATM   28  C   UNL     1       6.534  27.223  56.735  1.00  0.00    -0.053 A 
HETATM   29  C   UNL     1       5.403  26.270  57.013  1.00  0.00     0.049 C 
ENDBRANCH   1  22
BRANCH  10  30
HETATM   30  C   UNL     1       4.676  30.449  56.822  1.00  0.00     0.294 C 
HETATM   31  O   UNL     1       3.950  29.972  57.677  1.00  0.00    -0.259 OA
BRANCH  30  32
HETATM   32  O   UNL     1       5.665  31.349  56.991  1.00  0.00    -0.313 OA
BRANCH  32  33
HETATM   33  C   UNL     1       5.528  32.203  58.139  1.00  0.00     0.217 C 
BRANCH  33  34
HETATM   34  C   UNL     1       6.612  31.838  59.126  1.00  0.00    -0.034 A 
HETATM   35  C   UNL     1       6.713  32.511  60.354  1.00  0.00     0.009 A 
HETATM   36  C   UNL     1       7.711  32.178  61.272  1.00  0.00     0.001 A 
HETATM   37  C   UNL     1       8.611  31.158  60.981  1.00  0.00     0.000 A 
HETATM   38  C   UNL     1       8.514  30.470  59.773  1.00  0.00     0.001 A 
HETATM   39  C   UNL     1       7.522  30.809  58.849  1.00  0.00     0.009 A 
ENDBRANCH  33  34
ENDBRANCH  32  33
ENDBRANCH  30  32
ENDBRANCH  10  30
TORSDOF 10
ENDMDL
MODEL 4
REMARK VINA RESULT:      -8.5      1.780      2.712
REMARK  10 active torsions:
REMARK  status: ('A' for Active; 'I' for Inactive)
REMARK    1  A    between atoms: C_4  and  C_5 
REMARK    2  A    between atoms: C_7  and  C_8 
REMARK    3  A    between atoms: C_8  and  C_9 
REMARK       I    between atoms: C_9  and  N_10 
REMARK    4  A    between atoms: N_10  and  C_11 
REMARK    5  A    between atoms: C_11  and  C_12 
REMARK    6  A    between atoms: C_12  and  N_13 
REMARK    7  A    between atoms: C_24  and  C_25 
REMARK    8  A    between atoms: C_25  and  O_26 
REMARK    9  A    between atoms: O_26  and  C_27 
REMARK   10  A    between atoms: C_27  and  C_28 
ROOT
HETATM    1  C   UNL     1       5.671  29.683  54.924  1.00  0.00     0.166 C 
HETATM    2  N   UNL     1       4.688  30.525  55.693  1.00  0.00    -0.318 N 
HETATM    3  C   UNL     1       4.602  31.100  56.859  1.00  0.00     0.011 C 
HETATM    4  C   UNL     1       3.484  30.954  54.799  1.00  0.00     0.170 C 
HETATM    5  S   UNL     1       2.558  32.244  55.480  1.00  0.00    -0.086 SA
HETATM    6  C   UNL     1       3.516  32.161  56.992  1.00  0.00     0.135 C 
HETATM    7  N   UNL     1       3.144  30.417  53.688  1.00  0.00    -0.229 NA
HETATM    8  C   UNL     1       3.874  29.364  53.201  1.00  0.00     0.048 C 
HETATM    9  C   UNL     1       3.287  28.792  51.929  1.00  0.00     0.071 C 
HETATM   10  C   UNL     1       5.040  28.965  53.756  1.00  0.00     0.069 C 
ENDROOT
BRANCH   3  11
HETATM   11  C   UNL     1       5.536  30.872  58.022  1.00  0.00     0.156 C 
BRANCH  11  12
HETATM   12  C   UNL     1       5.414  31.952  59.090  1.00  0.00     0.223 C 
HETATM   13  N   UNL     1       4.572  31.664  60.132  1.00  0.00    -0.359 N 
HETATM   14  H   UNL     1       3.928  30.884  60.011  1.00  0.00     0.162 HD
HETATM   15  O   UNL     1       6.055  33.000  59.035  1.00  0.00    -0.273 OA
BRANCH  13  16
HETATM   16  C   UNL     1       4.176  32.635  61.159  1.00  0.00     0.150 C 
BRANCH  16  17
HETATM   17  C   UNL     1       5.023  32.650  62.455  1.00  0.00     0.253 C 
BRANCH  17  18
HETATM   18  N   UNL     1       4.231  33.089  63.672  1.00  0.00    -0.077 N 
HETATM   19  H   UNL     1       3.669  32.268  63.974  1.00  0.00     0.279 HD
HETATM   20  C   UNL     1       5.090  33.471  64.848  1.00  0.00     0.269 C 
HETATM   21  C   UNL     1       3.257  34.188  63.347  1.00  0.00     0.269 C 
ENDBRANCH  17  18
ENDBRANCH  16  17
ENDBRANCH  13  16
ENDBRANCH  11  12
ENDBRANCH   3  11
BRANCH   1  22
HETATM   22  C   UNL     1       6.595  28.868  55.821  1.00  0.00    -0.024 A 
HETATM   23  C   UNL     1       7.954  29.280  55.870  1.00  0.00     0.017 A 
HETATM   24  C   UNL     1       8.888  28.663  56.708  1.00  0.00    -0.061 A 
HETATM   25  C   UNL     1      10.320  29.119  56.723  1.00  0.00     0.048 C 
HETATM   26  C   UNL     1       8.482  27.571  57.469  1.00  0.00     0.007 A 
HETATM   27  C   UNL     1       7.157  27.129  57.418  1.00  0.00     0.008 A 
HETATM   28  C   UNL     1       6.194  27.776  56.621  1.00  0.00    -0.053 A 
HETATM   29  C   UNL     1       4.805  27.195  56.625  1.00  0.00     0.049 C 
ENDBRANCH   1  22
BRANCH  10  30
HETATM   30  C   UNL     1       5.851  27.910  53.104  1.00  0.00     0.294 C 
HETATM   31  O   UNL     1       6.856  28.167  52.466  1.00  0.00    -0.259 OA
BRANCH  30  32
HETATM   32  O   UNL     1       5.337  26.692  53.371  1.00  0.00    -0.313 OA
BRANCH  32  33
HETATM   33  C   UNL     1       5.757  25.640  52.487  1.00  0.00     0.217 C 
BRANCH  33  34
HETATM   34  C   UNL     1       6.594  24.667  53.282  1.00  0.00    -0.034 A 
HETATM   35  C   UNL     1       7.511  23.822  52.636  1.00  0.00     0.009 A 
HETATM   36  C   UNL     1       8.290  22.921  53.364  1.00  0.00     0.001 A 
HETATM   37  C   UNL     1       8.174  22.862  54.749  1.00  0.00     0.000 A 
HETATM   38  C   UNL     1       7.280  23.705  55.407  1.00  0.00     0.001 A 
HETATM   39  C   UNL     1       6.492  24.600  54.679  1.00  0.00     0.009 A 
ENDBRANCH  33  34
ENDBRANCH  32  33
ENDBRANCH  30  32
ENDBRANCH  10  30
TORSDOF 10
ENDMDL
MODEL 5
REMARK VINA RESULT:      -8.5      7.290     11.790
REMARK  10 active torsions:
REMARK  status: ('A' for Active; 'I' for Inactive)
REMARK    1  A    between atoms: C_4  and  C_5 
REMARK    2  A    between atoms: C_7  and  C_8 
REMARK    3  A    between atoms: C_8  and  C_9 
REMARK       I    between atoms: C_9  and  N_10 
REMARK    4  A    between atoms: N_10  and  C_11 
REMARK    5  A    between atoms: C_11  and  C_12 
REMARK    6  A    between atoms: C_12  and  N_13 
REMARK    7  A    between atoms: C_24  and  C_25 
REMARK    8  A    between atoms: C_25  and  O_26 
REMARK    9  A    between atoms: O_26  and  C_27 
REMARK   10  A    between atoms: C_27  and  C_28 
ROOT
HETATM    1  C   UNL     1       5.076  33.620  61.396  1.00  0.00     0.166 C 
HETATM    2  N   UNL     1       6.360  33.125  62.007  1.00  0.00    -0.318 N 
HETATM    3  C   UNL     1       7.037  33.279  63.109  1.00  0.00     0.011 C 
HETATM    4  C   UNL     1       7.005  31.998  61.140  1.00  0.00     0.170 C 
HETATM    5  S   UNL     1       8.225  31.109  61.980  1.00  0.00    -0.086 SA
HETATM    6  C   UNL     1       8.117  32.236  63.371  1.00  0.00     0.135 C 
HETATM    7  N   UNL     1       6.729  31.741  59.917  1.00  0.00    -0.229 NA
HETATM    8  C   UNL     1       5.789  32.498  59.267  1.00  0.00     0.048 C 
HETATM    9  C   UNL     1       5.648  32.118  57.809  1.00  0.00     0.071 C 
HETATM   10  C   UNL     1       5.015  33.405  59.903  1.00  0.00     0.069 C 
ENDROOT
BRANCH   3  11
HETATM   11  C   UNL     1       6.772  34.324  64.164  1.00  0.00     0.156 C 
BRANCH  11  12
HETATM   12  C   UNL     1       5.725  33.879  65.178  1.00  0.00     0.223 C 
HETATM   13  N   UNL     1       5.717  34.567  66.363  1.00  0.00    -0.359 N 
HETATM   14  H   UNL     1       6.528  35.145  66.574  1.00  0.00     0.162 HD
HETATM   15  O   UNL     1       4.920  32.982  64.934  1.00  0.00    -0.273 OA
BRANCH  13  16
HETATM   16  C   UNL     1       4.919  34.177  67.532  1.00  0.00     0.150 C 
BRANCH  16  17
HETATM   17  C   UNL     1       5.485  34.577  68.916  1.00  0.00     0.253 C 
BRANCH  17  18
HETATM   18  N   UNL     1       6.773  33.851  69.259  1.00  0.00    -0.077 N 
HETATM   19  H   UNL     1       6.990  33.232  68.452  1.00  0.00     0.279 HD
HETATM   20  C   UNL     1       7.957  34.765  69.425  1.00  0.00     0.269 C 
HETATM   21  C   UNL     1       6.617  32.960  70.461  1.00  0.00     0.269 C 
ENDBRANCH  17  18
ENDBRANCH  16  17
ENDBRANCH  13  16
ENDBRANCH  11  12
ENDBRANCH   3  11
BRANCH   1  22
HETATM   22  C   UNL     1       4.653  34.989  61.917  1.00  0.00    -0.024 A 
HETATM   23  C   UNL     1       5.601  36.039  61.777  1.00  0.00     0.017 A 
HETATM   24  C   UNL     1       5.311  37.356  62.148  1.00  0.00    -0.061 A 
HETATM   25  C   UNL     1       6.344  38.437  61.996  1.00  0.00     0.048 C 
HETATM   26  C   UNL     1       4.077  37.628  62.730  1.00  0.00     0.007 A 
HETATM   27  C   UNL     1       3.139  36.608  62.905  1.00  0.00     0.008 A 
HETATM   28  C   UNL     1       3.396  35.289  62.484  1.00  0.00    -0.053 A 
HETATM   29  C   UNL     1       2.321  34.268  62.748  1.00  0.00     0.049 C 
ENDBRANCH   1  22
BRANCH  10  30
HETATM   30  C   UNL     1       3.924  34.094  59.174  1.00  0.00     0.294 C 
HETATM   31  O   UNL     1       2.787  33.657  59.147  1.00  0.00    -0.259 OA
BRANCH  30  32
HETATM   32  O   UNL     1       4.378  35.239  58.626  1.00  0.00    -0.313 OA
BRANCH  32  33
HETATM   33  C   UNL     1       3.382  36.048  57.979  1.00  0.00     0.217 C 
BRANCH  33  34
HETATM   34  C   UNL     1       3.361  37.397  58.657  1.00  0.00    -0.034 A 
HETATM   35  C   UNL     1       4.476  38.247  58.584  1.00  0.00     0.009 A 
HETATM   36  C   UNL     1       4.465  39.497  59.207  1.00  0.00     0.001 A 
HETATM   37  C   UNL     1       3.332  39.919  59.898  1.00  0.00     0.000 A 
HETATM   38  C   UNL     1       2.212  39.093  59.966  1.00  0.00     0.001 A 
HETATM   39  C   UNL     1       2.227  37.838  59.351  1.00  0.00     0.009 A 
ENDBRANCH  33  34
ENDBRANCH  32  33
ENDBRANCH  30  32
ENDBRANCH  10  30
TORSDOF 10
ENDMDL
MODEL 6
REMARK VINA RESULT:      -8.3      1.502      2.595
REMARK  10 active torsions:
REMARK  status: ('A' for Active; 'I' for Inactive)
REMARK    1  A    between atoms: C_4  and  C_5 
REMARK    2  A    between atoms: C_7  and  C_8 
REMARK    3  A    between atoms: C_8  and  C_9 
REMARK       I    between atoms: C_9  and  N_10 
REMARK    4  A    between atoms: N_10  and  C_11 
REMARK    5  A    between atoms: C_11  and  C_12 
REMARK    6  A    between atoms: C_12  and  N_13 
REMARK    7  A    between atoms: C_24  and  C_25 
REMARK    8  A    between atoms: C_25  and  O_26 
REMARK    9  A    between atoms: O_26  and  C_27 
REMARK   10  A    between atoms: C_27  and  C_28 
ROOT
HETATM    1  C   UNL     1       6.043  28.630  54.459  1.00  0.00     0.166 C 
HETATM    2  N   UNL     1       4.853  29.526  54.682  1.00  0.00    -0.318 N 
HETATM    3  C   UNL     1       4.247  30.109  55.677  1.00  0.00     0.011 C 
HETATM    4  C   UNL     1       4.248  30.017  53.330  1.00  0.00     0.170 C 
HETATM    5  S   UNL     1       3.173  31.357  53.513  1.00  0.00    -0.086 SA
HETATM    6  C   UNL     1       3.283  31.227  55.298  1.00  0.00     0.135 C 
HETATM    7  N   UNL     1       4.456  29.494  52.181  1.00  0.00    -0.229 NA
HETATM    8  C   UNL     1       5.278  28.402  52.079  1.00  0.00     0.048 C 
HETATM    9  C   UNL     1       5.347  27.859  50.668  1.00  0.00     0.071 C 
HETATM   10  C   UNL     1       6.014  27.942  53.115  1.00  0.00     0.069 C 
ENDROOT
BRANCH   3  11
HETATM   11  C   UNL     1       4.496  29.835  57.140  1.00  0.00     0.156 C 
BRANCH  11  12
HETATM   12  C   UNL     1       5.419  30.864  57.779  1.00  0.00     0.223 C 
HETATM   13  N   UNL     1       5.111  31.220  59.065  1.00  0.00    -0.359 N 
HETATM   14  H   UNL     1       4.189  30.965  59.413  1.00  0.00     0.162 HD
HETATM   15  O   UNL     1       6.396  31.321  57.188  1.00  0.00    -0.273 OA
BRANCH  13  16
HETATM   16  C   UNL     1       5.759  32.322  59.789  1.00  0.00     0.150 C 
BRANCH  16  17
HETATM   17  C   UNL     1       4.919  33.609  59.977  1.00  0.00     0.253 C 
BRANCH  17  18
HETATM   18  N   UNL     1       3.486  33.453  59.503  1.00  0.00    -0.077 N 
HETATM   19  H   UNL     1       3.336  32.438  59.335  1.00  0.00     0.279 HD
HETATM   20  C   UNL     1       2.462  33.871  60.523  1.00  0.00     0.269 C 
HETATM   21  C   UNL     1       3.245  34.151  58.192  1.00  0.00     0.269 C 
ENDBRANCH  17  18
ENDBRANCH  16  17
ENDBRANCH  13  16
ENDBRANCH  11  12
ENDBRANCH   3  11
BRANCH   1  22
HETATM   22  C   UNL     1       6.381  27.770  55.670  1.00  0.00    -0.024 A 
HETATM   23  C   UNL     1       5.423  26.787  56.036  1.00  0.00     0.017 A 
HETATM   24  C   UNL     1       5.643  25.886  57.083  1.00  0.00    -0.061 A 
HETATM   25  C   UNL     1       4.600  24.868  57.447  1.00  0.00     0.048 C 
HETATM   26  C   UNL     1       6.814  26.002  57.826  1.00  0.00     0.007 A 
HETATM   27  C   UNL     1       7.760  26.979  57.505  1.00  0.00     0.008 A 
HETATM   28  C   UNL     1       7.576  27.855  56.419  1.00  0.00    -0.053 A 
HETATM   29  C   UNL     1       8.650  28.884  56.183  1.00  0.00     0.049 C 
ENDBRANCH   1  22
BRANCH  10  30
HETATM   30  C   UNL     1       6.987  26.843  52.907  1.00  0.00     0.294 C 
HETATM   31  O   UNL     1       8.189  27.036  52.896  1.00  0.00    -0.259 OA
BRANCH  30  32
HETATM   32  O   UNL     1       6.342  25.665  52.793  1.00  0.00    -0.313 OA
BRANCH  32  33
HETATM   33  C   UNL     1       7.103  24.604  52.191  1.00  0.00     0.217 C 
BRANCH  33  34
HETATM   34  C   UNL     1       7.372  23.562  53.251  1.00  0.00    -0.034 A 
HETATM   35  C   UNL     1       7.148  23.850  54.606  1.00  0.00     0.009 A 
HETATM   36  C   UNL     1       7.393  22.892  55.592  1.00  0.00     0.001 A 
HETATM   37  C   UNL     1       7.852  21.628  55.234  1.00  0.00     0.000 A 
HETATM   38  C   UNL     1       8.066  21.322  53.891  1.00  0.00     0.001 A 
HETATM   39  C   UNL     1       7.830  22.283  52.905  1.00  0.00     0.009 A 
ENDBRANCH  33  34
ENDBRANCH  32  33
ENDBRANCH  30  32
ENDBRANCH  10  30
TORSDOF 10
ENDMDL
MODEL 7
REMARK VINA RESULT:      -7.9      4.705     12.036
REMARK  10 active torsions:
REMARK  status: ('A' for Active; 'I' for Inactive)
REMARK    1  A    between atoms: C_4  and  C_5 
REMARK    2  A    between atoms: C_7  and  C_8 
REMARK    3  A    between atoms: C_8  and  C_9 
REMARK       I    between atoms: C_9  and  N_10 
REMARK    4  A    between atoms: N_10  and  C_11 
REMARK    5  A    between atoms: C_11  and  C_12 
REMARK    6  A    between atoms: C_12  and  N_13 
REMARK    7  A    between atoms: C_24  and  C_25 
REMARK    8  A    between atoms: C_25  and  O_26 
REMARK    9  A    between atoms: O_26  and  C_27 
REMARK   10  A    between atoms: C_27  and  C_28 
ROOT
HETATM    1  C   UNL     1       5.919  34.074  61.709  1.00  0.00     0.166 C 
HETATM    2  N   UNL     1       6.618  32.921  61.040  1.00  0.00    -0.318 N 
HETATM    3  C   UNL     1       6.625  32.327  59.880  1.00  0.00     0.011 C 
HETATM    4  C   UNL     1       7.764  32.353  61.934  1.00  0.00     0.170 C 
HETATM    5  S   UNL     1       8.858  31.332  61.070  1.00  0.00    -0.086 SA
HETATM    6  C   UNL     1       7.816  31.415  59.613  1.00  0.00     0.135 C 
HETATM    7  N   UNL     1       7.906  32.553  63.190  1.00  0.00    -0.229 NA
HETATM    8  C   UNL     1       6.991  33.330  63.853  1.00  0.00     0.048 C 
HETATM    9  C   UNL     1       7.257  33.393  65.341  1.00  0.00     0.071 C 
HETATM   10  C   UNL     1       6.031  34.034  63.214  1.00  0.00     0.069 C 
ENDROOT
BRANCH   3  11
HETATM   11  C   UNL     1       5.621  32.547  58.775  1.00  0.00     0.156 C 
BRANCH  11  12
HETATM   12  C   UNL     1       5.638  31.429  57.740  1.00  0.00     0.223 C 
HETATM   13  N   UNL     1       5.168  30.215  58.169  1.00  0.00    -0.359 N 
HETATM   14  H   UNL     1       5.067  30.082  59.174  1.00  0.00     0.162 HD
HETATM   15  O   UNL     1       6.017  31.614  56.585  1.00  0.00    -0.273 OA
BRANCH  13  16
HETATM   16  C   UNL     1       5.271  28.975  57.392  1.00  0.00     0.150 C 
BRANCH  16  17
HETATM   17  C   UNL     1       6.638  28.249  57.431  1.00  0.00     0.253 C 
BRANCH  17  18
HETATM   18  N   UNL     1       7.697  28.938  56.591  1.00  0.00    -0.077 N 
HETATM   19  H   UNL     1       7.447  29.947  56.566  1.00  0.00     0.279 HD
HETATM   20  C   UNL     1       9.081  28.856  57.176  1.00  0.00     0.269 C 
HETATM   21  C   UNL     1       7.692  28.453  55.167  1.00  0.00     0.269 C 
ENDBRANCH  17  18
ENDBRANCH  16  17
ENDBRANCH  13  16
ENDBRANCH  11  12
ENDBRANCH   3  11
BRANCH   1  22
HETATM   22  C   UNL     1       4.542  34.363  61.124  1.00  0.00    -0.024 A 
HETATM   23  C   UNL     1       4.383  35.612  60.467  1.00  0.00     0.017 A 
HETATM   24  C   UNL     1       3.192  35.970  59.826  1.00  0.00    -0.061 A 
HETATM   25  C   UNL     1       3.059  37.306  59.152  1.00  0.00     0.048 C 
HETATM   26  C   UNL     1       2.112  35.095  59.891  1.00  0.00     0.007 A 
HETATM   27  C   UNL     1       2.234  33.871  60.555  1.00  0.00     0.008 A 
HETATM   28  C   UNL     1       3.444  33.475  61.156  1.00  0.00    -0.053 A 
HETATM   29  C   UNL     1       3.450  32.148  61.866  1.00  0.00     0.049 C 
ENDBRANCH   1  22
BRANCH  10  30
HETATM   30  C   UNL     1       5.160  34.962  63.973  1.00  0.00     0.294 C 
HETATM   31  O   UNL     1       4.076  34.621  64.411  1.00  0.00    -0.259 OA
BRANCH  30  32
HETATM   32  O   UNL     1       5.768  36.157  64.123  1.00  0.00    -0.313 OA
BRANCH  32  33
HETATM   33  C   UNL     1       4.990  37.297  63.724  1.00  0.00     0.217 C 
BRANCH  33  34
HETATM   34  C   UNL     1       5.937  38.350  63.200  1.00  0.00    -0.034 A 
HETATM   35  C   UNL     1       6.402  39.372  64.043  1.00  0.00     0.009 A 
HETATM   36  C   UNL     1       7.279  40.348  63.567  1.00  0.00     0.001 A 
HETATM   37  C   UNL     1       7.714  40.308  62.246  1.00  0.00     0.000 A 
HETATM   38  C   UNL     1       7.272  39.291  61.400  1.00  0.00     0.001 A 
HETATM   39  C   UNL     1       6.386  38.320  61.873  1.00  0.00     0.009 A 
ENDBRANCH  33  34
ENDBRANCH  32  33
ENDBRANCH  30  32
ENDBRANCH  10  30
TORSDOF 10
ENDMDL
MODEL 8
REMARK VINA RESULT:      -7.8      3.083      4.905
REMARK  10 active torsions:
REMARK  status: ('A' for Active; 'I' for Inactive)
REMARK    1  A    between atoms: C_4  and  C_5 
REMARK    2  A    between atoms: C_7  and  C_8 
REMARK    3  A    between atoms: C_8  and  C_9 
REMARK       I    between atoms: C_9  and  N_10 
REMARK    4  A    between atoms: N_10  and  C_11 
REMARK    5  A    between atoms: C_11  and  C_12 
REMARK    6  A    between atoms: C_12  and  N_13 
REMARK    7  A    between atoms: C_24  and  C_25 
REMARK    8  A    between atoms: C_25  and  O_26 
REMARK    9  A    between atoms: O_26  and  C_27 
REMARK   10  A    between atoms: C_27  and  C_28 
ROOT
HETATM    1  C   UNL     1       6.973  29.767  57.547  1.00  0.00     0.166 C 
HETATM    2  N   UNL     1       7.091  30.880  58.554  1.00  0.00    -0.318 N 
HETATM    3  C   UNL     1       6.308  31.699  59.196  1.00  0.00     0.011 C 
HETATM    4  C   UNL     1       8.550  31.006  59.096  1.00  0.00     0.170 C 
HETATM    5  S   UNL     1       8.661  31.957  60.533  1.00  0.00    -0.086 SA
HETATM    6  C   UNL     1       6.928  32.398  60.400  1.00  0.00     0.135 C 
HETATM    7  N   UNL     1       9.598  30.513  58.552  1.00  0.00    -0.229 NA
HETATM    8  C   UNL     1       9.478  29.803  57.385  1.00  0.00     0.048 C 
HETATM    9  C   UNL     1      10.817  29.367  56.833  1.00  0.00     0.071 C 
HETATM   10  C   UNL     1       8.282  29.456  56.861  1.00  0.00     0.069 C 
ENDROOT
BRANCH   3  11
HETATM   11  C   UNL     1       4.845  31.925  58.904  1.00  0.00     0.156 C 
BRANCH  11  12
HETATM   12  C   UNL     1       4.095  32.510  60.095  1.00  0.00     0.223 C 
HETATM   13  N   UNL     1       3.967  33.875  60.103  1.00  0.00    -0.359 N 
HETATM   14  H   UNL     1       4.561  34.404  59.467  1.00  0.00     0.162 HD
HETATM   15  O   UNL     1       3.608  31.801  60.973  1.00  0.00    -0.273 OA
BRANCH  13  16
HETATM   16  C   UNL     1       3.447  34.642  61.241  1.00  0.00     0.150 C 
BRANCH  16  17
HETATM   17  C   UNL     1       4.374  34.754  62.476  1.00  0.00     0.253 C 
BRANCH  17  18
HETATM   18  N   UNL     1       4.032  33.752  63.563  1.00  0.00    -0.077 N 
HETATM   19  H   UNL     1       3.335  33.097  63.156  1.00  0.00     0.279 HD
HETATM   20  C   UNL     1       5.202  32.911  64.000  1.00  0.00     0.269 C 
HETATM   21  C   UNL     1       3.376  34.405  64.749  1.00  0.00     0.269 C 
ENDBRANCH  17  18
ENDBRANCH  16  17
ENDBRANCH  13  16
ENDBRANCH  11  12
ENDBRANCH   3  11
BRANCH   1  22
HETATM   22  C   UNL     1       5.738  29.886  56.663  1.00  0.00    -0.024 A 
HETATM   23  C   UNL     1       5.576  31.114  55.965  1.00  0.00     0.017 A 
HETATM   24  C   UNL     1       4.526  31.326  55.067  1.00  0.00    -0.061 A 
HETATM   25  C   UNL     1       4.382  32.642  54.357  1.00  0.00     0.048 C 
HETATM   26  C   UNL     1       3.576  30.321  54.903  1.00  0.00     0.007 A 
HETATM   27  C   UNL     1       3.697  29.116  55.599  1.00  0.00     0.008 A 
HETATM   28  C   UNL     1       4.780  28.868  56.463  1.00  0.00    -0.053 A 
HETATM   29  C   UNL     1       4.792  27.544  57.179  1.00  0.00     0.049 C 
ENDBRANCH   1  22
BRANCH  10  30
HETATM   30  C   UNL     1       8.218  28.572  55.673  1.00  0.00     0.294 C 
HETATM   31  O   UNL     1       8.434  28.984  54.547  1.00  0.00    -0.259 OA
BRANCH  30  32
HETATM   32  O   UNL     1       7.946  27.305  56.047  1.00  0.00    -0.313 OA
BRANCH  32  33
HETATM   33  C   UNL     1       7.284  26.500  55.057  1.00  0.00     0.217 C 
BRANCH  33  34
HETATM   34  C   UNL     1       7.766  25.077  55.212  1.00  0.00    -0.034 A 
HETATM   35  C   UNL     1       8.034  24.551  56.485  1.00  0.00     0.009 A 
HETATM   36  C   UNL     1       8.478  23.236  56.637  1.00  0.00     0.001 A 
HETATM   37  C   UNL     1       8.646  22.425  55.518  1.00  0.00     0.000 A 
HETATM   38  C   UNL     1       8.369  22.929  54.248  1.00  0.00     0.001 A 
HETATM   39  C   UNL     1       7.934  24.248  54.095  1.00  0.00     0.009 A 
ENDBRANCH  33  34
ENDBRANCH  32  33
ENDBRANCH  30  32
ENDBRANCH  10  30
TORSDOF 10
ENDMDL
MODEL 9
REMARK VINA RESULT:      -7.7      5.831      9.481
REMARK  10 active torsions:
REMARK  status: ('A' for Active; 'I' for Inactive)
REMARK    1  A    between atoms: C_4  and  C_5 
REMARK    2  A    between atoms: C_7  and  C_8 
REMARK    3  A    between atoms: C_8  and  C_9 
REMARK       I    between atoms: C_9  and  N_10 
REMARK    4  A    between atoms: N_10  and  C_11 
REMARK    5  A    between atoms: C_11  and  C_12 
REMARK    6  A    between atoms: C_12  and  N_13 
REMARK    7  A    between atoms: C_24  and  C_25 
REMARK    8  A    between atoms: C_25  and  O_26 
REMARK    9  A    between atoms: O_26  and  C_27 
REMARK   10  A    between atoms: C_27  and  C_28 
ROOT
HETATM    1  C   UNL     1       5.008  34.727  60.670  1.00  0.00     0.166 C 
HETATM    2  N   UNL     1       4.645  35.896  61.547  1.00  0.00    -0.318 N 
HETATM    3  C   UNL     1       4.970  36.375  62.714  1.00  0.00     0.011 C 
HETATM    4  C   UNL     1       3.716  36.902  60.799  1.00  0.00     0.170 C 
HETATM    5  S   UNL     1       3.610  38.439  61.581  1.00  0.00    -0.086 SA
HETATM    6  C   UNL     1       4.557  37.820  62.971  1.00  0.00     0.135 C 
HETATM    7  N   UNL     1       3.045  36.658  59.738  1.00  0.00    -0.229 NA
HETATM    8  C   UNL     1       3.115  35.412  59.170  1.00  0.00     0.048 C 
HETATM    9  C   UNL     1       2.197  35.266  57.977  1.00  0.00     0.071 C 
HETATM   10  C   UNL     1       3.990  34.469  59.586  1.00  0.00     0.069 C 
ENDROOT
BRANCH   3  11
HETATM   11  C   UNL     1       5.790  35.661  63.760  1.00  0.00     0.156 C 
BRANCH  11  12
HETATM   12  C   UNL     1       4.992  35.361  65.023  1.00  0.00     0.223 C 
HETATM   13  N   UNL     1       5.703  35.389  66.194  1.00  0.00    -0.359 N 
HETATM   14  H   UNL     1       6.719  35.374  66.126  1.00  0.00     0.162 HD
HETATM   15  O   UNL     1       3.783  35.140  64.994  1.00  0.00    -0.273 OA
BRANCH  13  16
HETATM   16  C   UNL     1       5.167  34.950  67.489  1.00  0.00     0.150 C 
BRANCH  16  17
HETATM   17  C   UNL     1       6.186  34.345  68.485  1.00  0.00     0.253 C 
BRANCH  17  18
HETATM   18  N   UNL     1       6.478  35.260  69.660  1.00  0.00    -0.077 N 
HETATM   19  H   UNL     1       5.994  36.159  69.464  1.00  0.00     0.279 HD
HETATM   20  C   UNL     1       5.930  34.758  70.969  1.00  0.00     0.269 C 
HETATM   21  C   UNL     1       7.944  35.573  69.782  1.00  0.00     0.269 C 
ENDBRANCH  17  18
ENDBRANCH  16  17
ENDBRANCH  13  16
ENDBRANCH  11  12
ENDBRANCH   3  11
BRANCH   1  22
HETATM   22  C   UNL     1       5.506  33.520  61.455  1.00  0.00    -0.024 A 
HETATM   23  C   UNL     1       6.892  33.225  61.351  1.00  0.00     0.017 A 
HETATM   24  C   UNL     1       7.489  32.189  62.075  1.00  0.00    -0.061 A 
HETATM   25  C   UNL     1       8.957  31.901  61.929  1.00  0.00     0.048 C 
HETATM   26  C   UNL     1       6.682  31.384  62.875  1.00  0.00     0.007 A 
HETATM   27  C   UNL     1       5.311  31.636  62.973  1.00  0.00     0.008 A 
HETATM   28  C   UNL     1       4.708  32.710  62.292  1.00  0.00    -0.053 A 
HETATM   29  C   UNL     1       3.219  32.867  62.452  1.00  0.00     0.049 C 
ENDBRANCH   1  22
BRANCH  10  30
HETATM   30  C   UNL     1       4.114  33.191  58.845  1.00  0.00     0.294 C 
HETATM   31  O   UNL     1       3.254  32.330  58.892  1.00  0.00    -0.259 OA
BRANCH  30  32
HETATM   32  O   UNL     1       5.250  33.179  58.120  1.00  0.00    -0.313 OA
BRANCH  32  33
HETATM   33  C   UNL     1       5.274  32.243  57.029  1.00  0.00     0.217 C 
BRANCH  33  34
HETATM   34  C   UNL     1       6.134  31.071  57.438  1.00  0.00    -0.034 A 
HETATM   35  C   UNL     1       7.156  31.233  58.386  1.00  0.00     0.009 A 
HETATM   36  C   UNL     1       7.954  30.154  58.770  1.00  0.00     0.001 A 
HETATM   37  C   UNL     1       7.731  28.895  58.222  1.00  0.00     0.000 A 
HETATM   38  C   UNL     1       6.710  28.714  57.290  1.00  0.00     0.001 A 
HETATM   39  C   UNL     1       5.918  29.796  56.898  1.00  0.00     0.009 A 
ENDBRANCH  33  34
ENDBRANCH  32  33
ENDBRANCH  30  32
ENDBRANCH  10  30
TORSDOF 10
ENDMDL
MODEL 10
REMARK VINA RESULT:      -7.5      3.422      6.502
REMARK  10 active torsions:
REMARK  status: ('A' for Active; 'I' for Inactive)
REMARK    1  A    between atoms: C_4  and  C_5 
REMARK    2  A    between atoms: C_7  and  C_8 
REMARK    3  A    between atoms: C_8  and  C_9 
REMARK       I    between atoms: C_9  and  N_10 
REMARK    4  A    between atoms: N_10  and  C_11 
REMARK    5  A    between atoms: C_11  and  C_12 
REMARK    6  A    between atoms: C_12  and  N_13 
REMARK    7  A    between atoms: C_24  and  C_25 
REMARK    8  A    between atoms: C_25  and  O_26 
REMARK    9  A    between atoms: O_26  and  C_27 
REMARK   10  A    between atoms: C_27  and  C_28 
ROOT
HETATM    1  C   UNL     1       4.050  28.411  52.079  1.00  0.00     0.166 C 
HETATM    2  N   UNL     1       4.270  28.633  53.552  1.00  0.00    -0.318 N 
HETATM    3  C   UNL     1       3.905  29.478  54.474  1.00  0.00     0.011 C 
HETATM    4  C   UNL     1       5.040  27.440  54.199  1.00  0.00     0.170 C 
HETATM    5  S   UNL     1       4.952  27.430  55.925  1.00  0.00    -0.086 SA
HETATM    6  C   UNL     1       4.125  29.020  55.911  1.00  0.00     0.135 C 
HETATM    7  N   UNL     1       5.717  26.554  53.571  1.00  0.00    -0.229 NA
HETATM    8  C   UNL     1       5.805  26.620  52.205  1.00  0.00     0.048 C 
HETATM    9  C   UNL     1       6.711  25.553  51.631  1.00  0.00     0.071 C 
HETATM   10  C   UNL     1       5.073  27.484  51.467  1.00  0.00     0.069 C 
ENDROOT
BRANCH   3  11
HETATM   11  C   UNL     1       3.210  30.795  54.234  1.00  0.00     0.156 C 
BRANCH  11  12
HETATM   12  C   UNL     1       3.314  31.737  55.426  1.00  0.00     0.223 C 
HETATM   13  N   UNL     1       4.563  32.241  55.678  1.00  0.00    -0.359 N 
HETATM   14  H   UNL     1       5.351  31.787  55.219  1.00  0.00     0.162 HD
HETATM   15  O   UNL     1       2.333  32.050  56.099  1.00  0.00    -0.273 OA
BRANCH  13  16
HETATM   16  C   UNL     1       4.910  33.011  56.878  1.00  0.00     0.150 C 
BRANCH  16  17
HETATM   17  C   UNL     1       5.096  32.202  58.185  1.00  0.00     0.253 C 
BRANCH  17  18
HETATM   18  N   UNL     1       6.544  31.836  58.452  1.00  0.00    -0.077 N 
HETATM   19  H   UNL     1       7.125  32.480  57.878  1.00  0.00     0.279 HD
HETATM   20  C   UNL     1       6.967  32.041  59.881  1.00  0.00     0.269 C 
HETATM   21  C   UNL     1       6.866  30.438  57.997  1.00  0.00     0.269 C 
ENDBRANCH  17  18
ENDBRANCH  16  17
ENDBRANCH  13  16
ENDBRANCH  11  12
ENDBRANCH   3  11
BRANCH   1  22
HETATM   22  C   UNL     1       3.735  29.694  51.320  1.00  0.00    -0.024 A 
HETATM   23  C   UNL     1       4.754  30.683  51.300  1.00  0.00     0.017 A 
HETATM   24  C   UNL     1       4.620  31.875  50.580  1.00  0.00    -0.061 A 
HETATM   25  C   UNL     1       5.717  32.903  50.593  1.00  0.00     0.048 C 
HETATM   26  C   UNL     1       3.423  32.120  49.915  1.00  0.00     0.007 A 
HETATM   27  C   UNL     1       2.394  31.175  49.942  1.00  0.00     0.008 A 
HETATM   28  C   UNL     1       2.537  29.948  50.617  1.00  0.00    -0.053 A 
HETATM   29  C   UNL     1       1.353  29.019  50.600  1.00  0.00     0.049 C 
ENDBRANCH   1  22
BRANCH  10  30
HETATM   30  C   UNL     1       5.108  27.415  49.987  1.00  0.00     0.294 C 
HETATM   31  O   UNL     1       5.902  28.061  49.327  1.00  0.00    -0.259 OA
BRANCH  30  32
HETATM   32  O   UNL     1       4.198  26.526  49.539  1.00  0.00    -0.313 OA
BRANCH  32  33
HETATM   33  C   UNL     1       4.100  26.415  48.109  1.00  0.00     0.217 C 
BRANCH  33  34
HETATM   34  C   UNL     1       2.928  27.250  47.654  1.00  0.00    -0.034 A 
HETATM   35  C   UNL     1       3.122  28.569  47.213  1.00  0.00     0.009 A 
HETATM   36  C   UNL     1       2.044  29.348  46.788  1.00  0.00     0.001 A 
HETATM   37  C   UNL     1       0.759  28.813  46.785  1.00  0.00     0.000 A 
HETATM   38  C   UNL     1       0.551  27.501  47.206  1.00  0.00     0.001 A 
HETATM   39  C   UNL     1       1.629  26.724  47.641  1.00  0.00     0.009 A 
ENDBRANCH  33  34
ENDBRANCH  32  33
ENDBRANCH  30  32
ENDBRANCH  10  30
TORSDOF 10
ENDMDL
