MODEL 1
REMARK VINA RESULT:      -8.7      0.000      0.000
REMARK  4 active torsions:
REMARK  status: ('A' for Active; 'I' for Inactive)
REMARK    1  A    between atoms: O_2  and  C_3 
REMARK    2  A    between atoms: N_9  and  N_10 
REMARK       I    between atoms: N_10  and  C_11 
REMARK    3  A    between atoms: C_11  and  C_12 
REMARK    4  A    between atoms: C_13  and  O_14 
ROOT
HETATM    1  C   UNL     1       7.724  22.304  54.117  1.00  0.00     0.069 A 
HETATM    2  C   UNL     1       7.432  23.663  54.271  1.00  0.00     0.053 A 
HETATM    3  C   UNL     1       7.583  24.221  55.531  1.00  0.00     0.029 A 
HETATM    4  C   UNL     1       7.374  25.581  56.054  1.00  0.00     0.157 A 
HETATM    5  C   UNL     1       7.902  25.553  57.504  1.00  0.00     0.277 A 
HETATM    6  O   UNL     1       7.964  26.486  58.273  1.00  0.00    -0.266 OA
HETATM    7  N   UNL     1       6.854  26.655  55.552  1.00  0.00    -0.166 NA
HETATM    8  C   UNL     1       8.084  23.470  56.597  1.00  0.00     0.048 A 
HETATM    9  N   UNL     1       8.259  24.245  57.736  1.00  0.00    -0.321 N 
HETATM   10  C   UNL     1       8.388  22.132  56.468  1.00  0.00     0.033 A 
HETATM   11  C   UNL     1       8.190  21.550  55.214  1.00  0.00     0.039 A 
HETATM   12  H   UNL     1       8.641  23.935  58.618  1.00  0.00     0.169 HD
ENDROOT
BRANCH   7  13
HETATM   13  N   UNL     1       6.224  26.596  54.348  1.00  0.00    -0.242 N 
HETATM   14  C   UNL     1       6.485  27.560  53.385  1.00  0.00     0.274 C 
HETATM   15  O   UNL     1       7.367  28.414  53.456  1.00  0.00    -0.266 OA
HETATM   16  H   UNL     1       5.467  25.941  54.242  1.00  0.00     0.192 HD
BRANCH  14  17
HETATM   17  C   UNL     1       5.675  27.492  52.134  1.00  0.00     0.068 A 
HETATM   18  C   UNL     1       5.873  26.417  51.250  1.00  0.00     0.081 A 
HETATM   19  C   UNL     1       5.103  26.290  50.094  1.00  0.00     0.039 A 
HETATM   20  C   UNL     1       4.132  27.244  49.796  1.00  0.00     0.022 A 
HETATM   21  C   UNL     1       3.949  28.328  50.652  1.00  0.00     0.012 A 
HETATM   22 BR   UNL     1       2.639  29.630  50.246  1.00  0.00    -0.051 Br
HETATM   23  C   UNL     1       4.717  28.465  51.812  1.00  0.00     0.039 A 
BRANCH  18  24
HETATM   24  O   UNL     1       6.807  25.437  51.456  1.00  0.00    -0.360 OA
HETATM   25  H   UNL     1       6.499  24.620  50.999  1.00  0.00     0.217 HD
ENDBRANCH  18  24
ENDBRANCH  14  17
ENDBRANCH   7  13
BRANCH   1  26
HETATM   26  O   UNL     1       7.612  21.592  52.954  1.00  0.00    -0.356 OA
HETATM   27  C   UNL     1       8.360  20.386  52.850  1.00  0.00     0.210 C 
ENDBRANCH   1  26
TORSDOF 4
ENDMDL
MODEL 2
REMARK VINA RESULT:      -8.6      4.281      7.237
REMARK  4 active torsions:
REMARK  status: ('A' for Active; 'I' for Inactive)
REMARK    1  A    between atoms: O_2  and  C_3 
REMARK    2  A    between atoms: N_9  and  N_10 
REMARK       I    between atoms: N_10  and  C_11 
REMARK    3  A    between atoms: C_11  and  C_12 
REMARK    4  A    between atoms: C_13  and  O_14 
ROOT
HETATM    1  C   UNL     1       8.937  30.087  58.033  1.00  0.00     0.069 A 
HETATM    2  C   UNL     1       7.901  29.444  57.348  1.00  0.00     0.053 A 
HETATM    3  C   UNL     1       6.601  29.848  57.611  1.00  0.00     0.029 A 
HETATM    4  C   UNL     1       5.294  29.410  57.094  1.00  0.00     0.157 A 
HETATM    5  C   UNL     1       4.264  30.402  57.676  1.00  0.00     0.277 A 
HETATM    6  O   UNL     1       3.074  30.428  57.453  1.00  0.00    -0.266 OA
HETATM    7  N   UNL     1       4.922  28.425  56.340  1.00  0.00    -0.166 NA
HETATM    8  C   UNL     1       6.337  30.913  58.476  1.00  0.00     0.048 A 
HETATM    9  N   UNL     1       4.984  31.223  58.513  1.00  0.00    -0.321 N 
HETATM   10  C   UNL     1       7.341  31.568  59.154  1.00  0.00     0.033 A 
HETATM   11  C   UNL     1       8.651  31.134  58.934  1.00  0.00     0.039 A 
HETATM   12  H   UNL     1       4.556  31.975  59.034  1.00  0.00     0.169 HD
ENDROOT
BRANCH   7  13
HETATM   13  N   UNL     1       5.821  27.462  56.003  1.00  0.00    -0.242 N 
HETATM   14  C   UNL     1       5.730  26.203  56.578  1.00  0.00     0.274 C 
HETATM   15  O   UNL     1       4.800  25.808  57.280  1.00  0.00    -0.266 OA
HETATM   16  H   UNL     1       6.625  27.733  55.462  1.00  0.00     0.192 HD
BRANCH  14  17
HETATM   17  C   UNL     1       6.815  25.235  56.245  1.00  0.00     0.068 A 
HETATM   18  C   UNL     1       7.817  24.976  57.196  1.00  0.00     0.081 A 
HETATM   19  C   UNL     1       8.821  24.043  56.943  1.00  0.00     0.039 A 
HETATM   20  C   UNL     1       8.848  23.361  55.727  1.00  0.00     0.022 A 
HETATM   21  C   UNL     1       7.875  23.632  54.767  1.00  0.00     0.012 A 
HETATM   22 BR   UNL     1       7.914  22.717  53.113  1.00  0.00    -0.051 Br
HETATM   23  C   UNL     1       6.866  24.568  55.011  1.00  0.00     0.039 A 
BRANCH  18  24
HETATM   24  O   UNL     1       7.876  25.602  58.413  1.00  0.00    -0.360 OA
HETATM   25  H   UNL     1       7.748  26.569  58.267  1.00  0.00     0.217 HD
ENDBRANCH  18  24
ENDBRANCH  14  17
ENDBRANCH   7  13
BRANCH   1  26
HETATM   26  O   UNL     1      10.270  29.803  57.910  1.00  0.00    -0.356 OA
HETATM   27  C   UNL     1      10.789  29.655  56.593  1.00  0.00     0.210 C 
ENDBRANCH   1  26
TORSDOF 4
ENDMDL
MODEL 3
REMARK VINA RESULT:      -8.4      4.173      6.354
REMARK  4 active torsions:
REMARK  status: ('A' for Active; 'I' for Inactive)
REMARK    1  A    between atoms: O_2  and  C_3 
REMARK    2  A    between atoms: N_9  and  N_10 
REMARK       I    between atoms: N_10  and  C_11 
REMARK    3  A    between atoms: C_11  and  C_12 
REMARK    4  A    between atoms: C_13  and  O_14 
ROOT
HETATM    1  C   UNL     1       9.226  29.322  57.233  1.00  0.00     0.069 A 
HETATM    2  C   UNL     1       8.089  28.755  56.649  1.00  0.00     0.053 A 
HETATM    3  C   UNL     1       6.849  29.229  57.050  1.00  0.00     0.029 A 
HETATM    4  C   UNL     1       5.473  28.878  56.664  1.00  0.00     0.157 A 
HETATM    5  C   UNL     1       4.569  29.918  57.361  1.00  0.00     0.277 A 
HETATM    6  O   UNL     1       3.366  30.019  57.262  1.00  0.00    -0.266 OA
HETATM    7  N   UNL     1       4.967  27.932  55.940  1.00  0.00    -0.166 NA
HETATM    8  C   UNL     1       6.739  30.291  57.950  1.00  0.00     0.048 A 
HETATM    9  N   UNL     1       5.418  30.680  58.130  1.00  0.00    -0.321 N 
HETATM   10  C   UNL     1       7.845  30.874  58.530  1.00  0.00     0.033 A 
HETATM   11  C   UNL     1       9.096  30.367  58.171  1.00  0.00     0.039 A 
HETATM   12  H   UNL     1       5.091  31.446  58.702  1.00  0.00     0.169 HD
ENDROOT
BRANCH   7  13
HETATM   13  N   UNL     1       5.767  26.923  55.501  1.00  0.00    -0.242 N 
HETATM   14  C   UNL     1       5.527  26.340  54.266  1.00  0.00     0.274 C 
HETATM   15  O   UNL     1       4.723  26.752  53.430  1.00  0.00    -0.266 OA
HETATM   16  H   UNL     1       6.419  26.519  56.153  1.00  0.00     0.192 HD
BRANCH  14  17
HETATM   17  C   UNL     1       6.376  25.169  53.902  1.00  0.00     0.068 A 
HETATM   18  C   UNL     1       6.923  25.096  52.610  1.00  0.00     0.081 A 
HETATM   19  C   UNL     1       7.761  24.043  52.245  1.00  0.00     0.039 A 
HETATM   20  C   UNL     1       8.056  23.037  53.164  1.00  0.00     0.022 A 
HETATM   21  C   UNL     1       7.496  23.087  54.439  1.00  0.00     0.012 A 
HETATM   22 BR   UNL     1       7.886  21.720  55.685  1.00  0.00    -0.051 Br
HETATM   23  C   UNL     1       6.653  24.137  54.812  1.00  0.00     0.039 A 
BRANCH  18  24
HETATM   24  O   UNL     1       6.684  26.032  51.639  1.00  0.00    -0.360 OA
HETATM   25  H   UNL     1       7.505  26.135  51.104  1.00  0.00     0.217 HD
ENDBRANCH  18  24
ENDBRANCH  14  17
ENDBRANCH   7  13
BRANCH   1  26
HETATM   26  O   UNL     1      10.520  28.963  56.969  1.00  0.00    -0.356 OA
HETATM   27  C   UNL     1      11.544  29.873  57.355  1.00  0.00     0.210 C 
ENDBRANCH   1  26
TORSDOF 4
ENDMDL
MODEL 4
REMARK VINA RESULT:      -8.3      2.370      4.556
REMARK  4 active torsions:
REMARK  status: ('A' for Active; 'I' for Inactive)
REMARK    1  A    between atoms: O_2  and  C_3 
REMARK    2  A    between atoms: N_9  and  N_10 
REMARK       I    between atoms: N_10  and  C_11 
REMARK    3  A    between atoms: C_11  and  C_12 
REMARK    4  A    between atoms: C_13  and  O_14 
ROOT
HETATM    1  C   UNL     1       7.898  23.973  52.958  1.00  0.00     0.069 A 
HETATM    2  C   UNL     1       8.065  24.284  54.312  1.00  0.00     0.053 A 
HETATM    3  C   UNL     1       8.065  23.239  55.222  1.00  0.00     0.029 A 
HETATM    4  C   UNL     1       8.210  23.189  56.686  1.00  0.00     0.157 A 
HETATM    5  C   UNL     1       8.297  21.689  57.044  1.00  0.00     0.277 A 
HETATM    6  O   UNL     1       8.474  21.213  58.142  1.00  0.00    -0.266 OA
HETATM    7  N   UNL     1       8.244  24.099  57.607  1.00  0.00    -0.166 NA
HETATM    8  C   UNL     1       7.977  21.911  54.797  1.00  0.00     0.048 A 
HETATM    9  N   UNL     1       8.106  21.021  55.856  1.00  0.00    -0.321 N 
HETATM   10  C   UNL     1       7.823  21.579  53.469  1.00  0.00     0.033 A 
HETATM   11  C   UNL     1       7.771  22.629  52.549  1.00  0.00     0.039 A 
HETATM   12  H   UNL     1       8.113  20.013  55.794  1.00  0.00     0.169 HD
ENDROOT
BRANCH   7  13
HETATM   13  N   UNL     1       7.971  25.391  57.283  1.00  0.00    -0.242 N 
HETATM   14  C   UNL     1       6.654  25.818  57.198  1.00  0.00     0.274 C 
HETATM   15  O   UNL     1       5.672  25.160  57.538  1.00  0.00    -0.266 OA
HETATM   16  H   UNL     1       8.730  25.968  56.960  1.00  0.00     0.192 HD
BRANCH  14  17
HETATM   17  C   UNL     1       6.433  27.216  56.730  1.00  0.00     0.068 A 
HETATM   18  C   UNL     1       7.054  28.273  57.418  1.00  0.00     0.081 A 
HETATM   19  C   UNL     1       6.912  29.591  56.984  1.00  0.00     0.039 A 
HETATM   20  C   UNL     1       6.135  29.875  55.863  1.00  0.00     0.022 A 
HETATM   21  C   UNL     1       5.492  28.837  55.192  1.00  0.00     0.012 A 
HETATM   22 BR   UNL     1       4.428  29.219  53.677  1.00  0.00    -0.051 Br
HETATM   23  C   UNL     1       5.626  27.513  55.621  1.00  0.00     0.039 A 
BRANCH  18  24
HETATM   24  O   UNL     1       7.829  28.091  58.532  1.00  0.00    -0.360 OA
HETATM   25  H   UNL     1       8.735  28.425  58.332  1.00  0.00     0.217 HD
ENDBRANCH  18  24
ENDBRANCH  14  17
ENDBRANCH   7  13
BRANCH   1  26
HETATM   26  O   UNL     1       7.855  24.877  51.932  1.00  0.00    -0.356 OA
HETATM   27  C   UNL     1       6.678  25.666  51.804  1.00  0.00     0.210 C 
ENDBRANCH   1  26
TORSDOF 4
ENDMDL
MODEL 5
REMARK VINA RESULT:      -8.2      3.679      6.370
REMARK  4 active torsions:
REMARK  status: ('A' for Active; 'I' for Inactive)
REMARK    1  A    between atoms: O_2  and  C_3 
REMARK    2  A    between atoms: N_9  and  N_10 
REMARK       I    between atoms: N_10  and  C_11 
REMARK    3  A    between atoms: C_11  and  C_12 
REMARK    4  A    between atoms: C_13  and  O_14 
ROOT
HETATM    1  C   UNL     1       4.684  29.222  54.966  1.00  0.00     0.069 A 
HETATM    2  C   UNL     1       5.713  28.497  55.575  1.00  0.00     0.053 A 
HETATM    3  C   UNL     1       6.408  29.101  56.611  1.00  0.00     0.029 A 
HETATM    4  C   UNL     1       7.522  28.654  57.462  1.00  0.00     0.157 A 
HETATM    5  C   UNL     1       7.691  29.751  58.536  1.00  0.00     0.277 A 
HETATM    6  O   UNL     1       8.467  29.746  59.465  1.00  0.00    -0.266 OA
HETATM    7  N   UNL     1       8.302  27.621  57.434  1.00  0.00    -0.166 NA
HETATM    8  C   UNL     1       6.044  30.365  57.084  1.00  0.00     0.048 A 
HETATM    9  N   UNL     1       6.794  30.736  58.192  1.00  0.00    -0.321 N 
HETATM   10  C   UNL     1       5.027  31.094  56.507  1.00  0.00     0.033 A 
HETATM   11  C   UNL     1       4.355  30.513  55.429  1.00  0.00     0.039 A 
HETATM   12  H   UNL     1       6.690  31.585  58.728  1.00  0.00     0.169 HD
ENDROOT
BRANCH   7  13
HETATM   13  N   UNL     1       8.256  26.775  56.370  1.00  0.00    -0.242 N 
HETATM   14  C   UNL     1       7.573  25.572  56.474  1.00  0.00     0.274 C 
HETATM   15  O   UNL     1       6.856  25.242  57.417  1.00  0.00    -0.266 OA
HETATM   16  H   UNL     1       8.852  26.973  55.583  1.00  0.00     0.192 HD
BRANCH  14  17
HETATM   17  C   UNL     1       7.660  24.650  55.305  1.00  0.00     0.068 A 
HETATM   18  C   UNL     1       7.671  25.191  54.007  1.00  0.00     0.081 A 
HETATM   19  C   UNL     1       7.800  24.367  52.890  1.00  0.00     0.039 A 
HETATM   20  C   UNL     1       7.908  22.987  53.050  1.00  0.00     0.022 A 
HETATM   21  C   UNL     1       7.870  22.440  54.331  1.00  0.00     0.012 A 
HETATM   22 BR   UNL     1       8.005  20.567  54.553  1.00  0.00    -0.051 Br
HETATM   23  C   UNL     1       7.738  23.257  55.457  1.00  0.00     0.039 A 
BRANCH  18  24
HETATM   24  O   UNL     1       7.564  26.532  53.752  1.00  0.00    -0.360 OA
HETATM   25  H   UNL     1       6.605  26.761  53.718  1.00  0.00     0.217 HD
ENDBRANCH  18  24
ENDBRANCH  14  17
ENDBRANCH   7  13
BRANCH   1  26
HETATM   26  O   UNL     1       3.912  28.787  53.923  1.00  0.00    -0.356 OA
HETATM   27  C   UNL     1       4.309  27.587  53.270  1.00  0.00     0.210 C 
ENDBRANCH   1  26
TORSDOF 4
ENDMDL
MODEL 6
REMARK VINA RESULT:      -8.2      5.512      8.219
REMARK  4 active torsions:
REMARK  status: ('A' for Active; 'I' for Inactive)
REMARK    1  A    between atoms: O_2  and  C_3 
REMARK    2  A    between atoms: N_9  and  N_10 
REMARK       I    between atoms: N_10  and  C_11 
REMARK    3  A    between atoms: C_11  and  C_12 
REMARK    4  A    between atoms: C_13  and  O_14 
ROOT
HETATM    1  C   UNL     1       7.634  26.372  57.081  1.00  0.00     0.069 A 
HETATM    2  C   UNL     1       6.975  27.565  57.395  1.00  0.00     0.053 A 
HETATM    3  C   UNL     1       6.348  28.250  56.366  1.00  0.00     0.029 A 
HETATM    4  C   UNL     1       5.580  29.505  56.323  1.00  0.00     0.157 A 
HETATM    5  C   UNL     1       5.012  29.595  54.889  1.00  0.00     0.277 A 
HETATM    6  O   UNL     1       4.277  30.451  54.452  1.00  0.00    -0.266 OA
HETATM    7  N   UNL     1       5.358  30.440  57.190  1.00  0.00    -0.166 NA
HETATM    8  C   UNL     1       6.309  27.729  55.070  1.00  0.00     0.048 A 
HETATM    9  N   UNL     1       5.541  28.514  54.221  1.00  0.00    -0.321 N 
HETATM   10  C   UNL     1       6.942  26.550  54.739  1.00  0.00     0.033 A 
HETATM   11  C   UNL     1       7.619  25.879  55.760  1.00  0.00     0.039 A 
HETATM   12  H   UNL     1       5.335  28.324  53.251  1.00  0.00     0.169 HD
ENDROOT
BRANCH   7  13
HETATM   13  N   UNL     1       6.026  30.429  58.374  1.00  0.00    -0.242 N 
HETATM   14  C   UNL     1       6.511  31.616  58.904  1.00  0.00     0.274 C 
HETATM   15  O   UNL     1       6.266  32.740  58.468  1.00  0.00    -0.266 OA
HETATM   16  H   UNL     1       6.289  29.537  58.761  1.00  0.00     0.192 HD
BRANCH  14  17
HETATM   17  C   UNL     1       7.328  31.509  60.147  1.00  0.00     0.068 A 
HETATM   18  C   UNL     1       8.443  30.654  60.161  1.00  0.00     0.081 A 
HETATM   19  C   UNL     1       9.261  30.561  61.286  1.00  0.00     0.039 A 
HETATM   20  C   UNL     1       8.970  31.314  62.423  1.00  0.00     0.022 A 
HETATM   21  C   UNL     1       7.850  32.144  62.427  1.00  0.00     0.012 A 
HETATM   22 BR   UNL     1       7.445  33.159  63.970  1.00  0.00    -0.051 Br
HETATM   23  C   UNL     1       7.023  32.241  61.305  1.00  0.00     0.039 A 
BRANCH  18  24
HETATM   24  O   UNL     1       8.803  29.871  59.096  1.00  0.00    -0.360 OA
HETATM   25  H   UNL     1       9.643  30.228  58.724  1.00  0.00     0.217 HD
ENDBRANCH  18  24
ENDBRANCH  14  17
ENDBRANCH   7  13
BRANCH   1  26
HETATM   26  O   UNL     1       8.317  25.582  57.966  1.00  0.00    -0.356 OA
HETATM   27  C   UNL     1       8.853  24.360  57.473  1.00  0.00     0.210 C 
ENDBRANCH   1  26
TORSDOF 4
ENDMDL
MODEL 7
REMARK VINA RESULT:      -8.1      1.934      4.036
REMARK  4 active torsions:
REMARK  status: ('A' for Active; 'I' for Inactive)
REMARK    1  A    between atoms: O_2  and  C_3 
REMARK    2  A    between atoms: N_9  and  N_10 
REMARK       I    between atoms: N_10  and  C_11 
REMARK    3  A    between atoms: C_11  and  C_12 
REMARK    4  A    between atoms: C_13  and  O_14 
ROOT
HETATM    1  C   UNL     1       7.524  26.144  56.528  1.00  0.00     0.069 A 
HETATM    2  C   UNL     1       7.293  25.635  55.247  1.00  0.00     0.053 A 
HETATM    3  C   UNL     1       7.920  24.448  54.898  1.00  0.00     0.029 A 
HETATM    4  C   UNL     1       7.912  23.638  53.669  1.00  0.00     0.157 A 
HETATM    5  C   UNL     1       8.681  22.345  54.020  1.00  0.00     0.277 A 
HETATM    6  O   UNL     1       8.859  21.387  53.301  1.00  0.00    -0.266 OA
HETATM    7  N   UNL     1       7.438  23.832  52.480  1.00  0.00    -0.166 NA
HETATM    8  C   UNL     1       8.695  23.743  55.821  1.00  0.00     0.048 A 
HETATM    9  N   UNL     1       9.138  22.532  55.305  1.00  0.00    -0.321 N 
HETATM   10  C   UNL     1       8.929  24.219  57.093  1.00  0.00     0.033 A 
HETATM   11  C   UNL     1       8.343  25.440  57.436  1.00  0.00     0.039 A 
HETATM   12  H   UNL     1       9.681  21.835  55.793  1.00  0.00     0.169 HD
ENDROOT
BRANCH   7  13
HETATM   13  N   UNL     1       6.939  25.052  52.148  1.00  0.00    -0.242 N 
HETATM   14  C   UNL     1       5.568  25.260  52.150  1.00  0.00     0.274 C 
HETATM   15  O   UNL     1       4.730  24.466  52.575  1.00  0.00    -0.266 OA
HETATM   16  H   UNL     1       7.571  25.732  51.758  1.00  0.00     0.192 HD
BRANCH  14  17
HETATM   17  C   UNL     1       5.092  26.590  51.669  1.00  0.00     0.068 A 
HETATM   18  C   UNL     1       4.499  27.476  52.585  1.00  0.00     0.081 A 
HETATM   19  C   UNL     1       4.085  28.746  52.187  1.00  0.00     0.039 A 
HETATM   20  C   UNL     1       4.245  29.148  50.862  1.00  0.00     0.022 A 
HETATM   21  C   UNL     1       4.806  28.265  49.941  1.00  0.00     0.012 A 
HETATM   22 BR   UNL     1       5.015  28.802  48.140  1.00  0.00    -0.051 Br
HETATM   23  C   UNL     1       5.221  26.989  50.330  1.00  0.00     0.039 A 
BRANCH  18  24
HETATM   24  O   UNL     1       4.295  27.166  53.903  1.00  0.00    -0.360 OA
HETATM   25  H   UNL     1       3.909  26.260  53.949  1.00  0.00     0.217 HD
ENDBRANCH  18  24
ENDBRANCH  14  17
ENDBRANCH   7  13
BRANCH   1  26
HETATM   26  O   UNL     1       7.004  27.307  57.029  1.00  0.00    -0.356 OA
HETATM   27  C   UNL     1       7.915  28.235  57.607  1.00  0.00     0.210 C 
ENDBRANCH   1  26
TORSDOF 4
ENDMDL
MODEL 8
REMARK VINA RESULT:      -8.1      4.181      6.306
REMARK  4 active torsions:
REMARK  status: ('A' for Active; 'I' for Inactive)
REMARK    1  A    between atoms: O_2  and  C_3 
REMARK    2  A    between atoms: N_9  and  N_10 
REMARK       I    between atoms: N_10  and  C_11 
REMARK    3  A    between atoms: C_11  and  C_12 
REMARK    4  A    between atoms: C_13  and  O_14 
ROOT
HETATM    1  C   UNL     1       7.635  24.873  54.868  1.00  0.00     0.069 A 
HETATM    2  C   UNL     1       7.162  26.181  55.013  1.00  0.00     0.053 A 
HETATM    3  C   UNL     1       6.051  26.555  54.272  1.00  0.00     0.029 A 
HETATM    4  C   UNL     1       5.297  27.815  54.171  1.00  0.00     0.157 A 
HETATM    5  C   UNL     1       4.064  27.490  53.298  1.00  0.00     0.277 A 
HETATM    6  O   UNL     1       3.157  28.240  53.014  1.00  0.00    -0.266 OA
HETATM    7  N   UNL     1       5.498  29.011  54.624  1.00  0.00    -0.166 NA
HETATM    8  C   UNL     1       5.379  25.636  53.464  1.00  0.00     0.048 A 
HETATM    9  N   UNL     1       4.236  26.185  52.899  1.00  0.00    -0.321 N 
HETATM   10  C   UNL     1       5.820  24.339  53.312  1.00  0.00     0.033 A 
HETATM   11  C   UNL     1       6.968  23.967  54.016  1.00  0.00     0.039 A 
HETATM   12  H   UNL     1       3.570  25.706  52.310  1.00  0.00     0.169 HD
ENDROOT
BRANCH   7  13
HETATM   13  N   UNL     1       6.683  29.310  55.222  1.00  0.00    -0.242 N 
HETATM   14  C   UNL     1       6.752  29.412  56.603  1.00  0.00     0.274 C 
HETATM   15  O   UNL     1       5.851  29.108  57.384  1.00  0.00    -0.266 OA
HETATM   16  H   UNL     1       7.447  29.603  54.636  1.00  0.00     0.192 HD
BRANCH  14  17
HETATM   17  C   UNL     1       8.057  29.851  57.177  1.00  0.00     0.068 A 
HETATM   18  C   UNL     1       9.238  29.610  56.454  1.00  0.00     0.081 A 
HETATM   19  C   UNL     1      10.472  30.047  56.932  1.00  0.00     0.039 A 
HETATM   20  C   UNL     1      10.549  30.722  58.149  1.00  0.00     0.022 A 
HETATM   21  C   UNL     1       9.386  30.941  58.886  1.00  0.00     0.012 A 
HETATM   22 BR   UNL     1       9.487  31.846  60.543  1.00  0.00    -0.051 Br
HETATM   23  C   UNL     1       8.145  30.504  58.416  1.00  0.00     0.039 A 
BRANCH  18  24
HETATM   24  O   UNL     1       9.261  28.950  55.254  1.00  0.00    -0.360 OA
HETATM   25  H   UNL     1       8.580  28.237  55.283  1.00  0.00     0.217 HD
ENDBRANCH  18  24
ENDBRANCH  14  17
ENDBRANCH   7  13
BRANCH   1  26
HETATM   26  O   UNL     1       8.724  24.344  55.505  1.00  0.00    -0.356 OA
HETATM   27  C   UNL     1       8.639  22.989  55.932  1.00  0.00     0.210 C 
ENDBRANCH   1  26
TORSDOF 4
ENDMDL
MODEL 9
REMARK VINA RESULT:      -8.1      2.857      5.010
REMARK  4 active torsions:
REMARK  status: ('A' for Active; 'I' for Inactive)
REMARK    1  A    between atoms: O_2  and  C_3 
REMARK    2  A    between atoms: N_9  and  N_10 
REMARK       I    between atoms: N_10  and  C_11 
REMARK    3  A    between atoms: C_11  and  C_12 
REMARK    4  A    between atoms: C_13  and  O_14 
ROOT
HETATM    1  C   UNL     1       7.173  25.226  52.731  1.00  0.00     0.069 A 
HETATM    2  C   UNL     1       7.251  25.414  54.115  1.00  0.00     0.053 A 
HETATM    3  C   UNL     1       7.530  24.309  54.905  1.00  0.00     0.029 A 
HETATM    4  C   UNL     1       7.683  24.134  56.359  1.00  0.00     0.157 A 
HETATM    5  C   UNL     1       8.169  22.680  56.551  1.00  0.00     0.277 A 
HETATM    6  O   UNL     1       8.468  22.147  57.596  1.00  0.00    -0.266 OA
HETATM    7  N   UNL     1       7.473  24.909  57.374  1.00  0.00    -0.166 NA
HETATM    8  C   UNL     1       7.801  23.063  54.334  1.00  0.00     0.048 A 
HETATM    9  N   UNL     1       8.163  22.125  55.292  1.00  0.00    -0.321 N 
HETATM   10  C   UNL     1       7.741  22.856  52.973  1.00  0.00     0.033 A 
HETATM   11  C   UNL     1       7.409  23.952  52.174  1.00  0.00     0.039 A 
HETATM   12  H   UNL     1       8.439  21.170  55.120  1.00  0.00     0.169 HD
ENDROOT
BRANCH   7  13
HETATM   13  N   UNL     1       6.865  26.110  57.186  1.00  0.00    -0.242 N 
HETATM   14  C   UNL     1       7.604  27.280  57.277  1.00  0.00     0.274 C 
HETATM   15  O   UNL     1       8.829  27.339  57.371  1.00  0.00    -0.266 OA
HETATM   16  H   UNL     1       5.859  26.129  57.140  1.00  0.00     0.192 HD
BRANCH  14  17
HETATM   17  C   UNL     1       6.847  28.560  57.168  1.00  0.00     0.068 A 
HETATM   18  C   UNL     1       7.093  29.581  58.102  1.00  0.00     0.081 A 
HETATM   19  C   UNL     1       6.443  30.810  58.008  1.00  0.00     0.039 A 
HETATM   20  C   UNL     1       5.524  31.036  56.983  1.00  0.00     0.022 A 
HETATM   21  C   UNL     1       5.254  30.019  56.069  1.00  0.00     0.012 A 
HETATM   22 BR   UNL     1       4.001  30.317  54.685  1.00  0.00    -0.051 Br
HETATM   23  C   UNL     1       5.899  28.783  56.158  1.00  0.00     0.039 A 
BRANCH  18  24
HETATM   24  O   UNL     1       7.971  29.449  59.145  1.00  0.00    -0.360 OA
HETATM   25  H   UNL     1       7.850  30.220  59.747  1.00  0.00     0.217 HD
ENDBRANCH  18  24
ENDBRANCH  14  17
ENDBRANCH   7  13
BRANCH   1  26
HETATM   26  O   UNL     1       6.889  26.197  51.810  1.00  0.00    -0.356 OA
HETATM   27  C   UNL     1       5.517  26.473  51.551  1.00  0.00     0.210 C 
ENDBRANCH   1  26
TORSDOF 4
ENDMDL
MODEL 10
REMARK VINA RESULT:      -8.0      3.087      6.641
REMARK  4 active torsions:
REMARK  status: ('A' for Active; 'I' for Inactive)
REMARK    1  A    between atoms: O_2  and  C_3 
REMARK    2  A    between atoms: N_9  and  N_10 
REMARK       I    between atoms: N_10  and  C_11 
REMARK    3  A    between atoms: C_11  and  C_12 
REMARK    4  A    between atoms: C_13  and  O_14 
ROOT
HETATM    1  C   UNL     1       4.698  27.229  50.384  1.00  0.00     0.069 A 
HETATM    2  C   UNL     1       4.856  26.972  51.750  1.00  0.00     0.053 A 
HETATM    3  C   UNL     1       4.879  28.055  52.615  1.00  0.00     0.029 A 
HETATM    4  C   UNL     1       5.025  28.164  54.076  1.00  0.00     0.157 A 
HETATM    5  C   UNL     1       4.781  29.652  54.407  1.00  0.00     0.277 A 
HETATM    6  O   UNL     1       4.757  30.157  55.507  1.00  0.00    -0.266 OA
HETATM    7  N   UNL     1       5.317  27.311  55.006  1.00  0.00    -0.166 NA
HETATM    8  C   UNL     1       4.673  29.356  52.150  1.00  0.00     0.048 A 
HETATM    9  N   UNL     1       4.624  30.274  53.190  1.00  0.00    -0.321 N 
HETATM   10  C   UNL     1       4.504  29.633  50.810  1.00  0.00     0.033 A 
HETATM   11  C   UNL     1       4.532  28.553  49.925  1.00  0.00     0.039 A 
HETATM   12  H   UNL     1       4.450  31.265  53.107  1.00  0.00     0.169 HD
ENDROOT
BRANCH   7  13
HETATM   13  N   UNL     1       5.715  26.056  54.663  1.00  0.00    -0.242 N 
HETATM   14  C   UNL     1       6.908  25.552  55.158  1.00  0.00     0.274 C 
HETATM   15  O   UNL     1       7.601  26.087  56.023  1.00  0.00    -0.266 OA
HETATM   16  H   UNL     1       5.209  25.583  53.933  1.00  0.00     0.192 HD
BRANCH  14  17
HETATM   17  C   UNL     1       7.331  24.214  54.651  1.00  0.00     0.068 A 
HETATM   18  C   UNL     1       7.662  24.072  53.293  1.00  0.00     0.081 A 
HETATM   19  C   UNL     1       8.109  22.851  52.789  1.00  0.00     0.039 A 
HETATM   20  C   UNL     1       8.219  21.747  53.633  1.00  0.00     0.022 A 
HETATM   21  C   UNL     1       7.866  21.873  54.975  1.00  0.00     0.012 A 
HETATM   22 BR   UNL     1       8.004  20.375  56.122  1.00  0.00    -0.051 Br
HETATM   23  C   UNL     1       7.415  23.092  55.489  1.00  0.00     0.039 A 
BRANCH  18  24
HETATM   24  O   UNL     1       7.578  25.097  52.388  1.00  0.00    -0.360 OA
HETATM   25  H   UNL     1       7.866  25.926  52.837  1.00  0.00     0.217 HD
ENDBRANCH  18  24
ENDBRANCH  14  17
ENDBRANCH   7  13
BRANCH   1  26
HETATM   26  O   UNL     1       4.672  26.285  49.393  1.00  0.00    -0.356 OA
HETATM   27  C   UNL     1       3.657  26.402  48.404  1.00  0.00     0.210 C 
ENDBRANCH   1  26
TORSDOF 4
ENDMDL
