MODEL 1
REMARK VINA RESULT:      -9.9      0.000      0.000
REMARK  6 active torsions:
REMARK  status: ('A' for Active; 'I' for Inactive)
REMARK    1  A    between atoms: O_2  and  C_3 
REMARK    2  A    between atoms: C_5  and  C_6 
REMARK    3  A    between atoms: C_12  and  C_13 
REMARK       I    between atoms: C_13  and  N_14 
REMARK    4  A    between atoms: N_14  and  C_15 
REMARK    5  A    between atoms: C_15  and  C_16 
REMARK    6  A    between atoms: C_23  and  C_24 
ROOT
HETATM    1  C   UNL     1       6.974  24.156  54.765  1.00  0.00     0.118 C 
HETATM    2  N   UNL     1       7.343  25.260  55.655  1.00  0.00    -0.365 N 
HETATM    3  C   UNL     1       7.306  26.548  55.220  1.00  0.00     0.138 A 
HETATM    4  N   UNL     1       7.016  26.836  53.906  1.00  0.00    -0.240 N 
HETATM    5  N   UNL     1       7.151  28.131  53.585  1.00  0.00    -0.181 NA
HETATM    6  C   UNL     1       7.457  28.700  54.753  1.00  0.00     0.160 A 
HETATM    7  C   UNL     1       7.553  27.770  55.821  1.00  0.00     0.096 A 
HETATM    8  C   UNL     1       6.751  25.840  52.885  1.00  0.00     0.221 C 
HETATM    9  C   UNL     1       7.356  24.493  53.313  1.00  0.00     0.066 C 
HETATM   10  H   UNL     1       7.938  24.992  56.440  1.00  0.00     0.161 HD
ENDROOT
BRANCH   7  11
HETATM   11  C   UNL     1       7.857  28.105  57.199  1.00  0.00     0.257 C 
HETATM   12  N   UNL     1       8.150  29.427  57.434  1.00  0.00    -0.352 N 
HETATM   13  H   UNL     1       8.290  30.030  56.633  1.00  0.00     0.163 HD
HETATM   14  O   UNL     1       7.882  27.248  58.076  1.00  0.00    -0.267 OA
BRANCH  12  15
HETATM   15  C   UNL     1       8.586  29.889  58.732  1.00  0.00     0.161 C 
BRANCH  15  16
HETATM   16  C   UNL     1       7.688  30.956  59.306  1.00  0.00    -0.041 A 
HETATM   17  C   UNL     1       6.618  31.492  58.572  1.00  0.00     0.009 A 
HETATM   18  C   UNL     1       5.751  32.420  59.150  1.00  0.00     0.001 A 
HETATM   19  C   UNL     1       5.931  32.813  60.475  1.00  0.00     0.000 A 
HETATM   20  C   UNL     1       6.976  32.276  61.222  1.00  0.00     0.001 A 
HETATM   21  C   UNL     1       7.848  31.352  60.643  1.00  0.00     0.009 A 
ENDBRANCH  15  16
ENDBRANCH  12  15
ENDBRANCH   7  11
BRANCH   1  22
HETATM   22  C   UNL     1       7.581  22.865  55.280  1.00  0.00    -0.033 A 
HETATM   23  C   UNL     1       7.932  21.807  54.425  1.00  0.00     0.046 A 
HETATM   24  C   UNL     1       8.491  20.624  54.924  1.00  0.00     0.068 A 
HETATM   25  C   UNL     1       8.726  20.500  56.291  1.00  0.00     0.037 A 
HETATM   26  C   UNL     1       8.407  21.551  57.153  1.00  0.00     0.003 A 
HETATM   27  C   UNL     1       7.843  22.725  56.651  1.00  0.00     0.009 A 
BRANCH  24  28
HETATM   28  O   UNL     1       8.759  19.677  53.973  1.00  0.00    -0.356 OA
HETATM   29  C   UNL     1       8.636  20.080  52.614  1.00  0.00     0.210 C 
ENDBRANCH  24  28
ENDBRANCH   1  22
BRANCH   8  30
HETATM   30  C   UNL     1       5.265  25.762  52.616  1.00  0.00     0.409 C 
HETATM   31  F   UNL     1       4.845  24.518  52.301  1.00  0.00    -0.169 F 
HETATM   32  F   UNL     1       4.519  26.196  53.654  1.00  0.00    -0.169 F 
HETATM   33  F   UNL     1       4.948  26.556  51.558  1.00  0.00    -0.169 F 
ENDBRANCH   8  30
TORSDOF 6
ENDMDL
MODEL 2
REMARK VINA RESULT:      -9.8      3.714      7.426
REMARK  6 active torsions:
REMARK  status: ('A' for Active; 'I' for Inactive)
REMARK    1  A    between atoms: O_2  and  C_3 
REMARK    2  A    between atoms: C_5  and  C_6 
REMARK    3  A    between atoms: C_12  and  C_13 
REMARK       I    between atoms: C_13  and  N_14 
REMARK    4  A    between atoms: N_14  and  C_15 
REMARK    5  A    between atoms: C_15  and  C_16 
REMARK    6  A    between atoms: C_23  and  C_24 
ROOT
HETATM    1  C   UNL     1       6.905  25.083  54.879  1.00  0.00     0.118 C 
HETATM    2  N   UNL     1       6.373  25.775  53.703  1.00  0.00    -0.365 N 
HETATM    3  C   UNL     1       5.560  26.857  53.838  1.00  0.00     0.138 A 
HETATM    4  N   UNL     1       5.140  27.266  55.083  1.00  0.00    -0.240 N 
HETATM    5  N   UNL     1       4.235  28.254  55.060  1.00  0.00    -0.181 NA
HETATM    6  C   UNL     1       4.136  28.541  53.759  1.00  0.00     0.160 A 
HETATM    7  C   UNL     1       4.951  27.716  52.941  1.00  0.00     0.096 A 
HETATM    8  C   UNL     1       5.487  26.604  56.327  1.00  0.00     0.221 C 
HETATM    9  C   UNL     1       5.895  25.150  56.038  1.00  0.00     0.066 C 
HETATM   10  H   UNL     1       6.352  25.211  52.852  1.00  0.00     0.161 HD
ENDROOT
BRANCH   7  11
HETATM   11  C   UNL     1       5.056  27.810  51.497  1.00  0.00     0.257 C 
HETATM   12  N   UNL     1       4.584  26.725  50.800  1.00  0.00    -0.352 N 
HETATM   13  H   UNL     1       4.352  25.890  51.324  1.00  0.00     0.163 HD
HETATM   14  O   UNL     1       5.566  28.785  50.955  1.00  0.00    -0.267 OA
BRANCH  12  15
HETATM   15  C   UNL     1       4.727  26.623  49.366  1.00  0.00     0.161 C 
BRANCH  15  16
HETATM   16  C   UNL     1       3.422  26.806  48.632  1.00  0.00    -0.041 A 
HETATM   17  C   UNL     1       2.527  27.835  48.966  1.00  0.00     0.009 A 
HETATM   18  C   UNL     1       1.363  28.035  48.224  1.00  0.00     0.001 A 
HETATM   19  C   UNL     1       1.085  27.222  47.127  1.00  0.00     0.000 A 
HETATM   20  C   UNL     1       1.971  26.209  46.772  1.00  0.00     0.001 A 
HETATM   21  C   UNL     1       3.134  26.003  47.517  1.00  0.00     0.009 A 
ENDBRANCH  15  16
ENDBRANCH  12  15
ENDBRANCH   7  11
BRANCH   1  22
HETATM   22  C   UNL     1       7.314  23.673  54.497  1.00  0.00    -0.033 A 
HETATM   23  C   UNL     1       7.534  22.669  55.455  1.00  0.00     0.046 A 
HETATM   24  C   UNL     1       7.912  21.374  55.078  1.00  0.00     0.068 A 
HETATM   25  C   UNL     1       8.051  21.067  53.727  1.00  0.00     0.037 A 
HETATM   26  C   UNL     1       7.812  22.045  52.760  1.00  0.00     0.003 A 
HETATM   27  C   UNL     1       7.443  23.336  53.141  1.00  0.00     0.009 A 
BRANCH  24  28
HETATM   28  O   UNL     1       8.111  20.514  56.123  1.00  0.00    -0.356 OA
HETATM   29  C   UNL     1       8.438  21.095  57.380  1.00  0.00     0.210 C 
ENDBRANCH  24  28
ENDBRANCH   1  22
BRANCH   8  30
HETATM   30  C   UNL     1       6.562  27.389  57.044  1.00  0.00     0.409 C 
HETATM   31  F   UNL     1       6.072  28.393  57.803  1.00  0.00    -0.169 F 
HETATM   32  F   UNL     1       7.336  26.617  57.836  1.00  0.00    -0.169 F 
HETATM   33  F   UNL     1       7.395  27.963  56.136  1.00  0.00    -0.169 F 
ENDBRANCH   8  30
TORSDOF 6
ENDMDL
MODEL 3
REMARK VINA RESULT:      -9.7      3.607      7.151
REMARK  6 active torsions:
REMARK  status: ('A' for Active; 'I' for Inactive)
REMARK    1  A    between atoms: O_2  and  C_3 
REMARK    2  A    between atoms: C_5  and  C_6 
REMARK    3  A    between atoms: C_12  and  C_13 
REMARK       I    between atoms: C_13  and  N_14 
REMARK    4  A    between atoms: N_14  and  C_15 
REMARK    5  A    between atoms: C_15  and  C_16 
REMARK    6  A    between atoms: C_23  and  C_24 
ROOT
HETATM    1  C   UNL     1       7.157  24.742  55.734  1.00  0.00     0.118 C 
HETATM    2  N   UNL     1       6.688  25.046  54.380  1.00  0.00    -0.365 N 
HETATM    3  C   UNL     1       5.884  26.118  54.144  1.00  0.00     0.138 A 
HETATM    4  N   UNL     1       5.414  26.883  55.187  1.00  0.00    -0.240 N 
HETATM    5  N   UNL     1       4.523  27.817  54.825  1.00  0.00    -0.181 NA
HETATM    6  C   UNL     1       4.487  27.698  53.495  1.00  0.00     0.160 A 
HETATM    7  C   UNL     1       5.328  26.666  53.003  1.00  0.00     0.096 A 
HETATM    8  C   UNL     1       5.695  26.627  56.587  1.00  0.00     0.221 C 
HETATM    9  C   UNL     1       6.096  25.153  56.770  1.00  0.00     0.066 C 
HETATM   10  H   UNL     1       6.698  24.252  53.738  1.00  0.00     0.161 HD
ENDROOT
BRANCH   7  11
HETATM   11  C   UNL     1       5.499  26.321  51.604  1.00  0.00     0.257 C 
HETATM   12  N   UNL     1       4.579  26.871  50.744  1.00  0.00    -0.352 N 
HETATM   13  H   UNL     1       3.773  27.333  51.145  1.00  0.00     0.163 HD
HETATM   14  O   UNL     1       6.388  25.560  51.237  1.00  0.00    -0.267 OA
BRANCH  12  15
HETATM   15  C   UNL     1       4.550  26.526  49.341  1.00  0.00     0.161 C 
BRANCH  15  16
HETATM   16  C   UNL     1       3.319  27.039  48.637  1.00  0.00    -0.041 A 
HETATM   17  C   UNL     1       2.782  26.382  47.519  1.00  0.00     0.009 A 
HETATM   18  C   UNL     1       1.598  26.828  46.931  1.00  0.00     0.001 A 
HETATM   19  C   UNL     1       0.925  27.926  47.462  1.00  0.00     0.000 A 
HETATM   20  C   UNL     1       1.435  28.578  48.582  1.00  0.00     0.001 A 
HETATM   21  C   UNL     1       2.623  28.137  49.168  1.00  0.00     0.009 A 
ENDBRANCH  15  16
ENDBRANCH  12  15
ENDBRANCH   7  11
BRANCH   1  22
HETATM   22  C   UNL     1       7.564  23.283  55.813  1.00  0.00    -0.033 A 
HETATM   23  C   UNL     1       7.429  22.404  54.726  1.00  0.00     0.046 A 
HETATM   24  C   UNL     1       7.812  21.061  54.823  1.00  0.00     0.068 A 
HETATM   25  C   UNL     1       8.360  20.589  56.014  1.00  0.00     0.037 A 
HETATM   26  C   UNL     1       8.525  21.454  57.097  1.00  0.00     0.003 A 
HETATM   27  C   UNL     1       8.135  22.790  56.997  1.00  0.00     0.009 A 
BRANCH  24  28
HETATM   28  O   UNL     1       7.599  20.326  53.689  1.00  0.00    -0.356 OA
HETATM   29  C   UNL     1       8.625  20.353  52.704  1.00  0.00     0.210 C 
ENDBRANCH  24  28
ENDBRANCH   1  22
BRANCH   8  30
HETATM   30  C   UNL     1       6.747  27.592  57.085  1.00  0.00     0.409 C 
HETATM   31  F   UNL     1       7.616  27.032  57.954  1.00  0.00    -0.169 F 
HETATM   32  F   UNL     1       7.466  28.147  56.086  1.00  0.00    -0.169 F 
HETATM   33  F   UNL     1       6.151  28.620  57.745  1.00  0.00    -0.169 F 
ENDBRANCH   8  30
TORSDOF 6
ENDMDL
MODEL 4
REMARK VINA RESULT:      -9.7      1.465      2.409
REMARK  6 active torsions:
REMARK  status: ('A' for Active; 'I' for Inactive)
REMARK    1  A    between atoms: O_2  and  C_3 
REMARK    2  A    between atoms: C_5  and  C_6 
REMARK    3  A    between atoms: C_12  and  C_13 
REMARK       I    between atoms: C_13  and  N_14 
REMARK    4  A    between atoms: N_14  and  C_15 
REMARK    5  A    between atoms: C_15  and  C_16 
REMARK    6  A    between atoms: C_23  and  C_24 
ROOT
HETATM    1  C   UNL     1       6.875  23.759  53.421  1.00  0.00     0.118 C 
HETATM    2  N   UNL     1       7.066  24.707  54.520  1.00  0.00    -0.365 N 
HETATM    3  C   UNL     1       6.951  26.047  54.314  1.00  0.00     0.138 A 
HETATM    4  N   UNL     1       6.749  26.545  53.047  1.00  0.00    -0.240 N 
HETATM    5  N   UNL     1       6.794  27.883  52.970  1.00  0.00    -0.181 NA
HETATM    6  C   UNL     1       6.948  28.252  54.244  1.00  0.00     0.160 A 
HETATM    7  C   UNL     1       7.035  27.154  55.138  1.00  0.00     0.096 A 
HETATM    8  C   UNL     1       6.663  25.733  51.848  1.00  0.00     0.221 C 
HETATM    9  C   UNL     1       7.348  24.379  52.094  1.00  0.00     0.066 C 
HETATM   10  H   UNL     1       7.614  24.346  55.303  1.00  0.00     0.161 HD
ENDROOT
BRANCH   7  11
HETATM   11  C   UNL     1       7.189  27.256  56.577  1.00  0.00     0.257 C 
HETATM   12  N   UNL     1       7.191  28.534  57.081  1.00  0.00    -0.352 N 
HETATM   13  H   UNL     1       7.247  29.302  56.424  1.00  0.00     0.163 HD
HETATM   14  O   UNL     1       7.342  26.260  57.277  1.00  0.00    -0.267 OA
BRANCH  12  15
HETATM   15  C   UNL     1       7.453  28.800  58.477  1.00  0.00     0.161 C 
BRANCH  15  16
HETATM   16  C   UNL     1       8.476  29.889  58.685  1.00  0.00    -0.041 A 
HETATM   17  C   UNL     1       9.510  30.114  57.762  1.00  0.00     0.009 A 
HETATM   18  C   UNL     1      10.398  31.177  57.933  1.00  0.00     0.001 A 
HETATM   19  C   UNL     1      10.254  32.040  59.017  1.00  0.00     0.000 A 
HETATM   20  C   UNL     1       9.222  31.842  59.931  1.00  0.00     0.001 A 
HETATM   21  C   UNL     1       8.337  30.775  59.765  1.00  0.00     0.009 A 
ENDBRANCH  15  16
ENDBRANCH  12  15
ENDBRANCH   7  11
BRANCH   1  22
HETATM   22  C   UNL     1       7.550  22.443  53.762  1.00  0.00    -0.033 A 
HETATM   23  C   UNL     1       7.726  22.011  55.087  1.00  0.00     0.046 A 
HETATM   24  C   UNL     1       8.352  20.793  55.379  1.00  0.00     0.068 A 
HETATM   25  C   UNL     1       8.789  19.981  54.335  1.00  0.00     0.037 A 
HETATM   26  C   UNL     1       8.601  20.383  53.011  1.00  0.00     0.003 A 
HETATM   27  C   UNL     1       7.983  21.601  52.727  1.00  0.00     0.009 A 
BRANCH  24  28
HETATM   28  O   UNL     1       8.469  20.520  56.714  1.00  0.00    -0.356 OA
HETATM   29  C   UNL     1       8.361  21.622  57.607  1.00  0.00     0.210 C 
ENDBRANCH  24  28
ENDBRANCH   1  22
BRANCH   8  30
HETATM   30  C   UNL     1       5.218  25.597  51.422  1.00  0.00     0.409 C 
HETATM   31  F   UNL     1       5.027  25.827  50.105  1.00  0.00    -0.169 F 
HETATM   32  F   UNL     1       4.699  24.384  51.706  1.00  0.00    -0.169 F 
HETATM   33  F   UNL     1       4.456  26.505  52.087  1.00  0.00    -0.169 F 
ENDBRANCH   8  30
TORSDOF 6
ENDMDL
MODEL 5
REMARK VINA RESULT:      -9.4      3.504      6.929
REMARK  6 active torsions:
REMARK  status: ('A' for Active; 'I' for Inactive)
REMARK    1  A    between atoms: O_2  and  C_3 
REMARK    2  A    between atoms: C_5  and  C_6 
REMARK    3  A    between atoms: C_12  and  C_13 
REMARK       I    between atoms: C_13  and  N_14 
REMARK    4  A    between atoms: N_14  and  C_15 
REMARK    5  A    between atoms: C_15  and  C_16 
REMARK    6  A    between atoms: C_23  and  C_24 
ROOT
HETATM    1  C   UNL     1       7.313  26.340  55.129  1.00  0.00     0.118 C 
HETATM    2  N   UNL     1       6.442  27.164  54.287  1.00  0.00    -0.365 N 
HETATM    3  C   UNL     1       5.788  28.240  54.801  1.00  0.00     0.138 A 
HETATM    4  N   UNL     1       5.854  28.521  56.147  1.00  0.00    -0.240 N 
HETATM    5  N   UNL     1       5.054  29.523  56.538  1.00  0.00    -0.181 NA
HETATM    6  C   UNL     1       4.522  29.949  55.389  1.00  0.00     0.160 A 
HETATM    7  C   UNL     1       4.952  29.201  54.263  1.00  0.00     0.096 A 
HETATM    8  C   UNL     1       6.578  27.724  57.119  1.00  0.00     0.221 C 
HETATM    9  C   UNL     1       6.778  26.301  56.571  1.00  0.00     0.066 C 
HETATM   10  H   UNL     1       6.093  26.694  53.449  1.00  0.00     0.161 HD
ENDROOT
BRANCH   7  11
HETATM   11  C   UNL     1       4.549  29.447  52.891  1.00  0.00     0.257 C 
HETATM   12  N   UNL     1       5.570  29.464  51.971  1.00  0.00    -0.352 N 
HETATM   13  H   UNL     1       6.520  29.467  52.318  1.00  0.00     0.163 HD
HETATM   14  O   UNL     1       3.378  29.659  52.596  1.00  0.00    -0.267 OA
BRANCH  12  15
HETATM   15  C   UNL     1       5.339  29.812  50.587  1.00  0.00     0.161 C 
BRANCH  15  16
HETATM   16  C   UNL     1       5.152  28.604  49.703  1.00  0.00    -0.041 A 
HETATM   17  C   UNL     1       4.821  27.348  50.233  1.00  0.00     0.009 A 
HETATM   18  C   UNL     1       4.576  26.262  49.391  1.00  0.00     0.001 A 
HETATM   19  C   UNL     1       4.641  26.421  48.009  1.00  0.00     0.000 A 
HETATM   20  C   UNL     1       4.950  27.666  47.467  1.00  0.00     0.001 A 
HETATM   21  C   UNL     1       5.202  28.752  48.308  1.00  0.00     0.009 A 
ENDBRANCH  15  16
ENDBRANCH  12  15
ENDBRANCH   7  11
BRANCH   1  22
HETATM   22  C   UNL     1       7.484  24.972  54.496  1.00  0.00    -0.033 A 
HETATM   23  C   UNL     1       7.409  23.785  55.243  1.00  0.00     0.046 A 
HETATM   24  C   UNL     1       7.571  22.532  54.638  1.00  0.00     0.068 A 
HETATM   25  C   UNL     1       7.787  22.459  53.263  1.00  0.00     0.037 A 
HETATM   26  C   UNL     1       7.839  23.627  52.501  1.00  0.00     0.003 A 
HETATM   27  C   UNL     1       7.686  24.873  53.111  1.00  0.00     0.009 A 
BRANCH  24  28
HETATM   28  O   UNL     1       7.493  21.471  55.498  1.00  0.00    -0.356 OA
HETATM   29  C   UNL     1       8.533  21.349  56.462  1.00  0.00     0.210 C 
ENDBRANCH  24  28
ENDBRANCH   1  22
BRANCH   8  30
HETATM   30  C   UNL     1       7.877  28.407  57.480  1.00  0.00     0.409 C 
HETATM   31  F   UNL     1       7.849  28.999  58.693  1.00  0.00    -0.169 F 
HETATM   32  F   UNL     1       8.936  27.570  57.456  1.00  0.00    -0.169 F 
HETATM   33  F   UNL     1       8.145  29.389  56.578  1.00  0.00    -0.169 F 
ENDBRANCH   8  30
TORSDOF 6
ENDMDL
MODEL 6
REMARK VINA RESULT:      -9.4      2.845      5.124
REMARK  6 active torsions:
REMARK  status: ('A' for Active; 'I' for Inactive)
REMARK    1  A    between atoms: O_2  and  C_3 
REMARK    2  A    between atoms: C_5  and  C_6 
REMARK    3  A    between atoms: C_12  and  C_13 
REMARK       I    between atoms: C_13  and  N_14 
REMARK    4  A    between atoms: N_14  and  C_15 
REMARK    5  A    between atoms: C_15  and  C_16 
REMARK    6  A    between atoms: C_23  and  C_24 
ROOT
HETATM    1  C   UNL     1       6.525  26.280  53.296  1.00  0.00     0.118 C 
HETATM    2  N   UNL     1       6.998  27.245  54.290  1.00  0.00    -0.365 N 
HETATM    3  C   UNL     1       7.181  26.878  55.587  1.00  0.00     0.138 A 
HETATM    4  N   UNL     1       6.832  25.617  56.013  1.00  0.00    -0.240 N 
HETATM    5  N   UNL     1       6.934  25.437  57.338  1.00  0.00    -0.181 NA
HETATM    6  C   UNL     1       7.444  26.597  57.760  1.00  0.00     0.160 A 
HETATM    7  C   UNL     1       7.640  27.536  56.714  1.00  0.00     0.096 A 
HETATM    8  C   UNL     1       6.238  24.597  55.168  1.00  0.00     0.221 C 
HETATM    9  C   UNL     1       5.574  25.262  53.951  1.00  0.00     0.066 C 
HETATM   10  H   UNL     1       6.836  28.223  54.044  1.00  0.00     0.161 HD
ENDROOT
BRANCH   7  11
HETATM   11  C   UNL     1       8.191  28.868  56.876  1.00  0.00     0.257 C 
HETATM   12  N   UNL     1       7.887  29.491  58.062  1.00  0.00    -0.352 N 
HETATM   13  H   UNL     1       7.188  29.063  58.657  1.00  0.00     0.163 HD
HETATM   14  O   UNL     1       8.851  29.400  55.990  1.00  0.00    -0.267 OA
BRANCH  12  15
HETATM   15  C   UNL     1       8.265  30.862  58.318  1.00  0.00     0.161 C 
BRANCH  15  16
HETATM   16  C   UNL     1       8.278  31.201  59.788  1.00  0.00    -0.041 A 
HETATM   17  C   UNL     1       9.105  30.519  60.694  1.00  0.00     0.009 A 
HETATM   18  C   UNL     1       9.161  30.901  62.035  1.00  0.00     0.001 A 
HETATM   19  C   UNL     1       8.404  31.981  62.486  1.00  0.00     0.000 A 
HETATM   20  C   UNL     1       7.592  32.679  61.596  1.00  0.00     0.001 A 
HETATM   21  C   UNL     1       7.531  32.294  60.255  1.00  0.00     0.009 A 
ENDBRANCH  15  16
ENDBRANCH  12  15
ENDBRANCH   7  11
BRANCH   1  22
HETATM   22  C   UNL     1       5.919  27.020  52.118  1.00  0.00    -0.033 A 
HETATM   23  C   UNL     1       5.342  26.351  51.026  1.00  0.00     0.046 A 
HETATM   24  C   UNL     1       4.789  27.055  49.950  1.00  0.00     0.068 A 
HETATM   25  C   UNL     1       4.791  28.448  49.970  1.00  0.00     0.037 A 
HETATM   26  C   UNL     1       5.338  29.130  51.058  1.00  0.00     0.003 A 
HETATM   27  C   UNL     1       5.894  28.423  52.124  1.00  0.00     0.009 A 
BRANCH  24  28
HETATM   28  O   UNL     1       4.284  26.266  48.953  1.00  0.00    -0.356 OA
HETATM   29  C   UNL     1       3.898  26.919  47.749  1.00  0.00     0.210 C 
ENDBRANCH  24  28
ENDBRANCH   1  22
BRANCH   8  30
HETATM   30  C   UNL     1       7.284  23.574  54.786  1.00  0.00     0.409 C 
HETATM   31  F   UNL     1       8.536  24.080  54.750  1.00  0.00    -0.169 F 
HETATM   32  F   UNL     1       7.298  22.505  55.610  1.00  0.00    -0.169 F 
HETATM   33  F   UNL     1       7.025  23.096  53.540  1.00  0.00    -0.169 F 
ENDBRANCH   8  30
TORSDOF 6
ENDMDL
MODEL 7
REMARK VINA RESULT:      -9.1      4.044      7.181
REMARK  6 active torsions:
REMARK  status: ('A' for Active; 'I' for Inactive)
REMARK    1  A    between atoms: O_2  and  C_3 
REMARK    2  A    between atoms: C_5  and  C_6 
REMARK    3  A    between atoms: C_12  and  C_13 
REMARK       I    between atoms: C_13  and  N_14 
REMARK    4  A    between atoms: N_14  and  C_15 
REMARK    5  A    between atoms: C_15  and  C_16 
REMARK    6  A    between atoms: C_23  and  C_24 
ROOT
HETATM    1  C   UNL     1       7.172  24.816  54.496  1.00  0.00     0.118 C 
HETATM    2  N   UNL     1       6.458  25.301  53.313  1.00  0.00    -0.365 N 
HETATM    3  C   UNL     1       5.640  26.386  53.387  1.00  0.00     0.138 A 
HETATM    4  N   UNL     1       5.391  26.993  54.596  1.00  0.00    -0.240 N 
HETATM    5  N   UNL     1       4.462  27.958  54.545  1.00  0.00    -0.181 NA
HETATM    6  C   UNL     1       4.170  28.025  53.243  1.00  0.00     0.160 A 
HETATM    7  C   UNL     1       4.884  27.082  52.461  1.00  0.00     0.096 A 
HETATM    8  C   UNL     1       5.931  26.548  55.867  1.00  0.00     0.221 C 
HETATM    9  C   UNL     1       6.336  25.068  55.763  1.00  0.00     0.066 C 
HETATM   10  H   UNL     1       6.332  24.604  52.577  1.00  0.00     0.161 HD
ENDROOT
BRANCH   7  11
HETATM   11  C   UNL     1       4.779  26.936  51.021  1.00  0.00     0.257 C 
HETATM   12  N   UNL     1       3.778  27.665  50.427  1.00  0.00    -0.352 N 
HETATM   13  H   UNL     1       3.098  28.114  51.028  1.00  0.00     0.163 HD
HETATM   14  O   UNL     1       5.518  26.182  50.398  1.00  0.00    -0.267 OA
BRANCH  12  15
HETATM   15  C   UNL     1       3.475  27.534  49.020  1.00  0.00     0.161 C 
BRANCH  15  16
HETATM   16  C   UNL     1       3.603  28.836  48.269  1.00  0.00    -0.041 A 
HETATM   17  C   UNL     1       4.616  29.761  48.567  1.00  0.00     0.009 A 
HETATM   18  C   UNL     1       4.765  30.923  47.808  1.00  0.00     0.001 A 
HETATM   19  C   UNL     1       3.917  31.167  46.730  1.00  0.00     0.000 A 
HETATM   20  C   UNL     1       2.919  30.249  46.410  1.00  0.00     0.001 A 
HETATM   21  C   UNL     1       2.764  29.090  47.172  1.00  0.00     0.009 A 
ENDBRANCH  15  16
ENDBRANCH  12  15
ENDBRANCH   7  11
BRANCH   1  22
HETATM   22  C   UNL     1       7.564  23.365  54.293  1.00  0.00    -0.033 A 
HETATM   23  C   UNL     1       7.893  22.519  55.365  1.00  0.00     0.046 A 
HETATM   24  C   UNL     1       8.252  21.182  55.153  1.00  0.00     0.068 A 
HETATM   25  C   UNL     1       8.263  20.672  53.857  1.00  0.00     0.037 A 
HETATM   26  C   UNL     1       7.915  21.492  52.782  1.00  0.00     0.003 A 
HETATM   27  C   UNL     1       7.565  22.826  52.998  1.00  0.00     0.009 A 
BRANCH  24  28
HETATM   28  O   UNL     1       8.565  20.491  56.292  1.00  0.00    -0.356 OA
HETATM   29  C   UNL     1       8.342  21.156  57.529  1.00  0.00     0.210 C 
ENDBRANCH  24  28
ENDBRANCH   1  22
BRANCH   8  30
HETATM   30  C   UNL     1       7.074  27.446  56.283  1.00  0.00     0.409 C 
HETATM   31  F   UNL     1       7.753  27.963  55.236  1.00  0.00    -0.169 F 
HETATM   32  F   UNL     1       6.677  28.475  57.061  1.00  0.00    -0.169 F 
HETATM   33  F   UNL     1       7.974  26.737  57.014  1.00  0.00    -0.169 F 
ENDBRANCH   8  30
TORSDOF 6
ENDMDL
MODEL 8
REMARK VINA RESULT:      -9.0      2.496      3.789
REMARK  6 active torsions:
REMARK  status: ('A' for Active; 'I' for Inactive)
REMARK    1  A    between atoms: O_2  and  C_3 
REMARK    2  A    between atoms: C_5  and  C_6 
REMARK    3  A    between atoms: C_12  and  C_13 
REMARK       I    between atoms: C_13  and  N_14 
REMARK    4  A    between atoms: N_14  and  C_15 
REMARK    5  A    between atoms: C_15  and  C_16 
REMARK    6  A    between atoms: C_23  and  C_24 
ROOT
HETATM    1  C   UNL     1       6.535  27.172  56.305  1.00  0.00     0.118 C 
HETATM    2  N   UNL     1       7.099  28.008  57.367  1.00  0.00    -0.365 N 
HETATM    3  C   UNL     1       6.821  29.338  57.430  1.00  0.00     0.138 A 
HETATM    4  N   UNL     1       6.082  29.946  56.442  1.00  0.00    -0.240 N 
HETATM    5  N   UNL     1       6.004  31.280  56.557  1.00  0.00    -0.181 NA
HETATM    6  C   UNL     1       6.645  31.521  57.703  1.00  0.00     0.160 A 
HETATM    7  C   UNL     1       7.166  30.348  58.310  1.00  0.00     0.096 A 
HETATM    8  C   UNL     1       5.562  29.269  55.269  1.00  0.00     0.221 C 
HETATM    9  C   UNL     1       6.375  27.989  55.012  1.00  0.00     0.066 C 
HETATM   10  H   UNL     1       7.944  27.632  57.801  1.00  0.00     0.161 HD
ENDROOT
BRANCH   7  11
HETATM   11  C   UNL     1       7.893  30.307  59.565  1.00  0.00     0.257 C 
HETATM   12  N   UNL     1       7.394  31.108  60.563  1.00  0.00    -0.352 N 
HETATM   13  H   UNL     1       6.674  31.776  60.318  1.00  0.00     0.163 HD
HETATM   14  O   UNL     1       8.904  29.625  59.696  1.00  0.00    -0.267 OA
BRANCH  12  15
HETATM   15  C   UNL     1       8.078  31.262  61.827  1.00  0.00     0.161 C 
BRANCH  15  16
HETATM   16  C   UNL     1       7.299  32.092  62.817  1.00  0.00    -0.041 A 
HETATM   17  C   UNL     1       5.895  32.105  62.824  1.00  0.00     0.009 A 
HETATM   18  C   UNL     1       5.195  32.817  63.799  1.00  0.00     0.001 A 
HETATM   19  C   UNL     1       5.887  33.512  64.788  1.00  0.00     0.000 A 
HETATM   20  C   UNL     1       7.279  33.495  64.805  1.00  0.00     0.001 A 
HETATM   21  C   UNL     1       7.982  32.787  63.827  1.00  0.00     0.009 A 
ENDBRANCH  15  16
ENDBRANCH  12  15
ENDBRANCH   7  11
BRANCH   1  22
HETATM   22  C   UNL     1       7.375  25.919  56.145  1.00  0.00    -0.033 A 
HETATM   23  C   UNL     1       7.420  25.194  54.943  1.00  0.00     0.046 A 
HETATM   24  C   UNL     1       8.202  24.039  54.818  1.00  0.00     0.068 A 
HETATM   25  C   UNL     1       8.972  23.613  55.898  1.00  0.00     0.037 A 
HETATM   26  C   UNL     1       8.959  24.336  57.092  1.00  0.00     0.003 A 
HETATM   27  C   UNL     1       8.171  25.481  57.214  1.00  0.00     0.009 A 
BRANCH  24  28
HETATM   28  O   UNL     1       8.126  23.430  53.595  1.00  0.00    -0.356 OA
HETATM   29  C   UNL     1       8.141  22.008  53.584  1.00  0.00     0.210 C 
ENDBRANCH  24  28
ENDBRANCH   1  22
BRANCH   8  30
HETATM   30  C   UNL     1       4.083  29.006  55.441  1.00  0.00     0.409 C 
HETATM   31  F   UNL     1       3.627  28.001  54.662  1.00  0.00    -0.169 F 
HETATM   32  F   UNL     1       3.745  28.721  56.716  1.00  0.00    -0.169 F 
HETATM   33  F   UNL     1       3.376  30.114  55.095  1.00  0.00    -0.169 F 
ENDBRANCH   8  30
TORSDOF 6
ENDMDL
MODEL 9
REMARK VINA RESULT:      -8.9      3.194      5.774
REMARK  6 active torsions:
REMARK  status: ('A' for Active; 'I' for Inactive)
REMARK    1  A    between atoms: O_2  and  C_3 
REMARK    2  A    between atoms: C_5  and  C_6 
REMARK    3  A    between atoms: C_12  and  C_13 
REMARK       I    between atoms: C_13  and  N_14 
REMARK    4  A    between atoms: N_14  and  C_15 
REMARK    5  A    between atoms: C_15  and  C_16 
REMARK    6  A    between atoms: C_23  and  C_24 
ROOT
HETATM    1  C   UNL     1       5.897  26.349  52.156  1.00  0.00     0.118 C 
HETATM    2  N   UNL     1       5.744  27.324  53.238  1.00  0.00    -0.365 N 
HETATM    3  C   UNL     1       5.688  26.921  54.536  1.00  0.00     0.138 A 
HETATM    4  N   UNL     1       5.674  25.583  54.855  1.00  0.00    -0.240 N 
HETATM    5  N   UNL     1       5.475  25.330  56.156  1.00  0.00    -0.181 NA
HETATM    6  C   UNL     1       5.443  26.550  56.698  1.00  0.00     0.160 A 
HETATM    7  C   UNL     1       5.588  27.590  55.743  1.00  0.00     0.096 A 
HETATM    8  C   UNL     1       5.697  24.506  53.882  1.00  0.00     0.221 C 
HETATM    9  C   UNL     1       5.199  25.029  52.525  1.00  0.00     0.066 C 
HETATM   10  H   UNL     1       5.340  28.217  52.952  1.00  0.00     0.161 HD
ENDROOT
BRANCH   7  11
HETATM   11  C   UNL     1       5.604  29.009  56.046  1.00  0.00     0.257 C 
HETATM   12  N   UNL     1       5.957  29.333  57.334  1.00  0.00    -0.352 N 
HETATM   13  H   UNL     1       6.021  28.582  58.010  1.00  0.00     0.163 HD
HETATM   14  O   UNL     1       5.288  29.846  55.207  1.00  0.00    -0.267 OA
BRANCH  12  15
HETATM   15  C   UNL     1       5.904  30.694  57.816  1.00  0.00     0.161 C 
BRANCH  15  16
HETATM   16  C   UNL     1       7.177  31.121  58.504  1.00  0.00    -0.041 A 
HETATM   17  C   UNL     1       7.169  32.052  59.555  1.00  0.00     0.009 A 
HETATM   18  C   UNL     1       8.348  32.373  60.230  1.00  0.00     0.001 A 
HETATM   19  C   UNL     1       9.546  31.758  59.876  1.00  0.00     0.000 A 
HETATM   20  C   UNL     1       9.567  30.819  58.847  1.00  0.00     0.001 A 
HETATM   21  C   UNL     1       8.390  30.500  58.167  1.00  0.00     0.009 A 
ENDBRANCH  15  16
ENDBRANCH  12  15
ENDBRANCH   7  11
BRANCH   1  22
HETATM   22  C   UNL     1       5.417  26.958  50.852  1.00  0.00    -0.033 A 
HETATM   23  C   UNL     1       5.625  28.310  50.533  1.00  0.00     0.046 A 
HETATM   24  C   UNL     1       5.172  28.851  49.324  1.00  0.00     0.068 A 
HETATM   25  C   UNL     1       4.522  28.028  48.406  1.00  0.00     0.037 A 
HETATM   26  C   UNL     1       4.329  26.676  48.695  1.00  0.00     0.003 A 
HETATM   27  C   UNL     1       4.775  26.144  49.906  1.00  0.00     0.009 A 
BRANCH  24  28
HETATM   28  O   UNL     1       5.429  30.185  49.166  1.00  0.00    -0.356 OA
HETATM   29  C   UNL     1       5.514  30.967  50.351  1.00  0.00     0.210 C 
ENDBRANCH  24  28
ENDBRANCH   1  22
BRANCH   8  30
HETATM   30  C   UNL     1       7.083  23.906  53.813  1.00  0.00     0.409 C 
HETATM   31  F   UNL     1       7.435  23.521  52.567  1.00  0.00    -0.169 F 
HETATM   32  F   UNL     1       8.041  24.741  54.269  1.00  0.00    -0.169 F 
HETATM   33  F   UNL     1       7.142  22.793  54.591  1.00  0.00    -0.169 F 
ENDBRANCH   8  30
TORSDOF 6
ENDMDL
MODEL 10
REMARK VINA RESULT:      -8.7      3.449      8.730
REMARK  6 active torsions:
REMARK  status: ('A' for Active; 'I' for Inactive)
REMARK    1  A    between atoms: O_2  and  C_3 
REMARK    2  A    between atoms: C_5  and  C_6 
REMARK    3  A    between atoms: C_12  and  C_13 
REMARK       I    between atoms: C_13  and  N_14 
REMARK    4  A    between atoms: N_14  and  C_15 
REMARK    5  A    between atoms: C_15  and  C_16 
REMARK    6  A    between atoms: C_23  and  C_24 
ROOT
HETATM    1  C   UNL     1       6.596  27.608  56.328  1.00  0.00     0.118 C 
HETATM    2  N   UNL     1       6.230  27.965  54.955  1.00  0.00    -0.365 N 
HETATM    3  C   UNL     1       6.428  27.091  53.932  1.00  0.00     0.138 A 
HETATM    4  N   UNL     1       7.067  25.892  54.148  1.00  0.00    -0.240 N 
HETATM    5  N   UNL     1       7.319  25.194  53.032  1.00  0.00    -0.181 NA
HETATM    6  C   UNL     1       6.748  25.936  52.079  1.00  0.00     0.160 A 
HETATM    7  C   UNL     1       6.157  27.127  52.575  1.00  0.00     0.096 A 
HETATM    8  C   UNL     1       7.592  25.459  55.430  1.00  0.00     0.221 C 
HETATM    9  C   UNL     1       7.826  26.684  56.329  1.00  0.00     0.066 C 
HETATM   10  H   UNL     1       6.169  28.969  54.779  1.00  0.00     0.161 HD
ENDROOT
BRANCH   7  11
HETATM   11  C   UNL     1       5.458  28.113  51.773  1.00  0.00     0.257 C 
HETATM   12  N   UNL     1       4.244  27.710  51.271  1.00  0.00    -0.352 N 
HETATM   13  H   UNL     1       3.999  26.731  51.353  1.00  0.00     0.163 HD
HETATM   14  O   UNL     1       5.947  29.213  51.541  1.00  0.00    -0.267 OA
BRANCH  12  15
HETATM   15  C   UNL     1       3.487  28.537  50.360  1.00  0.00     0.161 C 
BRANCH  15  16
HETATM   16  C   UNL     1       3.018  27.787  49.138  1.00  0.00    -0.041 A 
HETATM   17  C   UNL     1       3.727  26.685  48.634  1.00  0.00     0.009 A 
HETATM   18  C   UNL     1       3.233  25.956  47.551  1.00  0.00     0.001 A 
HETATM   19  C   UNL     1       2.018  26.307  46.968  1.00  0.00     0.000 A 
HETATM   20  C   UNL     1       1.294  27.386  47.469  1.00  0.00     0.001 A 
HETATM   21  C   UNL     1       1.789  28.121  48.549  1.00  0.00     0.009 A 
ENDBRANCH  15  16
ENDBRANCH  12  15
ENDBRANCH   7  11
BRANCH   1  22
HETATM   22  C   UNL     1       6.771  28.871  57.151  1.00  0.00    -0.033 A 
HETATM   23  C   UNL     1       7.760  28.991  58.141  1.00  0.00     0.046 A 
HETATM   24  C   UNL     1       7.903  30.166  58.888  1.00  0.00     0.068 A 
HETATM   25  C   UNL     1       7.064  31.249  58.631  1.00  0.00     0.037 A 
HETATM   26  C   UNL     1       6.092  31.156  57.633  1.00  0.00     0.003 A 
HETATM   27  C   UNL     1       5.949  29.979  56.897  1.00  0.00     0.009 A 
BRANCH  24  28
HETATM   28  O   UNL     1       8.895  30.124  59.830  1.00  0.00    -0.356 OA
HETATM   29  C   UNL     1       8.679  30.868  61.023  1.00  0.00     0.210 C 
ENDBRANCH  24  28
ENDBRANCH   1  22
BRANCH   8  30
HETATM   30  C   UNL     1       6.662  24.440  56.049  1.00  0.00     0.409 C 
HETATM   31  F   UNL     1       5.357  24.692  55.804  1.00  0.00    -0.169 F 
HETATM   32  F   UNL     1       6.919  23.179  55.643  1.00  0.00    -0.169 F 
HETATM   33  F   UNL     1       6.808  24.446  57.400  1.00  0.00    -0.169 F 
ENDBRANCH   8  30
TORSDOF 6
ENDMDL
