MODEL 1
REMARK VINA RESULT:      -9.0      0.000      0.000
REMARK  7 active torsions:
REMARK  status: ('A' for Active; 'I' for Inactive)
REMARK    1  A    between atoms: C_6  and  C_7 
REMARK    2  A    between atoms: N_13  and  C_15 
REMARK    3  A    between atoms: C_15  and  C_16 
REMARK    4  A    between atoms: C_16  and  N_17 
REMARK       I    between atoms: N_17  and  C_18 
REMARK    5  A    between atoms: C_18  and  C_19 
REMARK    6  A    between atoms: C_19  and  N_20 
REMARK    7  A    between atoms: C_19  and  C_27 
ROOT
HETATM    1  C   UNL     1       3.526  33.003  59.429  1.00  0.00     0.150 C 
ENDROOT
BRANCH   1   2
HETATM    2  C   UNL     1       3.840  33.602  60.819  1.00  0.00     0.255 C 
BRANCH   2   3
HETATM    3  N   UNL     1       3.174  32.847  61.960  1.00  0.00    -0.063 N 
HETATM    4  C   UNL     1       2.545  33.652  63.083  1.00  0.00     0.272 C 
HETATM    5  C   UNL     1       3.499  34.467  63.994  1.00  0.00     0.188 C 
HETATM    6  O   UNL     1       4.442  33.672  64.735  1.00  0.00    -0.339 OA
HETATM    7  C   UNL     1       5.505  33.121  64.089  1.00  0.00     0.077 A 
HETATM    8  C   UNL     1       5.398  32.242  63.010  1.00  0.00     0.001 A 
HETATM    9  C   UNL     1       6.758  33.408  64.641  1.00  0.00     0.037 A 
HETATM   10  C   UNL     1       6.577  31.736  62.431  1.00  0.00     0.012 A 
HETATM   11  C   UNL     1       4.072  31.762  62.517  1.00  0.00     0.276 C 
HETATM   12  C   UNL     1       7.828  32.075  62.946  1.00  0.00     0.001 A 
HETATM   13  C   UNL     1       7.918  32.900  64.060  1.00  0.00     0.003 A 
HETATM   14  H   UNL     1       2.398  32.320  61.539  1.00  0.00     0.280 HD
BRANCH   5  15
HETATM   15  C   UNL     1       3.980  35.782  63.388  1.00  0.00    -0.020 A 
HETATM   16  C   UNL     1       3.162  36.572  62.589  1.00  0.00     0.059 A 
HETATM   17  S   UNL     1       3.931  37.981  62.006  1.00  0.00    -0.113 SA
HETATM   18  C   UNL     1       5.350  37.624  62.875  1.00  0.00     0.050 A 
HETATM   19  C   UNL     1       5.251  36.430  63.557  1.00  0.00     0.017 A 
ENDBRANCH   5  15
ENDBRANCH   2   3
ENDBRANCH   1   2
BRANCH   1  20
HETATM   20  N   UNL     1       4.285  31.804  59.053  1.00  0.00    -0.357 N 
HETATM   21  C   UNL     1       5.371  31.847  58.196  1.00  0.00     0.253 C 
HETATM   22  O   UNL     1       5.621  32.854  57.538  1.00  0.00    -0.271 OA
HETATM   23  H   UNL     1       4.224  31.029  59.712  1.00  0.00     0.162 HD
BRANCH  21  24
HETATM   24  C   UNL     1       6.250  30.552  58.111  1.00  0.00     0.314 C 
BRANCH  24  25
HETATM   25  N   UNL     1       5.979  29.667  56.875  1.00  0.00    -0.050 N 
HETATM   26  H   UNL     1       6.868  29.626  56.360  1.00  0.00     0.281 HD
HETATM   27  C   UNL     1       5.613  28.233  57.245  1.00  0.00     0.262 C 
HETATM   28  C   UNL     1       5.475  27.390  55.973  1.00  0.00     0.195 C 
HETATM   29  O   UNL     1       4.493  27.953  55.101  1.00  0.00    -0.388 OA
HETATM   30  C   UNL     1       4.852  29.273  54.673  1.00  0.00     0.195 C 
HETATM   31  C   UNL     1       4.957  30.222  55.874  1.00  0.00     0.262 C 
ENDBRANCH  24  25
BRANCH  24  32
HETATM   32  C   UNL     1       7.723  30.846  58.283  1.00  0.00    -0.001 A 
HETATM   33  C   UNL     1       8.180  31.878  59.100  1.00  0.00     0.126 A 
HETATM   34  N   UNL     1       9.479  32.197  59.255  1.00  0.00    -0.272 NA
HETATM   35  C   UNL     1      10.387  31.471  58.568  1.00  0.00     0.116 A 
HETATM   36  C   UNL     1      10.041  30.431  57.725  1.00  0.00     0.020 A 
HETATM   37  C   UNL     1       8.691  30.117  57.579  1.00  0.00     0.012 A 
ENDBRANCH  24  32
ENDBRANCH  21  24
ENDBRANCH   1  20
TORSDOF 7
ENDMDL
MODEL 2
REMARK VINA RESULT:      -8.8      7.651     12.551
REMARK  7 active torsions:
REMARK  status: ('A' for Active; 'I' for Inactive)
REMARK    1  A    between atoms: C_6  and  C_7 
REMARK    2  A    between atoms: N_13  and  C_15 
REMARK    3  A    between atoms: C_15  and  C_16 
REMARK    4  A    between atoms: C_16  and  N_17 
REMARK       I    between atoms: N_17  and  C_18 
REMARK    5  A    between atoms: C_18  and  C_19 
REMARK    6  A    between atoms: C_19  and  N_20 
REMARK    7  A    between atoms: C_19  and  C_27 
ROOT
HETATM    1  C   UNL     1       5.008  25.955  50.704  1.00  0.00     0.150 C 
ENDROOT
BRANCH   1   2
HETATM    2  C   UNL     1       4.680  27.357  50.141  1.00  0.00     0.255 C 
BRANCH   2   3
HETATM    3  N   UNL     1       5.502  27.716  48.913  1.00  0.00    -0.063 N 
HETATM    4  C   UNL     1       5.935  29.161  48.734  1.00  0.00     0.272 C 
HETATM    5  C   UNL     1       4.823  30.207  48.468  1.00  0.00     0.188 C 
HETATM    6  O   UNL     1       4.086  29.999  47.249  1.00  0.00    -0.339 OA
HETATM    7  C   UNL     1       3.175  28.992  47.182  1.00  0.00     0.077 A 
HETATM    8  C   UNL     1       3.476  27.646  47.394  1.00  0.00     0.001 A 
HETATM    9  C   UNL     1       1.891  29.369  46.775  1.00  0.00     0.037 A 
HETATM   10  C   UNL     1       2.442  26.697  47.291  1.00  0.00     0.012 A 
HETATM   11  C   UNL     1       4.876  27.184  47.640  1.00  0.00     0.276 C 
HETATM   12  C   UNL     1       1.147  27.086  46.947  1.00  0.00     0.001 A 
HETATM   13  C   UNL     1       0.875  28.421  46.675  1.00  0.00     0.003 A 
HETATM   14  H   UNL     1       6.377  27.181  48.988  1.00  0.00     0.280 HD
BRANCH   5  15
HETATM   15  C   UNL     1       4.055  30.643  49.711  1.00  0.00    -0.020 A 
HETATM   16  C   UNL     1       4.693  30.943  50.908  1.00  0.00     0.059 A 
HETATM   17  S   UNL     1       3.622  31.380  52.164  1.00  0.00    -0.113 SA
HETATM   18  C   UNL     1       2.280  31.268  51.123  1.00  0.00     0.050 A 
HETATM   19  C   UNL     1       2.642  30.860  49.857  1.00  0.00     0.017 A 
ENDBRANCH   5  15
ENDBRANCH   2   3
ENDBRANCH   1   2
BRANCH   1  20
HETATM   20  N   UNL     1       5.905  25.915  51.865  1.00  0.00    -0.357 N 
HETATM   21  C   UNL     1       5.627  25.168  52.997  1.00  0.00     0.253 C 
HETATM   22  O   UNL     1       4.516  24.674  53.175  1.00  0.00    -0.271 OA
HETATM   23  H   UNL     1       6.878  26.142  51.667  1.00  0.00     0.162 HD
BRANCH  21  24
HETATM   24  C   UNL     1       6.796  24.992  54.027  1.00  0.00     0.314 C 
BRANCH  24  25
HETATM   25  N   UNL     1       6.547  25.648  55.403  1.00  0.00    -0.050 N 
HETATM   26  H   UNL     1       6.200  24.895  56.011  1.00  0.00     0.281 HD
HETATM   27  C   UNL     1       7.826  26.182  56.040  1.00  0.00     0.262 C 
HETATM   28  C   UNL     1       7.520  26.708  57.447  1.00  0.00     0.195 C 
HETATM   29  O   UNL     1       6.517  27.725  57.396  1.00  0.00    -0.388 OA
HETATM   30  C   UNL     1       5.279  27.229  56.874  1.00  0.00     0.195 C 
HETATM   31  C   UNL     1       5.459  26.729  55.434  1.00  0.00     0.262 C 
ENDBRANCH  24  25
BRANCH  24  32
HETATM   32  C   UNL     1       7.234  23.552  54.158  1.00  0.00    -0.001 A 
HETATM   33  C   UNL     1       7.265  22.897  55.388  1.00  0.00     0.126 A 
HETATM   34  N   UNL     1       7.681  21.628  55.555  1.00  0.00    -0.272 NA
HETATM   35  C   UNL     1       8.096  20.957  54.460  1.00  0.00     0.116 A 
HETATM   36  C   UNL     1       8.112  21.512  53.194  1.00  0.00     0.020 A 
HETATM   37  C   UNL     1       7.677  22.828  53.042  1.00  0.00     0.012 A 
ENDBRANCH  24  32
ENDBRANCH  21  24
ENDBRANCH   1  20
TORSDOF 7
ENDMDL
MODEL 3
REMARK VINA RESULT:      -8.8      4.494      9.860
REMARK  7 active torsions:
REMARK  status: ('A' for Active; 'I' for Inactive)
REMARK    1  A    between atoms: C_6  and  C_7 
REMARK    2  A    between atoms: N_13  and  C_15 
REMARK    3  A    between atoms: C_15  and  C_16 
REMARK    4  A    between atoms: C_16  and  N_17 
REMARK       I    between atoms: N_17  and  C_18 
REMARK    5  A    between atoms: C_18  and  C_19 
REMARK    6  A    between atoms: C_19  and  N_20 
REMARK    7  A    between atoms: C_19  and  C_27 
ROOT
HETATM    1  C   UNL     1       8.526  28.627  55.810  1.00  0.00     0.150 C 
ENDROOT
BRANCH   1   2
HETATM    2  C   UNL     1       7.623  27.651  55.023  1.00  0.00     0.255 C 
BRANCH   2   3
HETATM    3  N   UNL     1       6.176  27.664  55.492  1.00  0.00    -0.063 N 
HETATM    4  C   UNL     1       5.628  26.418  56.165  1.00  0.00     0.272 C 
HETATM    5  C   UNL     1       5.479  25.146  55.292  1.00  0.00     0.188 C 
HETATM    6  O   UNL     1       4.558  25.280  54.194  1.00  0.00    -0.339 OA
HETATM    7  C   UNL     1       4.921  26.005  53.102  1.00  0.00     0.077 A 
HETATM    8  C   UNL     1       5.289  27.350  53.141  1.00  0.00     0.001 A 
HETATM    9  C   UNL     1       4.808  25.342  51.875  1.00  0.00     0.037 A 
HETATM   10  C   UNL     1       5.639  27.991  51.937  1.00  0.00     0.012 A 
HETATM   11  C   UNL     1       5.235  28.143  54.406  1.00  0.00     0.276 C 
HETATM   12  C   UNL     1       5.586  27.307  50.722  1.00  0.00     0.001 A 
HETATM   13  C   UNL     1       5.156  25.985  50.690  1.00  0.00     0.003 A 
HETATM   14  H   UNL     1       6.113  28.404  56.203  1.00  0.00     0.280 HD
BRANCH   5  15
HETATM   15  C   UNL     1       6.780  24.386  55.057  1.00  0.00    -0.020 A 
HETATM   16  C   UNL     1       7.646  24.060  56.094  1.00  0.00     0.059 A 
HETATM   17  S   UNL     1       9.048  23.233  55.581  1.00  0.00    -0.113 SA
HETATM   18  C   UNL     1       8.501  23.206  53.970  1.00  0.00     0.050 A 
HETATM   19  C   UNL     1       7.294  23.856  53.824  1.00  0.00     0.017 A 
ENDBRANCH   5  15
ENDBRANCH   2   3
ENDBRANCH   1   2
BRANCH   1  20
HETATM   20  N   UNL     1       7.846  29.735  56.491  1.00  0.00    -0.357 N 
HETATM   21  C   UNL     1       7.697  29.786  57.867  1.00  0.00     0.253 C 
HETATM   22  O   UNL     1       7.933  28.805  58.567  1.00  0.00    -0.271 OA
HETATM   23  H   UNL     1       7.825  30.612  55.974  1.00  0.00     0.162 HD
BRANCH  21  24
HETATM   24  C   UNL     1       7.212  31.149  58.470  1.00  0.00     0.314 C 
BRANCH  24  25
HETATM   25  N   UNL     1       5.681  31.348  58.467  1.00  0.00    -0.050 N 
HETATM   26  H   UNL     1       5.381  31.218  59.443  1.00  0.00     0.281 HD
HETATM   27  C   UNL     1       5.271  32.760  58.060  1.00  0.00     0.262 C 
HETATM   28  C   UNL     1       3.752  32.916  58.195  1.00  0.00     0.195 C 
HETATM   29  O   UNL     1       3.075  31.943  57.397  1.00  0.00    -0.388 OA
HETATM   30  C   UNL     1       3.381  30.606  57.811  1.00  0.00     0.195 C 
HETATM   31  C   UNL     1       4.881  30.321  57.657  1.00  0.00     0.262 C 
ENDBRANCH  24  25
BRANCH  24  32
HETATM   32  C   UNL     1       7.815  31.421  59.830  1.00  0.00    -0.001 A 
HETATM   33  C   UNL     1       7.038  31.472  60.986  1.00  0.00     0.126 A 
HETATM   34  N   UNL     1       7.527  31.745  62.210  1.00  0.00    -0.272 NA
HETATM   35  C   UNL     1       8.851  31.989  62.314  1.00  0.00     0.116 A 
HETATM   36  C   UNL     1       9.710  31.970  61.231  1.00  0.00     0.020 A 
HETATM   37  C   UNL     1       9.184  31.685  59.972  1.00  0.00     0.012 A 
ENDBRANCH  24  32
ENDBRANCH  21  24
ENDBRANCH   1  20
TORSDOF 7
ENDMDL
MODEL 4
REMARK VINA RESULT:      -8.5      7.647     11.127
REMARK  7 active torsions:
REMARK  status: ('A' for Active; 'I' for Inactive)
REMARK    1  A    between atoms: C_6  and  C_7 
REMARK    2  A    between atoms: N_13  and  C_15 
REMARK    3  A    between atoms: C_15  and  C_16 
REMARK    4  A    between atoms: C_16  and  N_17 
REMARK       I    between atoms: N_17  and  C_18 
REMARK    5  A    between atoms: C_18  and  C_19 
REMARK    6  A    between atoms: C_19  and  N_20 
REMARK    7  A    between atoms: C_19  and  C_27 
ROOT
HETATM    1  C   UNL     1       6.130  28.570  52.516  1.00  0.00     0.150 C 
ENDROOT
BRANCH   1   2
HETATM    2  C   UNL     1       6.427  27.131  52.997  1.00  0.00     0.255 C 
BRANCH   2   3
HETATM    3  N   UNL     1       5.192  26.405  53.508  1.00  0.00    -0.063 N 
HETATM    4  C   UNL     1       4.708  26.711  54.915  1.00  0.00     0.272 C 
HETATM    5  C   UNL     1       5.621  26.277  56.090  1.00  0.00     0.188 C 
HETATM    6  O   UNL     1       5.834  24.856  56.187  1.00  0.00    -0.339 OA
HETATM    7  C   UNL     1       6.661  24.242  55.298  1.00  0.00     0.077 A 
HETATM    8  C   UNL     1       6.479  24.262  53.915  1.00  0.00     0.001 A 
HETATM    9  C   UNL     1       7.686  23.475  55.862  1.00  0.00     0.037 A 
HETATM   10  C   UNL     1       7.404  23.581  53.101  1.00  0.00     0.012 A 
HETATM   11  C   UNL     1       5.287  24.909  53.289  1.00  0.00     0.276 C 
HETATM   12  C   UNL     1       8.463  22.869  53.666  1.00  0.00     0.001 A 
HETATM   13  C   UNL     1       8.596  22.804  55.048  1.00  0.00     0.003 A 
HETATM   14  H   UNL     1       4.419  26.686  52.891  1.00  0.00     0.280 HD
BRANCH   5  15
HETATM   15  C   UNL     1       6.803  27.205  56.348  1.00  0.00    -0.020 A 
HETATM   16  C   UNL     1       6.750  28.566  56.072  1.00  0.00     0.059 A 
HETATM   17  S   UNL     1       8.204  29.391  56.419  1.00  0.00    -0.113 SA
HETATM   18  C   UNL     1       8.919  27.973  57.031  1.00  0.00     0.050 A 
HETATM   19  C   UNL     1       8.079  26.886  56.928  1.00  0.00     0.017 A 
ENDBRANCH   5  15
ENDBRANCH   2   3
ENDBRANCH   1   2
BRANCH   1  20
HETATM   20  N   UNL     1       5.487  28.696  51.202  1.00  0.00    -0.357 N 
HETATM   21  C   UNL     1       4.116  28.816  51.052  1.00  0.00     0.253 C 
HETATM   22  O   UNL     1       3.354  28.607  51.993  1.00  0.00    -0.271 OA
HETATM   23  H   UNL     1       6.084  29.058  50.461  1.00  0.00     0.162 HD
BRANCH  21  24
HETATM   24  C   UNL     1       3.599  29.227  49.631  1.00  0.00     0.314 C 
BRANCH  24  25
HETATM   25  N   UNL     1       4.469  30.276  48.905  1.00  0.00    -0.050 N 
HETATM   26  H   UNL     1       5.355  29.801  48.688  1.00  0.00     0.281 HD
HETATM   27  C   UNL     1       3.867  30.725  47.578  1.00  0.00     0.262 C 
HETATM   28  C   UNL     1       4.839  31.671  46.864  1.00  0.00     0.195 C 
HETATM   29  O   UNL     1       5.140  32.798  47.690  1.00  0.00    -0.388 OA
HETATM   30  C   UNL     1       5.780  32.410  48.911  1.00  0.00     0.195 C 
HETATM   31  C   UNL     1       4.861  31.502  49.740  1.00  0.00     0.262 C 
ENDBRANCH  24  25
BRANCH  24  32
HETATM   32  C   UNL     1       3.312  28.028  48.756  1.00  0.00    -0.001 A 
HETATM   33  C   UNL     1       4.332  27.278  48.172  1.00  0.00     0.126 A 
HETATM   34  N   UNL     1       4.121  26.226  47.360  1.00  0.00    -0.272 NA
HETATM   35  C   UNL     1       2.842  25.886  47.094  1.00  0.00     0.116 A 
HETATM   36  C   UNL     1       1.756  26.566  47.615  1.00  0.00     0.020 A 
HETATM   37  C   UNL     1       1.995  27.652  48.455  1.00  0.00     0.012 A 
ENDBRANCH  24  32
ENDBRANCH  21  24
ENDBRANCH   1  20
TORSDOF 7
ENDMDL
MODEL 5
REMARK VINA RESULT:      -8.4      1.449      3.378
REMARK  7 active torsions:
REMARK  status: ('A' for Active; 'I' for Inactive)
REMARK    1  A    between atoms: C_6  and  C_7 
REMARK    2  A    between atoms: N_13  and  C_15 
REMARK    3  A    between atoms: C_15  and  C_16 
REMARK    4  A    between atoms: C_16  and  N_17 
REMARK       I    between atoms: N_17  and  C_18 
REMARK    5  A    between atoms: C_18  and  C_19 
REMARK    6  A    between atoms: C_19  and  N_20 
REMARK    7  A    between atoms: C_19  and  C_27 
ROOT
HETATM    1  C   UNL     1       3.578  33.714  59.284  1.00  0.00     0.150 C 
ENDROOT
BRANCH   1   2
HETATM    2  C   UNL     1       3.915  34.060  60.752  1.00  0.00     0.255 C 
BRANCH   2   3
HETATM    3  N   UNL     1       3.184  33.183  61.757  1.00  0.00    -0.063 N 
HETATM    4  C   UNL     1       2.505  33.855  62.938  1.00  0.00     0.272 C 
HETATM    5  C   UNL     1       3.417  34.537  63.988  1.00  0.00     0.188 C 
HETATM    6  O   UNL     1       4.313  33.642  64.673  1.00  0.00    -0.339 OA
HETATM    7  C   UNL     1       5.403  33.158  64.019  1.00  0.00     0.077 A 
HETATM    8  C   UNL     1       5.344  32.419  62.837  1.00  0.00     0.001 A 
HETATM    9  C   UNL     1       6.628  33.355  64.665  1.00  0.00     0.037 A 
HETATM   10  C   UNL     1       6.547  31.968  62.260  1.00  0.00     0.012 A 
HETATM   11  C   UNL     1       4.041  32.023  62.222  1.00  0.00     0.276 C 
HETATM   12  C   UNL     1       7.773  32.223  62.876  1.00  0.00     0.001 A 
HETATM   13  C   UNL     1       7.812  32.904  64.086  1.00  0.00     0.003 A 
HETATM   14  H   UNL     1       2.426  32.723  61.237  1.00  0.00     0.280 HD
BRANCH   5  15
HETATM   15  C   UNL     1       3.942  35.908  63.574  1.00  0.00    -0.020 A 
HETATM   16  C   UNL     1       3.284  36.701  62.641  1.00  0.00     0.059 A 
HETATM   17  S   UNL     1       4.077  38.179  62.321  1.00  0.00    -0.113 SA
HETATM   18  C   UNL     1       5.275  37.845  63.482  1.00  0.00     0.050 A 
HETATM   19  C   UNL     1       5.095  36.609  64.067  1.00  0.00     0.017 A 
ENDBRANCH   5  15
ENDBRANCH   2   3
ENDBRANCH   1   2
BRANCH   1  20
HETATM   20  N   UNL     1       4.620  33.009  58.528  1.00  0.00    -0.357 N 
HETATM   21  C   UNL     1       4.522  31.669  58.195  1.00  0.00     0.253 C 
HETATM   22  O   UNL     1       3.663  30.951  58.701  1.00  0.00    -0.271 OA
HETATM   23  H   UNL     1       5.213  33.604  57.952  1.00  0.00     0.162 HD
BRANCH  21  24
HETATM   24  C   UNL     1       5.558  31.127  57.152  1.00  0.00     0.314 C 
BRANCH  24  25
HETATM   25  N   UNL     1       6.770  30.393  57.767  1.00  0.00    -0.050 N 
HETATM   26  H   UNL     1       6.385  29.557  58.227  1.00  0.00     0.281 HD
HETATM   27  C   UNL     1       7.759  29.905  56.714  1.00  0.00     0.262 C 
HETATM   28  C   UNL     1       8.868  29.087  57.387  1.00  0.00     0.195 C 
HETATM   29  O   UNL     1       9.532  29.867  58.383  1.00  0.00    -0.388 OA
HETATM   30  C   UNL     1       8.640  30.272  59.428  1.00  0.00     0.195 C 
HETATM   31  C   UNL     1       7.516  31.155  58.869  1.00  0.00     0.262 C 
ENDBRANCH  24  25
BRANCH  24  32
HETATM   32  C   UNL     1       4.901  30.315  56.059  1.00  0.00    -0.001 A 
HETATM   33  C   UNL     1       4.691  28.943  56.181  1.00  0.00     0.126 A 
HETATM   34  N   UNL     1       4.142  28.177  55.220  1.00  0.00    -0.272 NA
HETATM   35  C   UNL     1       3.780  28.782  54.068  1.00  0.00     0.116 A 
HETATM   36  C   UNL     1       3.950  30.135  53.840  1.00  0.00     0.020 A 
HETATM   37  C   UNL     1       4.520  30.911  54.848  1.00  0.00     0.012 A 
ENDBRANCH  24  32
ENDBRANCH  21  24
ENDBRANCH   1  20
TORSDOF 7
ENDMDL
MODEL 6
REMARK VINA RESULT:      -8.2      6.779     10.177
REMARK  7 active torsions:
REMARK  status: ('A' for Active; 'I' for Inactive)
REMARK    1  A    between atoms: C_6  and  C_7 
REMARK    2  A    between atoms: N_13  and  C_15 
REMARK    3  A    between atoms: C_15  and  C_16 
REMARK    4  A    between atoms: C_16  and  N_17 
REMARK       I    between atoms: N_17  and  C_18 
REMARK    5  A    between atoms: C_18  and  C_19 
REMARK    6  A    between atoms: C_19  and  N_20 
REMARK    7  A    between atoms: C_19  and  C_27 
ROOT
HETATM    1  C   UNL     1       5.857  28.612  53.183  1.00  0.00     0.150 C 
ENDROOT
BRANCH   1   2
HETATM    2  C   UNL     1       6.301  27.305  53.878  1.00  0.00     0.255 C 
BRANCH   2   3
HETATM    3  N   UNL     1       5.149  26.549  54.522  1.00  0.00    -0.063 N 
HETATM    4  C   UNL     1       4.767  26.900  55.950  1.00  0.00     0.272 C 
HETATM    5  C   UNL     1       5.792  26.564  57.062  1.00  0.00     0.188 C 
HETATM    6  O   UNL     1       6.082  25.161  57.203  1.00  0.00    -0.339 OA
HETATM    7  C   UNL     1       6.862  24.543  56.277  1.00  0.00     0.077 A 
HETATM    8  C   UNL     1       6.568  24.488  54.914  1.00  0.00     0.001 A 
HETATM    9  C   UNL     1       7.966  23.851  56.785  1.00  0.00     0.037 A 
HETATM   10  C   UNL     1       7.456  23.812  54.056  1.00  0.00     0.012 A 
HETATM   11  C   UNL     1       5.298  25.050  54.362  1.00  0.00     0.276 C 
HETATM   12  C   UNL     1       8.591  23.175  54.560  1.00  0.00     0.001 A 
HETATM   13  C   UNL     1       8.838  23.183  55.928  1.00  0.00     0.003 A 
HETATM   14  H   UNL     1       4.315  26.765  53.960  1.00  0.00     0.280 HD
BRANCH   5  15
HETATM   15  C   UNL     1       6.945  27.556  57.179  1.00  0.00    -0.020 A 
HETATM   16  C   UNL     1       6.749  28.877  57.562  1.00  0.00     0.059 A 
HETATM   17  S   UNL     1       8.185  29.800  57.595  1.00  0.00    -0.113 SA
HETATM   18  C   UNL     1       9.125  28.441  57.185  1.00  0.00     0.050 A 
HETATM   19  C   UNL     1       8.349  27.320  56.983  1.00  0.00     0.017 A 
ENDBRANCH   5  15
ENDBRANCH   2   3
ENDBRANCH   1   2
BRANCH   1  20
HETATM   20  N   UNL     1       5.703  28.552  51.724  1.00  0.00    -0.357 N 
HETATM   21  C   UNL     1       4.986  29.497  51.010  1.00  0.00     0.253 C 
HETATM   22  O   UNL     1       4.264  30.310  51.581  1.00  0.00    -0.271 OA
HETATM   23  H   UNL     1       6.427  28.028  51.235  1.00  0.00     0.162 HD
BRANCH  21  24
HETATM   24  C   UNL     1       5.145  29.468  49.451  1.00  0.00     0.314 C 
BRANCH  24  25
HETATM   25  N   UNL     1       4.078  28.633  48.709  1.00  0.00    -0.050 N 
HETATM   26  H   UNL     1       3.861  29.159  47.852  1.00  0.00     0.281 HD
HETATM   27  C   UNL     1       4.596  27.266  48.275  1.00  0.00     0.262 C 
HETATM   28  C   UNL     1       3.525  26.548  47.446  1.00  0.00     0.195 C 
HETATM   29  O   UNL     1       2.315  26.416  48.195  1.00  0.00    -0.388 OA
HETATM   30  C   UNL     1       1.763  27.690  48.547  1.00  0.00     0.195 C 
HETATM   31  C   UNL     1       2.737  28.475  49.437  1.00  0.00     0.262 C 
ENDBRANCH  24  25
BRANCH  24  32
HETATM   32  C   UNL     1       5.289  30.853  48.863  1.00  0.00    -0.001 A 
HETATM   33  C   UNL     1       4.540  31.271  47.765  1.00  0.00     0.126 A 
HETATM   34  N   UNL     1       4.661  32.481  47.189  1.00  0.00    -0.272 NA
HETATM   35  C   UNL     1       5.570  33.334  47.708  1.00  0.00     0.116 A 
HETATM   36  C   UNL     1       6.369  33.018  48.792  1.00  0.00     0.020 A 
HETATM   37  C   UNL     1       6.228  31.760  49.375  1.00  0.00     0.012 A 
ENDBRANCH  24  32
ENDBRANCH  21  24
ENDBRANCH   1  20
TORSDOF 7
ENDMDL
MODEL 7
REMARK VINA RESULT:      -8.2      7.560     12.264
REMARK  7 active torsions:
REMARK  status: ('A' for Active; 'I' for Inactive)
REMARK    1  A    between atoms: C_6  and  C_7 
REMARK    2  A    between atoms: N_13  and  C_15 
REMARK    3  A    between atoms: C_15  and  C_16 
REMARK    4  A    between atoms: C_16  and  N_17 
REMARK       I    between atoms: N_17  and  C_18 
REMARK    5  A    between atoms: C_18  and  C_19 
REMARK    6  A    between atoms: C_19  and  N_20 
REMARK    7  A    between atoms: C_19  and  C_27 
ROOT
HETATM    1  C   UNL     1       4.612  25.713  50.568  1.00  0.00     0.150 C 
ENDROOT
BRANCH   1   2
HETATM    2  C   UNL     1       4.587  27.218  50.216  1.00  0.00     0.255 C 
BRANCH   2   3
HETATM    3  N   UNL     1       5.445  27.565  49.009  1.00  0.00    -0.063 N 
HETATM    4  C   UNL     1       5.918  29.000  48.852  1.00  0.00     0.272 C 
HETATM    5  C   UNL     1       4.839  30.076  48.570  1.00  0.00     0.188 C 
HETATM    6  O   UNL     1       4.124  29.896  47.333  1.00  0.00    -0.339 OA
HETATM    7  C   UNL     1       3.190  28.913  47.238  1.00  0.00     0.077 A 
HETATM    8  C   UNL     1       3.452  27.558  47.446  1.00  0.00     0.001 A 
HETATM    9  C   UNL     1       1.925  29.326  46.807  1.00  0.00     0.037 A 
HETATM   10  C   UNL     1       2.396  26.637  47.312  1.00  0.00     0.012 A 
HETATM   11  C   UNL     1       4.833  27.059  47.719  1.00  0.00     0.276 C 
HETATM   12  C   UNL     1       1.120  27.062  46.943  1.00  0.00     0.001 A 
HETATM   13  C   UNL     1       0.887  28.406  46.676  1.00  0.00     0.003 A 
HETATM   14  H   UNL     1       6.304  27.007  49.099  1.00  0.00     0.280 HD
BRANCH   5  15
HETATM   15  C   UNL     1       4.055  30.522  49.799  1.00  0.00    -0.020 A 
HETATM   16  C   UNL     1       4.651  30.662  51.047  1.00  0.00     0.059 A 
HETATM   17  S   UNL     1       3.565  31.146  52.273  1.00  0.00    -0.113 SA
HETATM   18  C   UNL     1       2.285  31.268  51.158  1.00  0.00     0.050 A 
HETATM   19  C   UNL     1       2.672  30.902  49.887  1.00  0.00     0.017 A 
ENDBRANCH   5  15
ENDBRANCH   2   3
ENDBRANCH   1   2
BRANCH   1  20
HETATM   20  N   UNL     1       4.871  25.379  51.974  1.00  0.00    -0.357 N 
HETATM   21  C   UNL     1       6.139  25.417  52.528  1.00  0.00     0.253 C 
HETATM   22  O   UNL     1       7.138  25.521  51.821  1.00  0.00    -0.271 OA
HETATM   23  H   UNL     1       4.072  25.483  52.597  1.00  0.00     0.162 HD
BRANCH  21  24
HETATM   24  C   UNL     1       6.227  25.317  54.090  1.00  0.00     0.314 C 
BRANCH  24  25
HETATM   25  N   UNL     1       7.282  24.320  54.615  1.00  0.00    -0.050 N 
HETATM   26  H   UNL     1       8.193  24.770  54.459  1.00  0.00     0.281 HD
HETATM   27  C   UNL     1       7.161  24.069  56.115  1.00  0.00     0.262 C 
HETATM   28  C   UNL     1       8.308  23.167  56.582  1.00  0.00     0.195 C 
HETATM   29  O   UNL     1       8.302  21.933  55.861  1.00  0.00    -0.388 OA
HETATM   30  C   UNL     1       8.495  22.134  54.456  1.00  0.00     0.195 C 
HETATM   31  C   UNL     1       7.358  22.982  53.869  1.00  0.00     0.262 C 
ENDBRANCH  24  25
BRANCH  24  32
HETATM   32  C   UNL     1       6.356  26.673  54.745  1.00  0.00    -0.001 A 
HETATM   33  C   UNL     1       5.273  27.306  55.355  1.00  0.00     0.126 A 
HETATM   34  N   UNL     1       5.335  28.526  55.918  1.00  0.00    -0.272 NA
HETATM   35  C   UNL     1       6.520  29.174  55.881  1.00  0.00     0.116 A 
HETATM   36  C   UNL     1       7.653  28.641  55.296  1.00  0.00     0.020 A 
HETATM   37  C   UNL     1       7.569  27.375  54.718  1.00  0.00     0.012 A 
ENDBRANCH  24  32
ENDBRANCH  21  24
ENDBRANCH   1  20
TORSDOF 7
ENDMDL
MODEL 8
REMARK VINA RESULT:      -8.1      7.906     11.843
REMARK  7 active torsions:
REMARK  status: ('A' for Active; 'I' for Inactive)
REMARK    1  A    between atoms: C_6  and  C_7 
REMARK    2  A    between atoms: N_13  and  C_15 
REMARK    3  A    between atoms: C_15  and  C_16 
REMARK    4  A    between atoms: C_16  and  N_17 
REMARK       I    between atoms: N_17  and  C_18 
REMARK    5  A    between atoms: C_18  and  C_19 
REMARK    6  A    between atoms: C_19  and  N_20 
REMARK    7  A    between atoms: C_19  and  C_27 
ROOT
HETATM    1  C   UNL     1       5.269  26.582  50.553  1.00  0.00     0.150 C 
ENDROOT
BRANCH   1   2
HETATM    2  C   UNL     1       4.763  28.001  50.208  1.00  0.00     0.255 C 
BRANCH   2   3
HETATM    3  N   UNL     1       4.168  28.731  51.401  1.00  0.00    -0.063 N 
HETATM    4  C   UNL     1       2.659  28.885  51.471  1.00  0.00     0.272 C 
HETATM    5  C   UNL     1       1.987  29.789  50.406  1.00  0.00     0.188 C 
HETATM    6  O   UNL     1       2.396  31.169  50.450  1.00  0.00    -0.339 OA
HETATM    7  C   UNL     1       3.627  31.517  49.991  1.00  0.00     0.077 A 
HETATM    8  C   UNL     1       4.825  31.000  50.488  1.00  0.00     0.001 A 
HETATM    9  C   UNL     1       3.645  32.530  49.027  1.00  0.00     0.037 A 
HETATM   10  C   UNL     1       6.037  31.446  49.929  1.00  0.00     0.012 A 
HETATM   11  C   UNL     1       4.853  30.060  51.648  1.00  0.00     0.276 C 
HETATM   12  C   UNL     1       6.047  32.412  48.922  1.00  0.00     0.001 A 
HETATM   13  C   UNL     1       4.851  32.965  48.481  1.00  0.00     0.003 A 
HETATM   14  H   UNL     1       4.420  28.177  52.230  1.00  0.00     0.280 HD
BRANCH   5  15
HETATM   15  C   UNL     1       1.808  29.132  49.042  1.00  0.00    -0.020 A 
HETATM   16  C   UNL     1       1.375  27.819  48.904  1.00  0.00     0.059 A 
HETATM   17  S   UNL     1       1.277  27.298  47.280  1.00  0.00    -0.113 SA
HETATM   18  C   UNL     1       1.725  28.837  46.709  1.00  0.00     0.050 A 
HETATM   19  C   UNL     1       1.987  29.714  47.740  1.00  0.00     0.017 A 
ENDBRANCH   5  15
ENDBRANCH   2   3
ENDBRANCH   1   2
BRANCH   1  20
HETATM   20  N   UNL     1       6.049  26.453  51.790  1.00  0.00    -0.357 N 
HETATM   21  C   UNL     1       5.746  25.523  52.769  1.00  0.00     0.253 C 
HETATM   22  O   UNL     1       4.684  24.905  52.752  1.00  0.00    -0.271 OA
HETATM   23  H   UNL     1       7.005  26.799  51.735  1.00  0.00     0.162 HD
BRANCH  21  24
HETATM   24  C   UNL     1       6.822  25.306  53.889  1.00  0.00     0.314 C 
BRANCH  24  25
HETATM   25  N   UNL     1       6.483  25.963  55.245  1.00  0.00    -0.050 N 
HETATM   26  H   UNL     1       6.169  25.196  55.854  1.00  0.00     0.281 HD
HETATM   27  C   UNL     1       7.699  26.594  55.914  1.00  0.00     0.262 C 
HETATM   28  C   UNL     1       7.311  27.118  57.302  1.00  0.00     0.195 C 
HETATM   29  O   UNL     1       6.242  28.061  57.201  1.00  0.00    -0.388 OA
HETATM   30  C   UNL     1       5.060  27.472  56.648  1.00  0.00     0.195 C 
HETATM   31  C   UNL     1       5.322  26.965  55.223  1.00  0.00     0.262 C 
ENDBRANCH  24  25
BRANCH  24  32
HETATM   32  C   UNL     1       7.204  23.852  54.044  1.00  0.00    -0.001 A 
HETATM   33  C   UNL     1       7.193  23.213  55.283  1.00  0.00     0.126 A 
HETATM   34  N   UNL     1       7.558  21.932  55.472  1.00  0.00    -0.272 NA
HETATM   35  C   UNL     1       7.964  21.231  54.392  1.00  0.00     0.116 A 
HETATM   36  C   UNL     1       8.020  21.770  53.120  1.00  0.00     0.020 A 
HETATM   37  C   UNL     1       7.637  23.098  52.945  1.00  0.00     0.012 A 
ENDBRANCH  24  32
ENDBRANCH  21  24
ENDBRANCH   1  20
TORSDOF 7
ENDMDL
MODEL 9
REMARK VINA RESULT:      -8.1      6.594     11.852
REMARK  7 active torsions:
REMARK  status: ('A' for Active; 'I' for Inactive)
REMARK    1  A    between atoms: C_6  and  C_7 
REMARK    2  A    between atoms: N_13  and  C_15 
REMARK    3  A    between atoms: C_15  and  C_16 
REMARK    4  A    between atoms: C_16  and  N_17 
REMARK       I    between atoms: N_17  and  C_18 
REMARK    5  A    between atoms: C_18  and  C_19 
REMARK    6  A    between atoms: C_19  and  N_20 
REMARK    7  A    between atoms: C_19  and  C_27 
ROOT
HETATM    1  C   UNL     1       4.499  29.340  52.295  1.00  0.00     0.150 C 
ENDROOT
BRANCH   1   2
HETATM    2  C   UNL     1       4.069  28.502  51.070  1.00  0.00     0.255 C 
BRANCH   2   3
HETATM    3  N   UNL     1       5.115  28.473  49.967  1.00  0.00    -0.063 N 
HETATM    4  C   UNL     1       5.605  29.797  49.405  1.00  0.00     0.272 C 
HETATM    5  C   UNL     1       4.586  30.650  48.606  1.00  0.00     0.188 C 
HETATM    6  O   UNL     1       4.089  30.022  47.410  1.00  0.00    -0.339 OA
HETATM    7  C   UNL     1       3.186  29.011  47.511  1.00  0.00     0.077 A 
HETATM    8  C   UNL     1       3.412  27.823  48.208  1.00  0.00     0.001 A 
HETATM    9  C   UNL     1       2.010  29.179  46.773  1.00  0.00     0.037 A 
HETATM   10  C   UNL     1       2.396  26.849  48.234  1.00  0.00     0.012 A 
HETATM   11  C   UNL     1       4.730  27.527  48.848  1.00  0.00     0.276 C 
HETATM   12  C   UNL     1       1.198  27.049  47.546  1.00  0.00     0.001 A 
HETATM   13  C   UNL     1       1.011  28.208  46.804  1.00  0.00     0.003 A 
HETATM   14  H   UNL     1       5.948  28.030  50.375  1.00  0.00     0.280 HD
BRANCH   5  15
HETATM   15  C   UNL     1       3.607  31.436  49.471  1.00  0.00    -0.020 A 
HETATM   16  C   UNL     1       4.007  32.515  50.250  1.00  0.00     0.059 A 
HETATM   17  S   UNL     1       2.737  33.217  51.150  1.00  0.00    -0.113 SA
HETATM   18  C   UNL     1       1.598  32.159  50.460  1.00  0.00     0.050 A 
HETATM   19  C   UNL     1       2.185  31.260  49.596  1.00  0.00     0.017 A 
ENDBRANCH   5  15
ENDBRANCH   2   3
ENDBRANCH   1   2
BRANCH   1  20
HETATM   20  N   UNL     1       5.752  28.940  52.947  1.00  0.00    -0.357 N 
HETATM   21  C   UNL     1       5.867  27.778  53.690  1.00  0.00     0.253 C 
HETATM   22  O   UNL     1       4.875  27.134  54.021  1.00  0.00    -0.271 OA
HETATM   23  H   UNL     1       6.597  29.334  52.538  1.00  0.00     0.162 HD
BRANCH  21  24
HETATM   24  C   UNL     1       7.319  27.337  54.083  1.00  0.00     0.314 C 
BRANCH  24  25
HETATM   25  N   UNL     1       7.798  27.845  55.461  1.00  0.00    -0.050 N 
HETATM   26  H   UNL     1       8.269  27.045  55.904  1.00  0.00     0.281 HD
HETATM   27  C   UNL     1       8.828  28.964  55.350  1.00  0.00     0.262 C 
HETATM   28  C   UNL     1       9.342  29.333  56.747  1.00  0.00     0.195 C 
HETATM   29  O   UNL     1       8.258  29.724  57.593  1.00  0.00    -0.388 OA
HETATM   30  C   UNL     1       7.314  28.663  57.778  1.00  0.00     0.195 C 
HETATM   31  C   UNL     1       6.688  28.254  56.437  1.00  0.00     0.262 C 
ENDBRANCH  24  25
BRANCH  24  32
HETATM   32  C   UNL     1       7.530  25.848  53.925  1.00  0.00    -0.001 A 
HETATM   33  C   UNL     1       7.592  24.990  55.022  1.00  0.00     0.126 A 
HETATM   34  N   UNL     1       7.811  23.666  54.930  1.00  0.00    -0.272 NA
HETATM   35  C   UNL     1       7.988  23.145  53.696  1.00  0.00     0.116 A 
HETATM   36  C   UNL     1       7.953  23.907  52.543  1.00  0.00     0.020 A 
HETATM   37  C   UNL     1       7.723  25.277  52.660  1.00  0.00     0.012 A 
ENDBRANCH  24  32
ENDBRANCH  21  24
ENDBRANCH   1  20
TORSDOF 7
ENDMDL
MODEL 10
REMARK VINA RESULT:      -8.0      3.440      8.930
REMARK  7 active torsions:
REMARK  status: ('A' for Active; 'I' for Inactive)
REMARK    1  A    between atoms: C_6  and  C_7 
REMARK    2  A    between atoms: N_13  and  C_15 
REMARK    3  A    between atoms: C_15  and  C_16 
REMARK    4  A    between atoms: C_16  and  N_17 
REMARK       I    between atoms: N_17  and  C_18 
REMARK    5  A    between atoms: C_18  and  C_19 
REMARK    6  A    between atoms: C_19  and  N_20 
REMARK    7  A    between atoms: C_19  and  C_27 
ROOT
HETATM    1  C   UNL     1       4.911  28.902  57.261  1.00  0.00     0.150 C 
ENDROOT
BRANCH   1   2
HETATM    2  C   UNL     1       5.755  27.638  56.980  1.00  0.00     0.255 C 
BRANCH   2   3
HETATM    3  N   UNL     1       7.218  27.944  56.701  1.00  0.00    -0.063 N 
HETATM    4  C   UNL     1       7.557  28.782  55.481  1.00  0.00     0.272 C 
HETATM    5  C   UNL     1       7.279  28.157  54.090  1.00  0.00     0.188 C 
HETATM    6  O   UNL     1       8.034  26.964  53.810  1.00  0.00    -0.339 OA
HETATM    7  C   UNL     1       7.692  25.797  54.420  1.00  0.00     0.077 A 
HETATM    8  C   UNL     1       7.654  25.617  55.803  1.00  0.00     0.001 A 
HETATM    9  C   UNL     1       7.468  24.714  53.563  1.00  0.00     0.037 A 
HETATM   10  C   UNL     1       7.289  24.356  56.311  1.00  0.00     0.012 A 
HETATM   11  C   UNL     1       8.074  26.696  56.747  1.00  0.00     0.276 C 
HETATM   12  C   UNL     1       7.004  23.295  55.451  1.00  0.00     0.001 A 
HETATM   13  C   UNL     1       7.108  23.470  54.076  1.00  0.00     0.003 A 
HETATM   14  H   UNL     1       7.554  28.492  57.504  1.00  0.00     0.280 HD
BRANCH   5  15
HETATM   15  C   UNL     1       5.818  28.206  53.656  1.00  0.00    -0.020 A 
HETATM   16  C   UNL     1       5.111  29.399  53.569  1.00  0.00     0.059 A 
HETATM   17  S   UNL     1       3.485  29.198  53.088  1.00  0.00    -0.113 SA
HETATM   18  C   UNL     1       3.700  27.521  52.896  1.00  0.00     0.050 A 
HETATM   19  C   UNL     1       4.974  27.121  53.237  1.00  0.00     0.017 A 
ENDBRANCH   5  15
ENDBRANCH   2   3
ENDBRANCH   1   2
BRANCH   1  20
HETATM   20  N   UNL     1       5.560  29.951  58.057  1.00  0.00    -0.357 N 
HETATM   21  C   UNL     1       5.722  31.246  57.595  1.00  0.00     0.253 C 
HETATM   22  O   UNL     1       5.527  31.527  56.415  1.00  0.00    -0.271 OA
HETATM   23  H   UNL     1       5.546  29.800  59.065  1.00  0.00     0.162 HD
BRANCH  21  24
HETATM   24  C   UNL     1       6.165  32.318  58.648  1.00  0.00     0.314 C 
BRANCH  24  25
HETATM   25  N   UNL     1       5.002  33.050  59.354  1.00  0.00    -0.050 N 
HETATM   26  H   UNL     1       5.409  33.467  60.201  1.00  0.00     0.281 HD
HETATM   27  C   UNL     1       4.436  34.195  58.521  1.00  0.00     0.262 C 
HETATM   28  C   UNL     1       3.372  34.945  59.331  1.00  0.00     0.195 C 
HETATM   29  O   UNL     1       2.332  34.054  59.740  1.00  0.00    -0.388 OA
HETATM   30  C   UNL     1       2.825  33.012  60.590  1.00  0.00     0.195 C 
HETATM   31  C   UNL     1       3.861  32.154  59.851  1.00  0.00     0.262 C 
ENDBRANCH  24  25
BRANCH  24  32
HETATM   32  C   UNL     1       7.170  31.770  59.636  1.00  0.00    -0.001 A 
HETATM   33  C   UNL     1       8.077  30.770  59.291  1.00  0.00     0.126 A 
HETATM   34  N   UNL     1       8.964  30.230  60.147  1.00  0.00    -0.272 NA
HETATM   35  C   UNL     1       8.965  30.687  61.417  1.00  0.00     0.116 A 
HETATM   36  C   UNL     1       8.104  31.671  61.867  1.00  0.00     0.020 A 
HETATM   37  C   UNL     1       7.193  32.218  60.965  1.00  0.00     0.012 A 
ENDBRANCH  24  32
ENDBRANCH  21  24
ENDBRANCH   1  20
TORSDOF 7
ENDMDL
