MODEL 1
REMARK VINA RESULT:     -10.2      0.000      0.000
REMARK  10 active torsions:
REMARK  status: ('A' for Active; 'I' for Inactive)
REMARK    1  A    between atoms: N_2  and  C_4 
REMARK    2  A    between atoms: C_4  and  C_5 
REMARK    3  A    between atoms: N_6  and  C_7 
REMARK    4  A    between atoms: C_11  and  N_12 
REMARK    5  A    between atoms: C_15  and  C_16 
REMARK       I    between atoms: C_16  and  N_17 
REMARK    6  A    between atoms: N_17  and  N_18 
REMARK    7  A    between atoms: C_19  and  C_20 
REMARK    8  A    between atoms: C_23  and  O_24 
REMARK    9  A    between atoms: O_24  and  C_25 
REMARK   10  A    between atoms: C_25  and  C_26 
ROOT
HETATM    1  C   UNL     1       5.325  31.691  58.341  1.00  0.00     0.293 C 
HETATM    2  N   UNL     1       5.536  30.323  58.411  1.00  0.00    -0.242 N 
HETATM    3  O   UNL     1       5.646  32.438  57.421  1.00  0.00    -0.264 OA
HETATM    4  H   UNL     1       5.069  29.812  59.159  1.00  0.00     0.192 HD
ENDROOT
BRANCH   1   5
HETATM    5  C   UNL     1       4.652  32.239  59.515  1.00  0.00     0.170 A 
HETATM    6  C   UNL     1       5.225  32.554  60.740  1.00  0.00     0.096 A 
HETATM    7  N   UNL     1       4.151  32.964  61.528  1.00  0.00    -0.215 N 
HETATM    8  N   UNL     1       3.033  32.993  60.758  1.00  0.00     0.012 NA
HETATM    9  N   UNL     1       3.319  32.527  59.554  1.00  0.00    -0.152 NA
BRANCH   6  10
HETATM   10  C   UNL     1       6.648  32.571  61.155  1.00  0.00     0.295 C 
BRANCH  10  11
HETATM   11  N   UNL     1       7.270  31.212  61.351  1.00  0.00    -0.073 N 
HETATM   12  C   UNL     1       7.866  31.084  62.729  1.00  0.00     0.269 C 
HETATM   13  H   UNL     1       6.502  30.525  61.316  1.00  0.00     0.279 HD
HETATM   14  C   UNL     1       8.281  30.850  60.300  1.00  0.00     0.269 C 
ENDBRANCH  10  11
ENDBRANCH   6  10
BRANCH   7  15
HETATM   15  C   UNL     1       4.131  33.255  62.912  1.00  0.00     0.225 A 
HETATM   16  N   UNL     1       4.777  32.458  63.770  1.00  0.00    -0.081 NA
HETATM   17  O   UNL     1       4.515  33.038  65.017  1.00  0.00    -0.103 OA
HETATM   18  N   UNL     1       3.695  34.149  64.891  1.00  0.00    -0.083 NA
HETATM   19  C   UNL     1       3.454  34.283  63.589  1.00  0.00     0.201 A 
BRANCH  19  20
HETATM   20  N   UNL     1       2.695  35.249  63.049  1.00  0.00    -0.379 N 
HETATM   21  H   UNL     1       1.902  35.011  62.460  1.00  0.00     0.158 HD
HETATM   22  H   UNL     1       2.945  36.237  63.048  1.00  0.00     0.158 HD
ENDBRANCH  19  20
ENDBRANCH   7  15
ENDBRANCH   1   5
BRANCH   2  23
HETATM   23  N   UNL     1       5.960  29.523  57.381  1.00  0.00    -0.184 NA
HETATM   24  C   UNL     1       5.401  28.364  57.218  1.00  0.00     0.150 C 
BRANCH  24  25
HETATM   25  C   UNL     1       5.861  27.411  56.189  1.00  0.00    -0.017 A 
HETATM   26  C   UNL     1       6.824  27.770  55.242  1.00  0.00     0.016 A 
HETATM   27  C   UNL     1       7.257  26.834  54.295  1.00  0.00     0.037 A 
HETATM   28  C   UNL     1       6.735  25.539  54.300  1.00  0.00     0.069 A 
HETATM   29  C   UNL     1       5.765  25.193  55.246  1.00  0.00     0.037 A 
HETATM   30  C   UNL     1       5.324  26.122  56.188  1.00  0.00     0.016 A 
BRANCH  28  31
HETATM   31  O   UNL     1       7.077  24.527  53.451  1.00  0.00    -0.347 OA
BRANCH  31  32
HETATM   32  C   UNL     1       8.402  24.006  53.546  1.00  0.00     0.219 C 
BRANCH  32  33
HETATM   33  C   UNL     1       8.346  22.761  54.386  1.00  0.00     0.026 A 
HETATM   34  C   UNL     1       8.586  22.764  55.768  1.00  0.00     0.045 A 
HETATM   35 CL   UNL     1       9.000  24.213  56.616  1.00  0.00    -0.084 Cl
HETATM   36  C   UNL     1       8.497  21.581  56.513  1.00  0.00     0.024 A 
HETATM   37  C   UNL     1       8.161  20.380  55.890  1.00  0.00     0.005 A 
HETATM   38  C   UNL     1       7.911  20.363  54.521  1.00  0.00     0.043 A 
HETATM   39  C   UNL     1       8.002  21.545  53.788  1.00  0.00     0.126 A 
HETATM   40  F   UNL     1       7.753  21.495  52.471  1.00  0.00    -0.205 F 
ENDBRANCH  32  33
ENDBRANCH  31  32
ENDBRANCH  28  31
ENDBRANCH  24  25
ENDBRANCH   2  23
TORSDOF 10
ENDMDL
MODEL 2
REMARK VINA RESULT:      -9.9      2.059      3.352
REMARK  10 active torsions:
REMARK  status: ('A' for Active; 'I' for Inactive)
REMARK    1  A    between atoms: N_2  and  C_4 
REMARK    2  A    between atoms: C_4  and  C_5 
REMARK    3  A    between atoms: N_6  and  C_7 
REMARK    4  A    between atoms: C_11  and  N_12 
REMARK    5  A    between atoms: C_15  and  C_16 
REMARK       I    between atoms: C_16  and  N_17 
REMARK    6  A    between atoms: N_17  and  N_18 
REMARK    7  A    between atoms: C_19  and  C_20 
REMARK    8  A    between atoms: C_23  and  O_24 
REMARK    9  A    between atoms: O_24  and  C_25 
REMARK   10  A    between atoms: C_25  and  C_26 
ROOT
HETATM    1  C   UNL     1       8.114  31.807  60.368  1.00  0.00     0.293 C 
HETATM    2  N   UNL     1       7.972  30.457  60.094  1.00  0.00    -0.242 N 
HETATM    3  O   UNL     1       8.515  32.676  59.598  1.00  0.00    -0.264 OA
HETATM    4  H   UNL     1       7.471  29.887  60.775  1.00  0.00     0.192 HD
ENDROOT
BRANCH   1   5
HETATM    5  C   UNL     1       7.734  32.169  61.731  1.00  0.00     0.170 A 
HETATM    6  C   UNL     1       6.451  32.388  62.214  1.00  0.00     0.096 A 
HETATM    7  N   UNL     1       6.643  32.775  63.539  1.00  0.00    -0.215 N 
HETATM    8  N   UNL     1       7.965  32.673  63.835  1.00  0.00     0.012 NA
HETATM    9  N   UNL     1       8.632  32.340  62.744  1.00  0.00    -0.152 NA
BRANCH   6  10
HETATM   10  C   UNL     1       5.135  32.182  61.565  1.00  0.00     0.295 C 
BRANCH  10  11
HETATM   11  N   UNL     1       4.591  33.383  60.833  1.00  0.00    -0.073 N 
HETATM   12  C   UNL     1       3.093  33.462  60.965  1.00  0.00     0.269 C 
HETATM   13  H   UNL     1       4.957  34.216  61.317  1.00  0.00     0.279 HD
HETATM   14  C   UNL     1       5.002  33.451  59.389  1.00  0.00     0.269 C 
ENDBRANCH  10  11
ENDBRANCH   6  10
BRANCH   7  15
HETATM   15  C   UNL     1       5.691  33.266  64.463  1.00  0.00     0.225 A 
HETATM   16  N   UNL     1       4.387  33.198  64.176  1.00  0.00    -0.081 NA
HETATM   17  O   UNL     1       3.775  33.788  65.288  1.00  0.00    -0.103 OA
HETATM   18  N   UNL     1       4.717  34.227  66.206  1.00  0.00    -0.083 NA
HETATM   19  C   UNL     1       5.905  33.907  65.696  1.00  0.00     0.201 A 
BRANCH  19  20
HETATM   20  N   UNL     1       7.082  34.162  66.286  1.00  0.00    -0.379 N 
HETATM   21  H   UNL     1       7.151  34.201  67.299  1.00  0.00     0.158 HD
HETATM   22  H   UNL     1       7.910  34.488  65.791  1.00  0.00     0.158 HD
ENDBRANCH  19  20
ENDBRANCH   7  15
ENDBRANCH   1   5
BRANCH   2  23
HETATM   23  N   UNL     1       8.063  29.876  58.854  1.00  0.00    -0.184 NA
HETATM   24  C   UNL     1       7.074  30.012  58.026  1.00  0.00     0.150 C 
BRANCH  24  25
HETATM   25  C   UNL     1       7.060  29.345  56.709  1.00  0.00    -0.017 A 
HETATM   26  C   UNL     1       8.238  28.893  56.109  1.00  0.00     0.016 A 
HETATM   27  C   UNL     1       8.187  28.242  54.870  1.00  0.00     0.037 A 
HETATM   28  C   UNL     1       6.959  28.033  54.238  1.00  0.00     0.069 A 
HETATM   29  C   UNL     1       5.787  28.497  54.843  1.00  0.00     0.037 A 
HETATM   30  C   UNL     1       5.831  29.153  56.074  1.00  0.00     0.016 A 
BRANCH  28  31
HETATM   31  O   UNL     1       6.762  27.401  53.045  1.00  0.00    -0.347 OA
BRANCH  31  32
HETATM   32  C   UNL     1       5.860  26.296  53.025  1.00  0.00     0.219 C 
BRANCH  32  33
HETATM   33  C   UNL     1       6.619  25.078  53.475  1.00  0.00     0.026 A 
HETATM   34  C   UNL     1       6.487  24.532  54.760  1.00  0.00     0.045 A 
HETATM   35 CL   UNL     1       5.454  25.243  55.949  1.00  0.00    -0.084 Cl
HETATM   36  C   UNL     1       7.197  23.380  55.124  1.00  0.00     0.024 A 
HETATM   37  C   UNL     1       8.042  22.755  54.209  1.00  0.00     0.005 A 
HETATM   38  C   UNL     1       8.176  23.280  52.927  1.00  0.00     0.043 A 
HETATM   39  C   UNL     1       7.466  24.426  52.573  1.00  0.00     0.126 A 
HETATM   40  F   UNL     1       7.615  24.906  51.330  1.00  0.00    -0.205 F 
ENDBRANCH  32  33
ENDBRANCH  31  32
ENDBRANCH  28  31
ENDBRANCH  24  25
ENDBRANCH   2  23
TORSDOF 10
ENDMDL
MODEL 3
REMARK VINA RESULT:      -9.6      1.326      1.576
REMARK  10 active torsions:
REMARK  status: ('A' for Active; 'I' for Inactive)
REMARK    1  A    between atoms: N_2  and  C_4 
REMARK    2  A    between atoms: C_4  and  C_5 
REMARK    3  A    between atoms: N_6  and  C_7 
REMARK    4  A    between atoms: C_11  and  N_12 
REMARK    5  A    between atoms: C_15  and  C_16 
REMARK       I    between atoms: C_16  and  N_17 
REMARK    6  A    between atoms: N_17  and  N_18 
REMARK    7  A    between atoms: C_19  and  C_20 
REMARK    8  A    between atoms: C_23  and  O_24 
REMARK    9  A    between atoms: O_24  and  C_25 
REMARK   10  A    between atoms: C_25  and  C_26 
ROOT
HETATM    1  C   UNL     1       5.374  32.557  59.050  1.00  0.00     0.293 C 
HETATM    2  N   UNL     1       5.755  31.229  59.149  1.00  0.00    -0.242 N 
HETATM    3  O   UNL     1       5.561  33.306  58.095  1.00  0.00    -0.264 OA
HETATM    4  H   UNL     1       5.386  30.689  59.931  1.00  0.00     0.192 HD
ENDROOT
BRANCH   1   5
HETATM    5  C   UNL     1       4.686  33.057  60.237  1.00  0.00     0.170 A 
HETATM    6  C   UNL     1       5.252  33.367  61.466  1.00  0.00     0.096 A 
HETATM    7  N   UNL     1       4.167  33.723  62.265  1.00  0.00    -0.215 N 
HETATM    8  N   UNL     1       3.046  33.730  61.498  1.00  0.00     0.012 NA
HETATM    9  N   UNL     1       3.344  33.299  60.285  1.00  0.00    -0.152 NA
BRANCH   6  10
HETATM   10  C   UNL     1       6.674  33.423  61.878  1.00  0.00     0.295 C 
BRANCH  10  11
HETATM   11  N   UNL     1       7.104  32.340  62.834  1.00  0.00    -0.073 N 
HETATM   12  C   UNL     1       7.905  32.912  63.974  1.00  0.00     0.269 C 
HETATM   13  H   UNL     1       6.245  31.962  63.260  1.00  0.00     0.279 HD
HETATM   14  C   UNL     1       7.847  31.211  62.177  1.00  0.00     0.269 C 
ENDBRANCH  10  11
ENDBRANCH   6  10
BRANCH   7  15
HETATM   15  C   UNL     1       4.142  33.984  63.655  1.00  0.00     0.225 A 
HETATM   16  N   UNL     1       4.455  33.016  64.522  1.00  0.00    -0.081 NA
HETATM   17  O   UNL     1       4.296  33.628  65.770  1.00  0.00    -0.103 OA
HETATM   18  N   UNL     1       3.862  34.938  65.635  1.00  0.00    -0.083 NA
HETATM   19  C   UNL     1       3.763  35.160  64.326  1.00  0.00     0.201 A 
BRANCH  19  20
HETATM   20  N   UNL     1       3.372  36.319  63.777  1.00  0.00    -0.379 N 
HETATM   21  H   UNL     1       2.938  36.332  62.857  1.00  0.00     0.158 HD
HETATM   22  H   UNL     1       3.621  37.236  64.142  1.00  0.00     0.158 HD
ENDBRANCH  19  20
ENDBRANCH   7  15
ENDBRANCH   1   5
BRANCH   2  23
HETATM   23  N   UNL     1       6.233  30.452  58.124  1.00  0.00    -0.184 NA
HETATM   24  C   UNL     1       5.387  29.823  57.369  1.00  0.00     0.150 C 
BRANCH  24  25
HETATM   25  C   UNL     1       5.825  28.901  56.302  1.00  0.00    -0.017 A 
HETATM   26  C   UNL     1       7.138  28.910  55.826  1.00  0.00     0.016 A 
HETATM   27  C   UNL     1       7.528  28.005  54.831  1.00  0.00     0.037 A 
HETATM   28  C   UNL     1       6.609  27.086  54.321  1.00  0.00     0.069 A 
HETATM   29  C   UNL     1       5.295  27.092  54.798  1.00  0.00     0.037 A 
HETATM   30  C   UNL     1       4.898  27.995  55.785  1.00  0.00     0.016 A 
BRANCH  28  31
HETATM   31  O   UNL     1       6.856  26.141  53.368  1.00  0.00    -0.347 OA
BRANCH  31  32
HETATM   32  C   UNL     1       6.174  24.893  53.484  1.00  0.00     0.219 C 
BRANCH  32  33
HETATM   33  C   UNL     1       7.144  23.893  54.050  1.00  0.00     0.026 A 
HETATM   34  C   UNL     1       7.247  23.627  55.423  1.00  0.00     0.045 A 
HETATM   35 CL   UNL     1       6.277  24.461  56.587  1.00  0.00    -0.084 Cl
HETATM   36  C   UNL     1       8.149  22.668  55.901  1.00  0.00     0.024 A 
HETATM   37  C   UNL     1       8.955  21.955  55.014  1.00  0.00     0.005 A 
HETATM   38  C   UNL     1       8.857  22.202  53.648  1.00  0.00     0.043 A 
HETATM   39  C   UNL     1       7.957  23.159  53.182  1.00  0.00     0.126 A 
HETATM   40  F   UNL     1       7.886  23.372  51.859  1.00  0.00    -0.205 F 
ENDBRANCH  32  33
ENDBRANCH  31  32
ENDBRANCH  28  31
ENDBRANCH  24  25
ENDBRANCH   2  23
TORSDOF 10
ENDMDL
MODEL 4
REMARK VINA RESULT:      -9.2      6.135     12.779
REMARK  10 active torsions:
REMARK  status: ('A' for Active; 'I' for Inactive)
REMARK    1  A    between atoms: N_2  and  C_4 
REMARK    2  A    between atoms: C_4  and  C_5 
REMARK    3  A    between atoms: N_6  and  C_7 
REMARK    4  A    between atoms: C_11  and  N_12 
REMARK    5  A    between atoms: C_15  and  C_16 
REMARK       I    between atoms: C_16  and  N_17 
REMARK    6  A    between atoms: N_17  and  N_18 
REMARK    7  A    between atoms: C_19  and  C_20 
REMARK    8  A    between atoms: C_23  and  O_24 
REMARK    9  A    between atoms: O_24  and  C_25 
REMARK   10  A    between atoms: C_25  and  C_26 
ROOT
HETATM    1  C   UNL     1       7.674  31.688  59.656  1.00  0.00     0.293 C 
HETATM    2  N   UNL     1       6.641  31.656  60.580  1.00  0.00    -0.242 N 
HETATM    3  O   UNL     1       8.526  32.564  59.537  1.00  0.00    -0.264 OA
HETATM    4  H   UNL     1       6.114  30.787  60.667  1.00  0.00     0.192 HD
ENDROOT
BRANCH   1   5
HETATM    5  C   UNL     1       7.692  30.536  58.760  1.00  0.00     0.170 A 
HETATM    6  C   UNL     1       6.822  30.276  57.710  1.00  0.00     0.096 A 
HETATM    7  N   UNL     1       7.221  29.029  57.232  1.00  0.00    -0.215 N 
HETATM    8  N   UNL     1       8.339  28.645  57.900  1.00  0.00     0.012 NA
HETATM    9  N   UNL     1       8.610  29.530  58.843  1.00  0.00    -0.152 NA
BRANCH   6  10
HETATM   10  C   UNL     1       5.760  31.121  57.115  1.00  0.00     0.295 C 
BRANCH  10  11
HETATM   11  N   UNL     1       4.423  31.045  57.808  1.00  0.00    -0.073 N 
HETATM   12  C   UNL     1       3.387  30.414  56.915  1.00  0.00     0.269 C 
HETATM   13  H   UNL     1       4.536  30.398  58.602  1.00  0.00     0.279 HD
HETATM   14  C   UNL     1       3.937  32.366  58.335  1.00  0.00     0.269 C 
ENDBRANCH  10  11
ENDBRANCH   6  10
BRANCH   7  15
HETATM   15  C   UNL     1       6.591  28.210  56.266  1.00  0.00     0.225 A 
HETATM   16  N   UNL     1       5.540  27.459  56.612  1.00  0.00    -0.081 NA
HETATM   17  O   UNL     1       5.213  26.787  55.430  1.00  0.00    -0.103 OA
HETATM   18  N   UNL     1       6.087  27.118  54.406  1.00  0.00    -0.083 NA
HETATM   19  C   UNL     1       6.943  27.997  54.922  1.00  0.00     0.201 A 
BRANCH  19  20
HETATM   20  N   UNL     1       7.952  28.567  54.246  1.00  0.00    -0.379 N 
HETATM   21  H   UNL     1       8.390  28.080  53.469  1.00  0.00     0.158 HD
HETATM   22  H   UNL     1       8.441  29.406  54.552  1.00  0.00     0.158 HD
ENDBRANCH  19  20
ENDBRANCH   7  15
ENDBRANCH   1   5
BRANCH   2  23
HETATM   23  N   UNL     1       6.501  32.494  61.657  1.00  0.00    -0.184 NA
HETATM   24  C   UNL     1       6.382  31.977  62.840  1.00  0.00     0.150 C 
BRANCH  24  25
HETATM   25  C   UNL     1       6.141  32.808  64.036  1.00  0.00    -0.017 A 
HETATM   26  C   UNL     1       4.849  33.173  64.421  1.00  0.00     0.016 A 
HETATM   27  C   UNL     1       4.652  33.940  65.576  1.00  0.00     0.037 A 
HETATM   28  C   UNL     1       5.746  34.332  66.350  1.00  0.00     0.069 A 
HETATM   29  C   UNL     1       7.036  33.969  65.952  1.00  0.00     0.037 A 
HETATM   30  C   UNL     1       7.239  33.211  64.798  1.00  0.00     0.016 A 
BRANCH  28  31
HETATM   31  O   UNL     1       5.699  35.063  67.502  1.00  0.00    -0.347 OA
BRANCH  31  32
HETATM   32  C   UNL     1       5.246  34.403  68.683  1.00  0.00     0.219 C 
BRANCH  32  33
HETATM   33  C   UNL     1       6.402  34.334  69.642  1.00  0.00     0.026 A 
HETATM   34  C   UNL     1       6.639  33.226  70.468  1.00  0.00     0.045 A 
HETATM   35 CL   UNL     1       5.591  31.851  70.470  1.00  0.00    -0.084 Cl
HETATM   36  C   UNL     1       7.745  33.197  71.327  1.00  0.00     0.024 A 
HETATM   37  C   UNL     1       8.633  34.272  71.369  1.00  0.00     0.005 A 
HETATM   38  C   UNL     1       8.415  35.374  70.548  1.00  0.00     0.043 A 
HETATM   39  C   UNL     1       7.313  35.394  69.696  1.00  0.00     0.126 A 
HETATM   40  F   UNL     1       7.132  36.470  68.916  1.00  0.00    -0.205 F 
ENDBRANCH  32  33
ENDBRANCH  31  32
ENDBRANCH  28  31
ENDBRANCH  24  25
ENDBRANCH   2  23
TORSDOF 10
ENDMDL
MODEL 5
REMARK VINA RESULT:      -9.0      1.336      1.554
REMARK  10 active torsions:
REMARK  status: ('A' for Active; 'I' for Inactive)
REMARK    1  A    between atoms: N_2  and  C_4 
REMARK    2  A    between atoms: C_4  and  C_5 
REMARK    3  A    between atoms: N_6  and  C_7 
REMARK    4  A    between atoms: C_11  and  N_12 
REMARK    5  A    between atoms: C_15  and  C_16 
REMARK       I    between atoms: C_16  and  N_17 
REMARK    6  A    between atoms: N_17  and  N_18 
REMARK    7  A    between atoms: C_19  and  C_20 
REMARK    8  A    between atoms: C_23  and  O_24 
REMARK    9  A    between atoms: O_24  and  C_25 
REMARK   10  A    between atoms: C_25  and  C_26 
ROOT
HETATM    1  C   UNL     1       5.459  32.643  58.727  1.00  0.00     0.293 C 
HETATM    2  N   UNL     1       5.768  31.348  59.112  1.00  0.00    -0.242 N 
HETATM    3  O   UNL     1       5.711  33.168  57.646  1.00  0.00    -0.264 OA
HETATM    4  H   UNL     1       5.349  31.000  59.974  1.00  0.00     0.192 HD
ENDROOT
BRANCH   1   5
HETATM    5  C   UNL     1       4.766  33.409  59.758  1.00  0.00     0.170 A 
HETATM    6  C   UNL     1       5.241  33.739  61.020  1.00  0.00     0.096 A 
HETATM    7  N   UNL     1       4.175  34.400  61.628  1.00  0.00    -0.215 N 
HETATM    8  N   UNL     1       3.178  34.545  60.718  1.00  0.00     0.012 NA
HETATM    9  N   UNL     1       3.512  33.923  59.601  1.00  0.00    -0.152 NA
BRANCH   6  10
HETATM   10  C   UNL     1       6.585  33.553  61.615  1.00  0.00     0.295 C 
BRANCH  10  11
HETATM   11  N   UNL     1       6.693  32.421  62.605  1.00  0.00    -0.073 N 
HETATM   12  C   UNL     1       7.159  32.919  63.948  1.00  0.00     0.269 C 
HETATM   13  H   UNL     1       5.736  32.068  62.757  1.00  0.00     0.279 HD
HETATM   14  C   UNL     1       7.552  31.282  62.133  1.00  0.00     0.269 C 
ENDBRANCH  10  11
ENDBRANCH   6  10
BRANCH   7  15
HETATM   15  C   UNL     1       4.049  34.824  62.972  1.00  0.00     0.225 A 
HETATM   16  N   UNL     1       4.988  35.605  63.516  1.00  0.00    -0.081 NA
HETATM   17  O   UNL     1       4.541  35.788  64.829  1.00  0.00    -0.103 OA
HETATM   18  N   UNL     1       3.364  35.093  65.061  1.00  0.00    -0.083 NA
HETATM   19  C   UNL     1       3.059  34.493  63.913  1.00  0.00     0.201 A 
BRANCH  19  20
HETATM   20  N   UNL     1       1.981  33.717  63.720  1.00  0.00    -0.379 N 
HETATM   21  H   UNL     1       1.790  32.939  64.345  1.00  0.00     0.158 HD
HETATM   22  H   UNL     1       1.403  33.742  62.883  1.00  0.00     0.158 HD
ENDBRANCH  19  20
ENDBRANCH   7  15
ENDBRANCH   1   5
BRANCH   2  23
HETATM   23  N   UNL     1       6.234  30.355  58.287  1.00  0.00    -0.184 NA
HETATM   24  C   UNL     1       5.377  29.598  57.675  1.00  0.00     0.150 C 
BRANCH  24  25
HETATM   25  C   UNL     1       5.798  28.455  56.841  1.00  0.00    -0.017 A 
HETATM   26  C   UNL     1       7.030  27.826  57.037  1.00  0.00     0.016 A 
HETATM   27  C   UNL     1       7.389  26.728  56.245  1.00  0.00     0.037 A 
HETATM   28  C   UNL     1       6.513  26.253  55.268  1.00  0.00     0.069 A 
HETATM   29  C   UNL     1       5.286  26.895  55.074  1.00  0.00     0.037 A 
HETATM   30  C   UNL     1       4.925  27.994  55.854  1.00  0.00     0.016 A 
BRANCH  28  31
HETATM   31  O   UNL     1       6.725  25.188  54.441  1.00  0.00    -0.347 OA
BRANCH  31  32
HETATM   32  C   UNL     1       8.068  24.733  54.283  1.00  0.00     0.219 C 
BRANCH  32  33
HETATM   33  C   UNL     1       8.053  23.231  54.348  1.00  0.00     0.026 A 
HETATM   34  C   UNL     1       8.111  22.521  55.556  1.00  0.00     0.045 A 
HETATM   35 CL   UNL     1       8.237  23.328  57.080  1.00  0.00    -0.084 Cl
HETATM   36  C   UNL     1       8.070  21.121  55.567  1.00  0.00     0.024 A 
HETATM   37  C   UNL     1       7.962  20.411  54.372  1.00  0.00     0.005 A 
HETATM   38  C   UNL     1       7.895  21.102  53.166  1.00  0.00     0.043 A 
HETATM   39  C   UNL     1       7.937  22.495  53.165  1.00  0.00     0.126 A 
HETATM   40  F   UNL     1       7.867  23.131  51.986  1.00  0.00    -0.205 F 
ENDBRANCH  32  33
ENDBRANCH  31  32
ENDBRANCH  28  31
ENDBRANCH  24  25
ENDBRANCH   2  23
TORSDOF 10
ENDMDL
MODEL 6
REMARK VINA RESULT:      -8.8      1.951      2.328
REMARK  10 active torsions:
REMARK  status: ('A' for Active; 'I' for Inactive)
REMARK    1  A    between atoms: N_2  and  C_4 
REMARK    2  A    between atoms: C_4  and  C_5 
REMARK    3  A    between atoms: N_6  and  C_7 
REMARK    4  A    between atoms: C_11  and  N_12 
REMARK    5  A    between atoms: C_15  and  C_16 
REMARK       I    between atoms: C_16  and  N_17 
REMARK    6  A    between atoms: N_17  and  N_18 
REMARK    7  A    between atoms: C_19  and  C_20 
REMARK    8  A    between atoms: C_23  and  O_24 
REMARK    9  A    between atoms: O_24  and  C_25 
REMARK   10  A    between atoms: C_25  and  C_26 
ROOT
HETATM    1  C   UNL     1       3.744  31.428  59.246  1.00  0.00     0.293 C 
HETATM    2  N   UNL     1       4.730  31.020  58.361  1.00  0.00    -0.242 N 
HETATM    3  O   UNL     1       2.723  30.814  59.544  1.00  0.00    -0.264 OA
HETATM    4  H   UNL     1       5.596  31.556  58.341  1.00  0.00     0.192 HD
ENDROOT
BRANCH   1   5
HETATM    5  C   UNL     1       4.004  32.733  59.848  1.00  0.00     0.170 A 
HETATM    6  C   UNL     1       4.420  32.989  61.147  1.00  0.00     0.096 A 
HETATM    7  N   UNL     1       4.444  34.380  61.233  1.00  0.00    -0.215 N 
HETATM    8  N   UNL     1       4.168  34.896  60.008  1.00  0.00     0.012 NA
HETATM    9  N   UNL     1       3.870  33.913  59.177  1.00  0.00    -0.152 NA
BRANCH   6  10
HETATM   10  C   UNL     1       4.850  32.057  62.216  1.00  0.00     0.295 C 
BRANCH  10  11
HETATM   11  N   UNL     1       6.325  31.746  62.235  1.00  0.00    -0.073 N 
HETATM   12  C   UNL     1       7.021  32.492  63.343  1.00  0.00     0.269 C 
HETATM   13  H   UNL     1       6.415  30.747  62.474  1.00  0.00     0.279 HD
HETATM   14  C   UNL     1       7.013  31.984  60.920  1.00  0.00     0.269 C 
ENDBRANCH  10  11
ENDBRANCH   6  10
BRANCH   7  15
HETATM   15  C   UNL     1       4.649  35.191  62.374  1.00  0.00     0.225 A 
HETATM   16  N   UNL     1       5.801  35.853  62.524  1.00  0.00    -0.081 NA
HETATM   17  O   UNL     1       5.647  36.508  63.751  1.00  0.00    -0.103 OA
HETATM   18  N   UNL     1       4.424  36.206  64.330  1.00  0.00    -0.083 NA
HETATM   19  C   UNL     1       3.805  35.389  63.481  1.00  0.00     0.201 A 
BRANCH  19  20
HETATM   20  N   UNL     1       2.585  34.866  63.676  1.00  0.00    -0.379 N 
HETATM   21  H   UNL     1       2.444  34.133  64.366  1.00  0.00     0.158 HD
HETATM   22  H   UNL     1       1.789  35.033  63.064  1.00  0.00     0.158 HD
ENDBRANCH  19  20
ENDBRANCH   7  15
ENDBRANCH   1   5
BRANCH   2  23
HETATM   23  N   UNL     1       4.845  29.768  57.810  1.00  0.00    -0.184 NA
HETATM   24  C   UNL     1       5.948  29.450  57.209  1.00  0.00     0.150 C 
BRANCH  24  25
HETATM   25  C   UNL     1       6.116  28.157  56.516  1.00  0.00    -0.017 A 
HETATM   26  C   UNL     1       5.294  27.065  56.804  1.00  0.00     0.016 A 
HETATM   27  C   UNL     1       5.463  25.860  56.111  1.00  0.00     0.037 A 
HETATM   28  C   UNL     1       6.446  25.751  55.125  1.00  0.00     0.069 A 
HETATM   29  C   UNL     1       7.269  26.847  54.851  1.00  0.00     0.037 A 
HETATM   30  C   UNL     1       7.111  28.048  55.542  1.00  0.00     0.016 A 
BRANCH  28  31
HETATM   31  O   UNL     1       6.708  24.648  54.364  1.00  0.00    -0.347 OA
BRANCH  31  32
HETATM   32  C   UNL     1       8.054  24.177  54.327  1.00  0.00     0.219 C 
BRANCH  32  33
HETATM   33  C   UNL     1       8.104  22.876  55.079  1.00  0.00     0.026 A 
HETATM   34  C   UNL     1       8.018  21.628  54.444  1.00  0.00     0.045 A 
HETATM   35 CL   UNL     1       7.813  21.490  52.733  1.00  0.00    -0.084 Cl
HETATM   36  C   UNL     1       8.094  20.441  55.184  1.00  0.00     0.024 A 
HETATM   37  C   UNL     1       8.266  20.484  56.567  1.00  0.00     0.005 A 
HETATM   38  C   UNL     1       8.363  21.715  57.209  1.00  0.00     0.043 A 
HETATM   39  C   UNL     1       8.286  22.890  56.465  1.00  0.00     0.126 A 
HETATM   40  F   UNL     1       8.385  24.060  57.113  1.00  0.00    -0.205 F 
ENDBRANCH  32  33
ENDBRANCH  31  32
ENDBRANCH  28  31
ENDBRANCH  24  25
ENDBRANCH   2  23
TORSDOF 10
ENDMDL
MODEL 7
REMARK VINA RESULT:      -8.7      2.723      3.416
REMARK  10 active torsions:
REMARK  status: ('A' for Active; 'I' for Inactive)
REMARK    1  A    between atoms: N_2  and  C_4 
REMARK    2  A    between atoms: C_4  and  C_5 
REMARK    3  A    between atoms: N_6  and  C_7 
REMARK    4  A    between atoms: C_11  and  N_12 
REMARK    5  A    between atoms: C_15  and  C_16 
REMARK       I    between atoms: C_16  and  N_17 
REMARK    6  A    between atoms: N_17  and  N_18 
REMARK    7  A    between atoms: C_19  and  C_20 
REMARK    8  A    between atoms: C_23  and  O_24 
REMARK    9  A    between atoms: O_24  and  C_25 
REMARK   10  A    between atoms: C_25  and  C_26 
ROOT
HETATM    1  C   UNL     1       3.457  31.813  58.855  1.00  0.00     0.293 C 
HETATM    2  N   UNL     1       4.148  31.249  57.795  1.00  0.00    -0.242 N 
HETATM    3  O   UNL     1       2.895  31.215  59.768  1.00  0.00    -0.264 OA
HETATM    4  H   UNL     1       4.701  31.873  57.208  1.00  0.00     0.192 HD
ENDROOT
BRANCH   1   5
HETATM    5  C   UNL     1       3.427  33.273  58.822  1.00  0.00     0.170 A 
HETATM    6  C   UNL     1       3.990  34.144  59.744  1.00  0.00     0.096 A 
HETATM    7  N   UNL     1       3.615  35.409  59.297  1.00  0.00    -0.215 N 
HETATM    8  N   UNL     1       2.966  35.277  58.112  1.00  0.00     0.012 NA
HETATM    9  N   UNL     1       2.820  33.993  57.835  1.00  0.00    -0.152 NA
BRANCH   6  10
HETATM   10  C   UNL     1       4.876  33.873  60.901  1.00  0.00     0.295 C 
BRANCH  10  11
HETATM   11  N   UNL     1       4.289  32.971  61.956  1.00  0.00    -0.073 N 
HETATM   12  C   UNL     1       3.123  33.632  62.644  1.00  0.00     0.269 C 
HETATM   13  H   UNL     1       3.894  32.155  61.464  1.00  0.00     0.279 HD
HETATM   14  C   UNL     1       5.292  32.481  62.963  1.00  0.00     0.269 C 
ENDBRANCH  10  11
ENDBRANCH   6  10
BRANCH   7  15
HETATM   15  C   UNL     1       3.785  36.660  59.938  1.00  0.00     0.225 A 
HETATM   16  N   UNL     1       3.306  36.847  61.172  1.00  0.00    -0.081 NA
HETATM   17  O   UNL     1       3.635  38.177  61.453  1.00  0.00    -0.103 OA
HETATM   18  N   UNL     1       4.275  38.774  60.378  1.00  0.00    -0.083 NA
HETATM   19  C   UNL     1       4.366  37.837  59.437  1.00  0.00     0.201 A 
BRANCH  19  20
HETATM   20  N   UNL     1       4.929  38.017  58.232  1.00  0.00    -0.379 N 
HETATM   21  H   UNL     1       4.613  38.769  57.625  1.00  0.00     0.158 HD
HETATM   22  H   UNL     1       5.557  37.349  57.790  1.00  0.00     0.158 HD
ENDBRANCH  19  20
ENDBRANCH   7  15
ENDBRANCH   1   5
BRANCH   2  23
HETATM   23  N   UNL     1       4.502  29.929  57.679  1.00  0.00    -0.184 NA
HETATM   24  C   UNL     1       5.755  29.628  57.538  1.00  0.00     0.150 C 
BRANCH  24  25
HETATM   25  C   UNL     1       6.206  28.239  57.320  1.00  0.00    -0.017 A 
HETATM   26  C   UNL     1       7.503  27.835  57.648  1.00  0.00     0.016 A 
HETATM   27  C   UNL     1       7.891  26.503  57.453  1.00  0.00     0.037 A 
HETATM   28  C   UNL     1       6.981  25.576  56.942  1.00  0.00     0.069 A 
HETATM   29  C   UNL     1       5.689  25.993  56.608  1.00  0.00     0.037 A 
HETATM   30  C   UNL     1       5.297  27.319  56.793  1.00  0.00     0.016 A 
BRANCH  28  31
HETATM   31  O   UNL     1       7.218  24.250  56.718  1.00  0.00    -0.347 OA
BRANCH  31  32
HETATM   32  C   UNL     1       8.512  23.883  56.243  1.00  0.00     0.219 C 
BRANCH  32  33
HETATM   33  C   UNL     1       8.331  22.822  55.194  1.00  0.00     0.026 A 
HETATM   34  C   UNL     1       8.256  21.455  55.499  1.00  0.00     0.045 A 
HETATM   35 CL   UNL     1       8.400  20.876  57.122  1.00  0.00    -0.084 Cl
HETATM   36  C   UNL     1       8.061  20.505  54.489  1.00  0.00     0.024 A 
HETATM   37  C   UNL     1       7.931  20.907  53.160  1.00  0.00     0.005 A 
HETATM   38  C   UNL     1       7.994  22.261  52.843  1.00  0.00     0.043 A 
HETATM   39  C   UNL     1       8.188  23.199  53.855  1.00  0.00     0.126 A 
HETATM   40  F   UNL     1       8.242  24.495  53.516  1.00  0.00    -0.205 F 
ENDBRANCH  32  33
ENDBRANCH  31  32
ENDBRANCH  28  31
ENDBRANCH  24  25
ENDBRANCH   2  23
TORSDOF 10
ENDMDL
MODEL 8
REMARK VINA RESULT:      -8.5      5.354     12.244
REMARK  10 active torsions:
REMARK  status: ('A' for Active; 'I' for Inactive)
REMARK    1  A    between atoms: N_2  and  C_4 
REMARK    2  A    between atoms: C_4  and  C_5 
REMARK    3  A    between atoms: N_6  and  C_7 
REMARK    4  A    between atoms: C_11  and  N_12 
REMARK    5  A    between atoms: C_15  and  C_16 
REMARK       I    between atoms: C_16  and  N_17 
REMARK    6  A    between atoms: N_17  and  N_18 
REMARK    7  A    between atoms: C_19  and  C_20 
REMARK    8  A    between atoms: C_23  and  O_24 
REMARK    9  A    between atoms: O_24  and  C_25 
REMARK   10  A    between atoms: C_25  and  C_26 
ROOT
HETATM    1  C   UNL     1       6.688  25.577  56.994  1.00  0.00     0.293 C 
HETATM    2  N   UNL     1       7.347  26.796  57.002  1.00  0.00    -0.242 N 
HETATM    3  O   UNL     1       5.547  25.355  57.390  1.00  0.00    -0.264 OA
HETATM    4  H   UNL     1       8.226  26.860  56.490  1.00  0.00     0.192 HD
ENDROOT
BRANCH   1   5
HETATM    5  C   UNL     1       7.488  24.484  56.449  1.00  0.00     0.170 A 
HETATM    6  C   UNL     1       7.288  23.814  55.251  1.00  0.00     0.096 A 
HETATM    7  N   UNL     1       8.269  22.823  55.241  1.00  0.00    -0.215 N 
HETATM    8  N   UNL     1       9.066  22.991  56.327  1.00  0.00     0.012 NA
HETATM    9  N   UNL     1       8.585  23.967  57.076  1.00  0.00    -0.152 NA
BRANCH   6  10
HETATM   10  C   UNL     1       6.340  24.090  54.146  1.00  0.00     0.295 C 
BRANCH  10  11
HETATM   11  N   UNL     1       6.549  25.407  53.442  1.00  0.00    -0.073 N 
HETATM   12  C   UNL     1       5.331  26.285  53.566  1.00  0.00     0.269 C 
HETATM   13  H   UNL     1       7.299  25.899  53.949  1.00  0.00     0.279 HD
HETATM   14  C   UNL     1       6.958  25.267  52.002  1.00  0.00     0.269 C 
ENDBRANCH  10  11
ENDBRANCH   6  10
BRANCH   7  15
HETATM   15  C   UNL     1       8.435  21.753  54.331  1.00  0.00     0.225 A 
HETATM   16  N   UNL     1       8.254  21.957  53.022  1.00  0.00    -0.081 NA
HETATM   17  O   UNL     1       8.476  20.695  52.459  1.00  0.00    -0.103 OA
HETATM   18  N   UNL     1       8.755  19.752  53.437  1.00  0.00    -0.083 NA
HETATM   19  C   UNL     1       8.727  20.404  54.597  1.00  0.00     0.201 A 
BRANCH  19  20
HETATM   20  N   UNL     1       8.950  19.841  55.794  1.00  0.00    -0.379 N 
HETATM   21  H   UNL     1       9.045  20.420  56.624  1.00  0.00     0.158 HD
HETATM   22  H   UNL     1       9.199  18.863  55.927  1.00  0.00     0.158 HD
ENDBRANCH  19  20
ENDBRANCH   7  15
ENDBRANCH   1   5
BRANCH   2  23
HETATM   23  N   UNL     1       6.776  28.015  57.268  1.00  0.00    -0.184 NA
HETATM   24  C   UNL     1       7.447  28.881  57.960  1.00  0.00     0.150 C 
BRANCH  24  25
HETATM   25  C   UNL     1       6.869  30.179  58.361  1.00  0.00    -0.017 A 
HETATM   26  C   UNL     1       7.517  31.015  59.274  1.00  0.00     0.016 A 
HETATM   27  C   UNL     1       6.955  32.251  59.613  1.00  0.00     0.037 A 
HETATM   28  C   UNL     1       5.751  32.655  59.034  1.00  0.00     0.069 A 
HETATM   29  C   UNL     1       5.105  31.808  58.129  1.00  0.00     0.037 A 
HETATM   30  C   UNL     1       5.656  30.572  57.791  1.00  0.00     0.016 A 
BRANCH  28  31
HETATM   31  O   UNL     1       5.101  33.835  59.259  1.00  0.00    -0.347 OA
BRANCH  31  32
HETATM   32  C   UNL     1       4.083  33.847  60.259  1.00  0.00     0.219 C 
BRANCH  32  33
HETATM   33  C   UNL     1       4.676  34.436  61.508  1.00  0.00     0.026 A 
HETATM   34  C   UNL     1       5.090  33.653  62.596  1.00  0.00     0.045 A 
HETATM   35 CL   UNL     1       4.920  31.933  62.596  1.00  0.00    -0.084 Cl
HETATM   36  C   UNL     1       5.659  34.247  63.730  1.00  0.00     0.024 A 
HETATM   37  C   UNL     1       5.830  35.629  63.790  1.00  0.00     0.005 A 
HETATM   38  C   UNL     1       5.432  36.418  62.715  1.00  0.00     0.043 A 
HETATM   39  C   UNL     1       4.867  35.819  61.591  1.00  0.00     0.126 A 
HETATM   40  F   UNL     1       4.496  36.606  60.570  1.00  0.00    -0.205 F 
ENDBRANCH  32  33
ENDBRANCH  31  32
ENDBRANCH  28  31
ENDBRANCH  24  25
ENDBRANCH   2  23
TORSDOF 10
ENDMDL
MODEL 9
REMARK VINA RESULT:      -8.5      2.632      3.297
REMARK  10 active torsions:
REMARK  status: ('A' for Active; 'I' for Inactive)
REMARK    1  A    between atoms: N_2  and  C_4 
REMARK    2  A    between atoms: C_4  and  C_5 
REMARK    3  A    between atoms: N_6  and  C_7 
REMARK    4  A    between atoms: C_11  and  N_12 
REMARK    5  A    between atoms: C_15  and  C_16 
REMARK       I    between atoms: C_16  and  N_17 
REMARK    6  A    between atoms: N_17  and  N_18 
REMARK    7  A    between atoms: C_19  and  C_20 
REMARK    8  A    between atoms: C_23  and  O_24 
REMARK    9  A    between atoms: O_24  and  C_25 
REMARK   10  A    between atoms: C_25  and  C_26 
ROOT
HETATM    1  C   UNL     1       4.392  31.856  58.671  1.00  0.00     0.293 C 
HETATM    2  N   UNL     1       5.560  31.524  58.003  1.00  0.00    -0.242 N 
HETATM    3  O   UNL     1       3.584  31.078  59.170  1.00  0.00    -0.264 OA
HETATM    4  H   UNL     1       6.212  32.279  57.791  1.00  0.00     0.192 HD
ENDROOT
BRANCH   1   5
HETATM    5  C   UNL     1       4.154  33.294  58.751  1.00  0.00     0.170 A 
HETATM    6  C   UNL     1       4.441  34.134  59.818  1.00  0.00     0.096 A 
HETATM    7  N   UNL     1       3.954  35.378  59.419  1.00  0.00    -0.215 N 
HETATM    8  N   UNL     1       3.514  35.282  58.138  1.00  0.00     0.012 NA
HETATM    9  N   UNL     1       3.600  34.025  57.740  1.00  0.00    -0.152 NA
BRANCH   6  10
HETATM   10  C   UNL     1       5.178  33.866  61.076  1.00  0.00     0.295 C 
BRANCH  10  11
HETATM   11  N   UNL     1       4.567  32.808  61.959  1.00  0.00    -0.073 N 
HETATM   12  C   UNL     1       3.195  33.219  62.426  1.00  0.00     0.269 C 
HETATM   13  H   UNL     1       4.422  31.976  61.368  1.00  0.00     0.279 HD
HETATM   14  C   UNL     1       5.431  32.419  63.125  1.00  0.00     0.269 C 
ENDBRANCH  10  11
ENDBRANCH   6  10
BRANCH   7  15
HETATM   15  C   UNL     1       3.843  36.568  60.177  1.00  0.00     0.225 A 
HETATM   16  N   UNL     1       3.163  36.564  61.328  1.00  0.00    -0.081 NA
HETATM   17  O   UNL     1       3.249  37.891  61.764  1.00  0.00    -0.103 OA
HETATM   18  N   UNL     1       3.950  38.672  60.858  1.00  0.00    -0.083 NA
HETATM   19  C   UNL     1       4.316  37.856  59.873  1.00  0.00     0.201 A 
BRANCH  19  20
HETATM   20  N   UNL     1       5.020  38.230  58.794  1.00  0.00    -0.379 N 
HETATM   21  H   UNL     1       4.567  38.310  57.888  1.00  0.00     0.158 HD
HETATM   22  H   UNL     1       6.036  38.290  58.769  1.00  0.00     0.158 HD
ENDBRANCH  19  20
ENDBRANCH   7  15
ENDBRANCH   1   5
BRANCH   2  23
HETATM   23  N   UNL     1       6.129  30.277  57.953  1.00  0.00    -0.184 NA
HETATM   24  C   UNL     1       5.634  29.397  57.139  1.00  0.00     0.150 C 
BRANCH  24  25
HETATM   25  C   UNL     1       6.134  28.009  57.089  1.00  0.00    -0.017 A 
HETATM   26  C   UNL     1       7.428  27.685  57.505  1.00  0.00     0.016 A 
HETATM   27  C   UNL     1       7.862  26.355  57.469  1.00  0.00     0.037 A 
HETATM   28  C   UNL     1       7.000  25.348  57.030  1.00  0.00     0.069 A 
HETATM   29  C   UNL     1       5.711  25.683  56.608  1.00  0.00     0.037 A 
HETATM   30  C   UNL     1       5.273  27.008  56.634  1.00  0.00     0.016 A 
BRANCH  28  31
HETATM   31  O   UNL     1       7.285  24.015  56.960  1.00  0.00    -0.347 OA
BRANCH  31  32
HETATM   32  C   UNL     1       8.561  23.639  56.445  1.00  0.00     0.219 C 
BRANCH  32  33
HETATM   33  C   UNL     1       8.335  22.652  55.334  1.00  0.00     0.026 A 
HETATM   34  C   UNL     1       8.064  23.043  54.014  1.00  0.00     0.045 A 
HETATM   35 CL   UNL     1       7.936  24.708  53.566  1.00  0.00    -0.084 Cl
HETATM   36  C   UNL     1       7.884  22.087  53.007  1.00  0.00     0.024 A 
HETATM   37  C   UNL     1       7.981  20.727  53.301  1.00  0.00     0.005 A 
HETATM   38  C   UNL     1       8.259  20.325  54.604  1.00  0.00     0.043 A 
HETATM   39  C   UNL     1       8.435  21.283  55.600  1.00  0.00     0.126 A 
HETATM   40  F   UNL     1       8.704  20.863  56.845  1.00  0.00    -0.205 F 
ENDBRANCH  32  33
ENDBRANCH  31  32
ENDBRANCH  28  31
ENDBRANCH  24  25
ENDBRANCH   2  23
TORSDOF 10
ENDMDL
MODEL 10
REMARK VINA RESULT:      -8.3      5.446     12.264
REMARK  10 active torsions:
REMARK  status: ('A' for Active; 'I' for Inactive)
REMARK    1  A    between atoms: N_2  and  C_4 
REMARK    2  A    between atoms: C_4  and  C_5 
REMARK    3  A    between atoms: N_6  and  C_7 
REMARK    4  A    between atoms: C_11  and  N_12 
REMARK    5  A    between atoms: C_15  and  C_16 
REMARK       I    between atoms: C_16  and  N_17 
REMARK    6  A    between atoms: N_17  and  N_18 
REMARK    7  A    between atoms: C_19  and  C_20 
REMARK    8  A    between atoms: C_23  and  O_24 
REMARK    9  A    between atoms: O_24  and  C_25 
REMARK   10  A    between atoms: C_25  and  C_26 
ROOT
HETATM    1  C   UNL     1       6.283  25.636  56.662  1.00  0.00     0.293 C 
HETATM    2  N   UNL     1       6.826  26.879  56.379  1.00  0.00    -0.242 N 
HETATM    3  O   UNL     1       5.208  25.411  57.210  1.00  0.00    -0.264 OA
HETATM    4  H   UNL     1       7.646  26.908  55.772  1.00  0.00     0.192 HD
ENDROOT
BRANCH   1   5
HETATM    5  C   UNL     1       7.127  24.520  56.242  1.00  0.00     0.170 A 
HETATM    6  C   UNL     1       7.060  23.822  55.045  1.00  0.00     0.096 A 
HETATM    7  N   UNL     1       8.020  22.821  55.175  1.00  0.00    -0.215 N 
HETATM    8  N   UNL     1       8.687  23.007  56.343  1.00  0.00     0.012 NA
HETATM    9  N   UNL     1       8.134  24.008  57.006  1.00  0.00    -0.152 NA
BRANCH   6  10
HETATM   10  C   UNL     1       6.252  24.081  53.829  1.00  0.00     0.295 C 
BRANCH  10  11
HETATM   11  N   UNL     1       6.603  25.346  53.088  1.00  0.00    -0.073 N 
HETATM   12  C   UNL     1       5.617  25.616  51.983  1.00  0.00     0.269 C 
HETATM   13  H   UNL     1       6.491  26.123  53.757  1.00  0.00     0.279 HD
HETATM   14  C   UNL     1       8.011  25.370  52.563  1.00  0.00     0.269 C 
ENDBRANCH  10  11
ENDBRANCH   6  10
BRANCH   7  15
HETATM   15  C   UNL     1       8.278  21.726  54.317  1.00  0.00     0.225 A 
HETATM   16  N   UNL     1       8.000  21.821  53.012  1.00  0.00    -0.081 NA
HETATM   17  O   UNL     1       8.356  20.566  52.508  1.00  0.00    -0.103 OA
HETATM   18  N   UNL     1       8.812  19.730  53.517  1.00  0.00    -0.083 NA
HETATM   19  C   UNL     1       8.761  20.446  54.638  1.00  0.00     0.201 A 
BRANCH  19  20
HETATM   20  N   UNL     1       9.122  19.994  55.849  1.00  0.00    -0.379 N 
HETATM   21  H   UNL     1       9.700  20.565  56.459  1.00  0.00     0.158 HD
HETATM   22  H   UNL     1       8.998  19.032  56.159  1.00  0.00     0.158 HD
ENDBRANCH  19  20
ENDBRANCH   7  15
ENDBRANCH   1   5
BRANCH   2  23
HETATM   23  N   UNL     1       6.174  28.081  56.478  1.00  0.00    -0.184 NA
HETATM   24  C   UNL     1       6.439  28.854  57.485  1.00  0.00     0.150 C 
BRANCH  24  25
HETATM   25  C   UNL     1       5.716  30.122  57.709  1.00  0.00    -0.017 A 
HETATM   26  C   UNL     1       4.326  30.198  57.596  1.00  0.00     0.016 A 
HETATM   27  C   UNL     1       3.669  31.410  57.840  1.00  0.00     0.037 A 
HETATM   28  C   UNL     1       4.399  32.542  58.207  1.00  0.00     0.069 A 
HETATM   29  C   UNL     1       5.791  32.457  58.309  1.00  0.00     0.037 A 
HETATM   30  C   UNL     1       6.453  31.255  58.061  1.00  0.00     0.016 A 
BRANCH  28  31
HETATM   31  O   UNL     1       3.890  33.776  58.490  1.00  0.00    -0.347 OA
BRANCH  31  32
HETATM   32  C   UNL     1       3.201  33.937  59.729  1.00  0.00     0.219 C 
BRANCH  32  33
HETATM   33  C   UNL     1       4.070  34.770  60.631  1.00  0.00     0.026 A 
HETATM   34  C   UNL     1       4.019  36.171  60.652  1.00  0.00     0.045 A 
HETATM   35 CL   UNL     1       2.966  37.060  59.608  1.00  0.00    -0.084 Cl
HETATM   36  C   UNL     1       4.831  36.904  61.527  1.00  0.00     0.024 A 
HETATM   37  C   UNL     1       5.698  36.247  62.400  1.00  0.00     0.005 A 
HETATM   38  C   UNL     1       5.752  34.856  62.396  1.00  0.00     0.043 A 
HETATM   39  C   UNL     1       4.941  34.136  61.521  1.00  0.00     0.126 A 
HETATM   40  F   UNL     1       5.015  32.797  61.544  1.00  0.00    -0.205 F 
ENDBRANCH  32  33
ENDBRANCH  31  32
ENDBRANCH  28  31
ENDBRANCH  24  25
ENDBRANCH   2  23
TORSDOF 10
ENDMDL
