MODEL 1
REMARK VINA RESULT:      -9.2      0.000      0.000
REMARK  2 active torsions:
REMARK  status: ('A' for Active; 'I' for Inactive)
REMARK    1  A    between atoms: C_5  and  C_7 
REMARK    2  A    between atoms: C_5  and  O_6 
ROOT
HETATM    1  C   UNL     1       3.970  28.945  56.276  1.00  0.00     0.050 C 
HETATM    2  C   UNL     1       5.340  28.343  56.231  1.00  0.00    -0.035 A 
HETATM    3  C   UNL     1       5.657  27.269  55.414  1.00  0.00     0.051 A 
HETATM    4  C   UNL     1       6.930  26.683  55.396  1.00  0.00     0.018 A 
HETATM    5  C   UNL     1       6.960  25.567  54.376  1.00  0.00     0.198 A 
HETATM    6  C   UNL     1       5.474  25.564  53.871  1.00  0.00     0.266 A 
HETATM    7  O   UNL     1       4.953  24.850  53.028  1.00  0.00    -0.269 OA
HETATM    8  N   UNL     1       4.819  26.609  54.525  1.00  0.00    -0.323 N 
HETATM    9  C   UNL     1       7.939  27.170  56.212  1.00  0.00     0.013 A 
HETATM   10  C   UNL     1       7.641  28.237  57.061  1.00  0.00     0.001 A 
HETATM   11  C   UNL     1       6.358  28.814  57.073  1.00  0.00     0.009 A 
HETATM   12  H   UNL     1       3.847  26.820  54.355  1.00  0.00     0.169 HD
ENDROOT
BRANCH   5  13
HETATM   13  C   UNL     1       7.338  24.285  55.073  1.00  0.00     0.018 A 
HETATM   14  C   UNL     1       7.657  22.993  54.508  1.00  0.00     0.002 A 
HETATM   15  C   UNL     1       7.964  22.134  55.566  1.00  0.00     0.043 A 
HETATM   16  C   UNL     1       7.713  22.466  53.199  1.00  0.00     0.014 A 
HETATM   17  C   UNL     1       8.315  20.790  55.384  1.00  0.00     0.030 A 
HETATM   18  N   UNL     1       7.855  22.860  56.726  1.00  0.00    -0.365 N 
HETATM   19  C   UNL     1       8.352  20.298  54.078  1.00  0.00     0.002 A 
HETATM   20  C   UNL     1       8.056  21.122  52.998  1.00  0.00     0.001 A 
HETATM   21  H   UNL     1       8.037  22.496  57.651  1.00  0.00     0.165 HD
HETATM   22  C   UNL     1       7.478  24.141  56.446  1.00  0.00     0.100 A 
ENDBRANCH   5  13
BRANCH   5  23
HETATM   23  O   UNL     1       7.873  25.919  53.338  1.00  0.00    -0.371 OA
HETATM   24  H   UNL     1       8.763  25.841  53.715  1.00  0.00     0.212 HD
ENDBRANCH   5  23
TORSDOF 2
ENDMDL
MODEL 2
REMARK VINA RESULT:      -9.1      2.855      4.166
REMARK  2 active torsions:
REMARK  status: ('A' for Active; 'I' for Inactive)
REMARK    1  A    between atoms: C_5  and  C_7 
REMARK    2  A    between atoms: C_5  and  O_6 
ROOT
HETATM    1  C   UNL     1       8.969  31.863  59.649  1.00  0.00     0.050 C 
HETATM    2  C   UNL     1       9.223  30.963  58.481  1.00  0.00    -0.035 A 
HETATM    3  C   UNL     1       8.231  30.185  57.906  1.00  0.00     0.051 A 
HETATM    4  C   UNL     1       8.476  29.317  56.834  1.00  0.00     0.018 A 
HETATM    5  C   UNL     1       7.185  28.648  56.418  1.00  0.00     0.198 A 
HETATM    6  C   UNL     1       6.180  29.220  57.478  1.00  0.00     0.266 A 
HETATM    7  O   UNL     1       4.983  29.004  57.594  1.00  0.00    -0.269 OA
HETATM    8  N   UNL     1       6.893  30.118  58.273  1.00  0.00    -0.323 N 
HETATM    9  C   UNL     1       9.749  29.206  56.297  1.00  0.00     0.013 A 
HETATM   10  C   UNL     1      10.774  29.961  56.870  1.00  0.00     0.001 A 
HETATM   11  C   UNL     1      10.515  30.825  57.950  1.00  0.00     0.009 A 
HETATM   12  H   UNL     1       6.456  30.631  59.025  1.00  0.00     0.169 HD
ENDROOT
BRANCH   5  13
HETATM   13  C   UNL     1       7.357  27.155  56.528  1.00  0.00     0.018 A 
HETATM   14  C   UNL     1       7.463  26.164  55.482  1.00  0.00     0.002 A 
HETATM   15  C   UNL     1       7.633  24.919  56.094  1.00  0.00     0.043 A 
HETATM   16  C   UNL     1       7.431  26.199  54.070  1.00  0.00     0.014 A 
HETATM   17  C   UNL     1       7.765  23.724  55.376  1.00  0.00     0.030 A 
HETATM   18  N   UNL     1       7.645  25.131  57.450  1.00  0.00    -0.365 N 
HETATM   19  C   UNL     1       7.719  23.792  53.983  1.00  0.00     0.002 A 
HETATM   20  C   UNL     1       7.554  25.012  53.336  1.00  0.00     0.001 A 
HETATM   21  H   UNL     1       7.769  24.406  58.144  1.00  0.00     0.165 HD
HETATM   22  C   UNL     1       7.476  26.457  57.722  1.00  0.00     0.100 A 
ENDBRANCH   5  13
BRANCH   5  23
HETATM   23  O   UNL     1       6.857  29.068  55.095  1.00  0.00    -0.371 OA
HETATM   24  H   UNL     1       6.593  29.999  55.158  1.00  0.00     0.212 HD
ENDBRANCH   5  23
TORSDOF 2
ENDMDL
MODEL 3
REMARK VINA RESULT:      -9.0      2.586      4.092
REMARK  2 active torsions:
REMARK  status: ('A' for Active; 'I' for Inactive)
REMARK    1  A    between atoms: C_5  and  C_7 
REMARK    2  A    between atoms: C_5  and  O_6 
ROOT
HETATM    1  C   UNL     1       8.692  30.393  59.864  1.00  0.00     0.050 C 
HETATM    2  C   UNL     1       8.918  30.049  58.424  1.00  0.00    -0.035 A 
HETATM    3  C   UNL     1       7.942  29.463  57.634  1.00  0.00     0.051 A 
HETATM    4  C   UNL     1       8.164  29.110  56.297  1.00  0.00     0.018 A 
HETATM    5  C   UNL     1       6.897  28.532  55.707  1.00  0.00     0.198 A 
HETATM    6  C   UNL     1       5.941  28.543  56.952  1.00  0.00     0.266 A 
HETATM    7  O   UNL     1       4.776  28.181  57.025  1.00  0.00    -0.269 OA
HETATM    8  N   UNL     1       6.647  29.126  58.004  1.00  0.00    -0.323 N 
HETATM    9  C   UNL     1       9.395  29.344  55.703  1.00  0.00     0.013 A 
HETATM   10  C   UNL     1      10.404  29.914  56.482  1.00  0.00     0.001 A 
HETATM   11  C   UNL     1      10.170  30.258  57.826  1.00  0.00     0.009 A 
HETATM   12  H   UNL     1       6.235  29.259  58.916  1.00  0.00     0.169 HD
ENDROOT
BRANCH   5  13
HETATM   13  C   UNL     1       7.186  27.139  55.210  1.00  0.00     0.018 A 
HETATM   14  C   UNL     1       7.717  26.001  55.925  1.00  0.00     0.002 A 
HETATM   15  C   UNL     1       7.780  24.930  55.030  1.00  0.00     0.043 A 
HETATM   16  C   UNL     1       8.156  25.773  57.249  1.00  0.00     0.014 A 
HETATM   17  C   UNL     1       8.255  23.661  55.384  1.00  0.00     0.030 A 
HETATM   18  N   UNL     1       7.297  25.379  53.825  1.00  0.00    -0.365 N 
HETATM   19  C   UNL     1       8.689  23.472  56.697  1.00  0.00     0.002 A 
HETATM   20  C   UNL     1       8.641  24.512  57.619  1.00  0.00     0.001 A 
HETATM   21  H   UNL     1       7.210  24.810  52.994  1.00  0.00     0.165 HD
HETATM   22  C   UNL     1       6.946  26.693  53.918  1.00  0.00     0.100 A 
ENDBRANCH   5  13
BRANCH   5  23
HETATM   23  O   UNL     1       6.434  29.399  54.674  1.00  0.00    -0.371 OA
HETATM   24  H   UNL     1       7.216  29.854  54.324  1.00  0.00     0.212 HD
ENDBRANCH   5  23
TORSDOF 2
ENDMDL
MODEL 4
REMARK VINA RESULT:      -8.8      1.890      2.795
REMARK  2 active torsions:
REMARK  status: ('A' for Active; 'I' for Inactive)
REMARK    1  A    between atoms: C_5  and  C_7 
REMARK    2  A    between atoms: C_5  and  O_6 
ROOT
HETATM    1  C   UNL     1       8.096  29.011  58.230  1.00  0.00     0.050 C 
HETATM    2  C   UNL     1       7.915  28.555  56.816  1.00  0.00    -0.035 A 
HETATM    3  C   UNL     1       7.033  27.546  56.463  1.00  0.00     0.051 A 
HETATM    4  C   UNL     1       6.888  27.096  55.145  1.00  0.00     0.018 A 
HETATM    5  C   UNL     1       5.826  26.020  55.090  1.00  0.00     0.198 A 
HETATM    6  C   UNL     1       5.446  25.879  56.606  1.00  0.00     0.266 A 
HETATM    7  O   UNL     1       4.620  25.141  57.122  1.00  0.00    -0.269 OA
HETATM    8  N   UNL     1       6.192  26.829  57.304  1.00  0.00    -0.323 N 
HETATM    9  C   UNL     1       7.637  27.659  54.123  1.00  0.00     0.013 A 
HETATM   10  C   UNL     1       8.549  28.663  54.453  1.00  0.00     0.001 A 
HETATM   11  C   UNL     1       8.689  29.103  55.781  1.00  0.00     0.009 A 
HETATM   12  H   UNL     1       6.110  26.944  58.303  1.00  0.00     0.169 HD
ENDROOT
BRANCH   5  13
HETATM   13  C   UNL     1       6.438  24.763  54.526  1.00  0.00     0.018 A 
HETATM   14  C   UNL     1       7.227  23.750  55.188  1.00  0.00     0.002 A 
HETATM   15  C   UNL     1       7.541  22.772  54.241  1.00  0.00     0.043 A 
HETATM   16  C   UNL     1       7.710  23.565  56.503  1.00  0.00     0.014 A 
HETATM   17  C   UNL     1       8.306  21.637  54.535  1.00  0.00     0.030 A 
HETATM   18  N   UNL     1       6.963  23.154  53.055  1.00  0.00    -0.365 N 
HETATM   19  C   UNL     1       8.775  21.489  55.841  1.00  0.00     0.002 A 
HETATM   20  C   UNL     1       8.483  22.439  56.814  1.00  0.00     0.001 A 
HETATM   21  H   UNL     1       7.012  22.625  52.195  1.00  0.00     0.165 HD
HETATM   22  C   UNL     1       6.308  24.340  53.210  1.00  0.00     0.100 A 
ENDBRANCH   5  13
BRANCH   5  23
HETATM   23  O   UNL     1       4.731  26.496  54.310  1.00  0.00    -0.371 OA
HETATM   24  H   UNL     1       4.351  25.722  53.866  1.00  0.00     0.212 HD
ENDBRANCH   5  23
TORSDOF 2
ENDMDL
MODEL 5
REMARK VINA RESULT:      -8.8      2.024      3.056
REMARK  2 active torsions:
REMARK  status: ('A' for Active; 'I' for Inactive)
REMARK    1  A    between atoms: C_5  and  C_7 
REMARK    2  A    between atoms: C_5  and  O_6 
ROOT
HETATM    1  C   UNL     1       8.331  29.720  57.128  1.00  0.00     0.050 C 
HETATM    2  C   UNL     1       7.415  28.770  56.421  1.00  0.00    -0.035 A 
HETATM    3  C   UNL     1       7.536  27.394  56.531  1.00  0.00     0.051 A 
HETATM    4  C   UNL     1       6.701  26.505  55.843  1.00  0.00     0.018 A 
HETATM    5  C   UNL     1       7.065  25.083  56.207  1.00  0.00     0.198 A 
HETATM    6  C   UNL     1       8.294  25.308  57.156  1.00  0.00     0.266 A 
HETATM    7  O   UNL     1       8.973  24.476  57.740  1.00  0.00    -0.269 OA
HETATM    8  N   UNL     1       8.460  26.687  57.289  1.00  0.00    -0.323 N 
HETATM    9  C   UNL     1       5.699  26.982  55.011  1.00  0.00     0.013 A 
HETATM   10  C   UNL     1       5.569  28.364  54.864  1.00  0.00     0.001 A 
HETATM   11  C   UNL     1       6.418  29.246  55.557  1.00  0.00     0.009 A 
HETATM   12  H   UNL     1       9.185  27.085  57.867  1.00  0.00     0.169 HD
ENDROOT
BRANCH   5  13
HETATM   13  C   UNL     1       7.432  24.340  54.948  1.00  0.00     0.018 A 
HETATM   14  C   UNL     1       7.660  22.927  54.750  1.00  0.00     0.002 A 
HETATM   15  C   UNL     1       7.951  22.731  53.397  1.00  0.00     0.043 A 
HETATM   16  C   UNL     1       7.652  21.790  55.588  1.00  0.00     0.014 A 
HETATM   17  C   UNL     1       8.235  21.474  52.848  1.00  0.00     0.030 A 
HETATM   18  N   UNL     1       7.891  23.959  52.786  1.00  0.00    -0.365 N 
HETATM   19  C   UNL     1       8.227  20.373  53.705  1.00  0.00     0.002 A 
HETATM   20  C   UNL     1       7.940  20.525  55.057  1.00  0.00     0.001 A 
HETATM   21  H   UNL     1       8.043  24.118  51.799  1.00  0.00     0.165 HD
HETATM   22  C   UNL     1       7.588  24.926  53.699  1.00  0.00     0.100 A 
ENDBRANCH   5  13
BRANCH   5  23
HETATM   23  O   UNL     1       5.965  24.489  56.895  1.00  0.00    -0.371 OA
HETATM   24  H   UNL     1       5.567  25.190  57.435  1.00  0.00     0.212 HD
ENDBRANCH   5  23
TORSDOF 2
ENDMDL
MODEL 6
REMARK VINA RESULT:      -8.6      1.747      6.198
REMARK  2 active torsions:
REMARK  status: ('A' for Active; 'I' for Inactive)
REMARK    1  A    between atoms: C_5  and  C_7 
REMARK    2  A    between atoms: C_5  and  O_6 
ROOT
HETATM    1  C   UNL     1       7.653  20.600  56.125  1.00  0.00     0.050 C 
HETATM    2  C   UNL     1       7.739  21.682  55.095  1.00  0.00    -0.035 A 
HETATM    3  C   UNL     1       7.400  22.999  55.363  1.00  0.00     0.051 A 
HETATM    4  C   UNL     1       7.448  24.005  54.390  1.00  0.00     0.018 A 
HETATM    5  C   UNL     1       7.058  25.329  55.009  1.00  0.00     0.198 A 
HETATM    6  C   UNL     1       6.706  24.896  56.476  1.00  0.00     0.266 A 
HETATM    7  O   UNL     1       6.333  25.589  57.410  1.00  0.00    -0.269 OA
HETATM    8  N   UNL     1       6.965  23.528  56.571  1.00  0.00    -0.323 N 
HETATM    9  C   UNL     1       7.848  23.712  53.095  1.00  0.00     0.013 A 
HETATM   10  C   UNL     1       8.175  22.390  52.791  1.00  0.00     0.001 A 
HETATM   11  C   UNL     1       8.117  21.387  53.776  1.00  0.00     0.009 A 
HETATM   12  H   UNL     1       6.828  23.016  57.430  1.00  0.00     0.169 HD
ENDROOT
BRANCH   5  13
HETATM   13  C   UNL     1       5.868  25.879  54.265  1.00  0.00     0.018 A 
HETATM   14  C   UNL     1       5.348  27.226  54.235  1.00  0.00     0.002 A 
HETATM   15  C   UNL     1       4.242  27.234  53.381  1.00  0.00     0.043 A 
HETATM   16  C   UNL     1       5.705  28.446  54.852  1.00  0.00     0.014 A 
HETATM   17  C   UNL     1       3.484  28.382  53.118  1.00  0.00     0.030 A 
HETATM   18  N   UNL     1       4.094  25.958  52.895  1.00  0.00    -0.365 N 
HETATM   19  C   UNL     1       3.858  29.568  53.751  1.00  0.00     0.002 A 
HETATM   20  C   UNL     1       4.954  29.603  54.607  1.00  0.00     0.001 A 
HETATM   21  H   UNL     1       3.381  25.672  52.239  1.00  0.00     0.165 HD
HETATM   22  C   UNL     1       5.053  25.141  53.419  1.00  0.00     0.100 A 
ENDBRANCH   5  13
BRANCH   5  23
HETATM   23  O   UNL     1       8.184  26.204  54.969  1.00  0.00    -0.371 OA
HETATM   24  H   UNL     1       8.390  26.430  55.890  1.00  0.00     0.212 HD
ENDBRANCH   5  23
TORSDOF 2
ENDMDL
MODEL 7
REMARK VINA RESULT:      -8.5     10.060     13.966
REMARK  2 active torsions:
REMARK  status: ('A' for Active; 'I' for Inactive)
REMARK    1  A    between atoms: C_5  and  C_7 
REMARK    2  A    between atoms: C_5  and  O_6 
ROOT
HETATM    1  C   UNL     1       6.785  31.983  59.961  1.00  0.00     0.050 C 
HETATM    2  C   UNL     1       6.930  32.391  61.394  1.00  0.00    -0.035 A 
HETATM    3  C   UNL     1       5.903  32.985  62.110  1.00  0.00     0.051 A 
HETATM    4  C   UNL     1       6.049  33.397  63.441  1.00  0.00     0.018 A 
HETATM    5  C   UNL     1       4.741  33.968  63.942  1.00  0.00     0.198 A 
HETATM    6  C   UNL     1       3.849  33.882  62.653  1.00  0.00     0.266 A 
HETATM    7  O   UNL     1       2.682  34.212  62.507  1.00  0.00    -0.269 OA
HETATM    8  N   UNL     1       4.620  33.274  61.662  1.00  0.00    -0.323 N 
HETATM    9  C   UNL     1       7.254  33.219  64.103  1.00  0.00     0.013 A 
HETATM   10  C   UNL     1       8.313  32.643  63.400  1.00  0.00     0.001 A 
HETATM   11  C   UNL     1       8.155  32.238  62.062  1.00  0.00     0.009 A 
HETATM   12  H   UNL     1       4.258  33.094  60.738  1.00  0.00     0.169 HD
ENDROOT
BRANCH   5  13
HETATM   13  C   UNL     1       4.973  35.387  64.393  1.00  0.00     0.018 A 
HETATM   14  C   UNL     1       5.432  36.528  63.635  1.00  0.00     0.002 A 
HETATM   15  C   UNL     1       5.462  37.625  64.498  1.00  0.00     0.043 A 
HETATM   16  C   UNL     1       5.831  36.738  62.296  1.00  0.00     0.014 A 
HETATM   17  C   UNL     1       5.868  38.905  64.098  1.00  0.00     0.030 A 
HETATM   18  N   UNL     1       5.028  37.190  65.726  1.00  0.00    -0.365 N 
HETATM   19  C   UNL     1       6.264  39.077  62.771  1.00  0.00     0.002 A 
HETATM   20  C   UNL     1       6.246  38.010  61.879  1.00  0.00     0.001 A 
HETATM   21  H   UNL     1       4.932  37.777  66.543  1.00  0.00     0.165 HD
HETATM   22  C   UNL     1       4.739  35.858  65.678  1.00  0.00     0.100 A 
ENDBRANCH   5  13
BRANCH   5  23
HETATM   23  O   UNL     1       4.246  33.132  64.986  1.00  0.00    -0.371 OA
HETATM   24  H   UNL     1       3.284  33.256  65.007  1.00  0.00     0.212 HD
ENDBRANCH   5  23
TORSDOF 2
ENDMDL
MODEL 8
REMARK VINA RESULT:      -8.4      8.710     12.653
REMARK  2 active torsions:
REMARK  status: ('A' for Active; 'I' for Inactive)
REMARK    1  A    between atoms: C_5  and  C_7 
REMARK    2  A    between atoms: C_5  and  O_6 
ROOT
HETATM    1  C   UNL     1       8.131  31.203  58.678  1.00  0.00     0.050 C 
HETATM    2  C   UNL     1       8.037  31.551  60.131  1.00  0.00    -0.035 A 
HETATM    3  C   UNL     1       6.839  31.878  60.745  1.00  0.00     0.051 A 
HETATM    4  C   UNL     1       6.756  32.237  62.097  1.00  0.00     0.018 A 
HETATM    5  C   UNL     1       5.312  32.495  62.465  1.00  0.00     0.198 A 
HETATM    6  C   UNL     1       4.596  32.299  61.082  1.00  0.00     0.266 A 
HETATM    7  O   UNL     1       3.408  32.387  60.815  1.00  0.00    -0.269 OA
HETATM    8  N   UNL     1       5.578  31.920  60.165  1.00  0.00    -0.323 N 
HETATM    9  C   UNL     1       7.895  32.275  62.886  1.00  0.00     0.013 A 
HETATM   10  C   UNL     1       9.120  31.971  62.288  1.00  0.00     0.001 A 
HETATM   11  C   UNL     1       9.190  31.617  60.928  1.00  0.00     0.009 A 
HETATM   12  H   UNL     1       5.360  31.721  59.200  1.00  0.00     0.169 HD
ENDROOT
BRANCH   5  13
HETATM   13  C   UNL     1       5.189  33.904  62.987  1.00  0.00     0.018 A 
HETATM   14  C   UNL     1       4.904  34.365  64.326  1.00  0.00     0.002 A 
HETATM   15  C   UNL     1       4.919  35.761  64.304  1.00  0.00     0.043 A 
HETATM   16  C   UNL     1       4.630  33.733  65.559  1.00  0.00     0.014 A 
HETATM   17  C   UNL     1       4.674  36.548  65.437  1.00  0.00     0.030 A 
HETATM   18  N   UNL     1       5.214  36.146  63.019  1.00  0.00    -0.365 N 
HETATM   19  C   UNL     1       4.397  35.893  66.638  1.00  0.00     0.002 A 
HETATM   20  C   UNL     1       4.375  34.504  66.701  1.00  0.00     0.001 A 
HETATM   21  H   UNL     1       5.307  37.105  62.714  1.00  0.00     0.165 HD
HETATM   22  C   UNL     1       5.372  35.049  62.224  1.00  0.00     0.100 A 
ENDBRANCH   5  13
BRANCH   5  23
HETATM   23  O   UNL     1       4.900  31.517  63.419  1.00  0.00    -0.371 OA
HETATM   24  H   UNL     1       4.429  31.997  64.119  1.00  0.00     0.212 HD
ENDBRANCH   5  23
TORSDOF 2
ENDMDL
MODEL 9
REMARK VINA RESULT:      -8.3      9.193     12.413
REMARK  2 active torsions:
REMARK  status: ('A' for Active; 'I' for Inactive)
REMARK    1  A    between atoms: C_5  and  C_7 
REMARK    2  A    between atoms: C_5  and  O_6 
ROOT
HETATM    1  C   UNL     1       8.883  32.059  59.766  1.00  0.00     0.050 C 
HETATM    2  C   UNL     1       8.087  32.172  61.028  1.00  0.00    -0.035 A 
HETATM    3  C   UNL     1       6.702  32.221  61.036  1.00  0.00     0.051 A 
HETATM    4  C   UNL     1       5.957  32.362  62.214  1.00  0.00     0.018 A 
HETATM    5  C   UNL     1       4.481  32.342  61.886  1.00  0.00     0.198 A 
HETATM    6  C   UNL     1       4.509  32.244  60.320  1.00  0.00     0.266 A 
HETATM    7  O   UNL     1       3.572  32.190  59.539  1.00  0.00    -0.269 OA
HETATM    8  N   UNL     1       5.850  32.157  59.941  1.00  0.00    -0.323 N 
HETATM    9  C   UNL     1       6.595  32.456  63.442  1.00  0.00     0.013 A 
HETATM   10  C   UNL     1       7.990  32.431  63.461  1.00  0.00     0.001 A 
HETATM   11  C   UNL     1       8.727  32.295  62.271  1.00  0.00     0.009 A 
HETATM   12  H   UNL     1       6.127  32.070  58.975  1.00  0.00     0.169 HD
ENDROOT
BRANCH   5  13
HETATM   13  C   UNL     1       3.859  33.624  62.376  1.00  0.00     0.018 A 
HETATM   14  C   UNL     1       4.402  34.963  62.383  1.00  0.00     0.002 A 
HETATM   15  C   UNL     1       3.429  35.811  62.919  1.00  0.00     0.043 A 
HETATM   16  C   UNL     1       5.628  35.543  61.987  1.00  0.00     0.014 A 
HETATM   17  C   UNL     1       3.619  37.189  63.082  1.00  0.00     0.030 A 
HETATM   18  N   UNL     1       2.334  35.038  63.217  1.00  0.00    -0.365 N 
HETATM   19  C   UNL     1       4.845  37.728  62.690  1.00  0.00     0.002 A 
HETATM   20  C   UNL     1       5.838  36.918  62.149  1.00  0.00     0.001 A 
HETATM   21  H   UNL     1       1.470  35.391  63.605  1.00  0.00     0.165 HD
HETATM   22  C   UNL     1       2.579  33.733  62.903  1.00  0.00     0.100 A 
ENDBRANCH   5  13
BRANCH   5  23
HETATM   23  O   UNL     1       3.895  31.185  62.480  1.00  0.00    -0.371 OA
HETATM   24  H   UNL     1       4.194  31.166  63.402  1.00  0.00     0.212 HD
ENDBRANCH   5  23
TORSDOF 2
ENDMDL
MODEL 10
REMARK VINA RESULT:      -8.2      2.323      3.822
REMARK  2 active torsions:
REMARK  status: ('A' for Active; 'I' for Inactive)
REMARK    1  A    between atoms: C_5  and  C_7 
REMARK    2  A    between atoms: C_5  and  O_6 
ROOT
HETATM    1  C   UNL     1       5.919  31.479  58.445  1.00  0.00     0.050 C 
HETATM    2  C   UNL     1       5.358  30.465  57.498  1.00  0.00    -0.035 A 
HETATM    3  C   UNL     1       5.901  29.199  57.350  1.00  0.00     0.051 A 
HETATM    4  C   UNL     1       5.396  28.262  56.440  1.00  0.00     0.018 A 
HETATM    5  C   UNL     1       6.182  26.974  56.550  1.00  0.00     0.198 A 
HETATM    6  C   UNL     1       7.265  27.359  57.619  1.00  0.00     0.266 A 
HETATM    7  O   UNL     1       8.160  26.670  58.084  1.00  0.00    -0.269 OA
HETATM    8  N   UNL     1       6.988  28.664  58.028  1.00  0.00    -0.323 N 
HETATM    9  C   UNL     1       4.309  28.574  55.638  1.00  0.00     0.013 A 
HETATM   10  C   UNL     1       3.755  29.851  55.751  1.00  0.00     0.001 A 
HETATM   11  C   UNL     1       4.274  30.785  56.665  1.00  0.00     0.009 A 
HETATM   12  H   UNL     1       7.544  29.134  58.728  1.00  0.00     0.169 HD
ENDROOT
BRANCH   5  13
HETATM   13  C   UNL     1       6.782  26.655  55.205  1.00  0.00     0.018 A 
HETATM   14  C   UNL     1       7.073  25.371  54.611  1.00  0.00     0.002 A 
HETATM   15  C   UNL     1       7.603  25.604  53.339  1.00  0.00     0.043 A 
HETATM   16  C   UNL     1       6.941  24.028  55.028  1.00  0.00     0.014 A 
HETATM   17  C   UNL     1       8.006  24.576  52.477  1.00  0.00     0.030 A 
HETATM   18  N   UNL     1       7.626  26.963  53.150  1.00  0.00    -0.365 N 
HETATM   19  C   UNL     1       7.871  23.261  52.924  1.00  0.00     0.002 A 
HETATM   20  C   UNL     1       7.345  22.987  54.182  1.00  0.00     0.001 A 
HETATM   21  H   UNL     1       7.947  27.421  52.308  1.00  0.00     0.165 HD
HETATM   22  C   UNL     1       7.144  27.601  54.256  1.00  0.00     0.100 A 
ENDBRANCH   5  13
BRANCH   5  23
HETATM   23  O   UNL     1       5.313  25.945  57.022  1.00  0.00    -0.371 OA
HETATM   24  H   UNL     1       5.794  25.477  57.722  1.00  0.00     0.212 HD
ENDBRANCH   5  23
TORSDOF 2
ENDMDL
