MODEL 1
REMARK VINA RESULT:      -9.1      0.000      0.000
REMARK  3 active torsions:
REMARK  status: ('A' for Active; 'I' for Inactive)
REMARK    1  A    between atoms: C_2  and  N_3 
REMARK    2  A    between atoms: C_2  and  C_10 
REMARK    3  A    between atoms: C_13  and  C_14 
ROOT
HETATM    1  C   UNL     1       6.203  26.156  52.214  1.00  0.00    -0.028 A 
HETATM    2  C   UNL     1       7.558  25.830  52.042  1.00  0.00     0.010 A 
HETATM    3  C   UNL     1       8.059  24.602  52.490  1.00  0.00     0.014 A 
HETATM    4  C   UNL     1       7.229  23.663  53.121  1.00  0.00    -0.006 A 
HETATM    5  C   UNL     1       5.881  24.008  53.308  1.00  0.00     0.014 A 
HETATM    6  C   UNL     1       5.370  25.231  52.859  1.00  0.00     0.010 A 
ENDROOT
BRANCH   4   7
HETATM    7  C   UNL     1       7.735  22.376  53.601  1.00  0.00     0.082 A 
HETATM    8  N   UNL     1       7.990  21.418  52.672  1.00  0.00    -0.240 NA
HETATM    9  C   UNL     1       8.453  20.226  53.098  1.00  0.00     0.236 A 
HETATM   10  N   UNL     1       8.724  19.849  54.357  1.00  0.00    -0.224 NA
HETATM   11  C   UNL     1       8.481  20.834  55.232  1.00  0.00     0.141 A 
HETATM   12  C   UNL     1       7.997  22.104  54.951  1.00  0.00     0.041 A 
HETATM   13  N   UNL     1       8.685  20.739  56.581  1.00  0.00    -0.350 N 
HETATM   14  C   UNL     1       7.934  22.795  56.197  1.00  0.00     0.034 A 
HETATM   15  C   UNL     1       8.360  21.928  57.183  1.00  0.00     0.091 A 
HETATM   16  H   UNL     1       9.035  19.908  57.040  1.00  0.00     0.166 HD
ENDBRANCH   4   7
BRANCH   1  17
HETATM   17  C   UNL     1       5.670  27.476  51.680  1.00  0.00     0.217 C 
HETATM   18  C   UNL     1       4.325  27.805  52.338  1.00  0.00     0.045 C 
BRANCH  17  19
HETATM   19  N   UNL     1       5.543  27.466  50.144  1.00  0.00    -0.063 N 
HETATM   20  H   UNL     1       6.475  27.225  49.784  1.00  0.00     0.280 HD
HETATM   21  C   UNL     1       4.563  26.433  49.627  1.00  0.00     0.235 C 
HETATM   22  C   UNL     1       4.554  26.427  48.104  1.00  0.00     0.028 C 
HETATM   23  C   UNL     1       4.241  27.800  47.532  1.00  0.00     0.003 C 
HETATM   24  C   UNL     1       5.205  28.839  48.085  1.00  0.00     0.028 C 
HETATM   25  C   UNL     1       5.207  28.851  49.606  1.00  0.00     0.235 C 
ENDBRANCH  17  19
ENDBRANCH   1  17
TORSDOF 3
ENDMDL
MODEL 2
REMARK VINA RESULT:      -9.0      4.543      6.305
REMARK  3 active torsions:
REMARK  status: ('A' for Active; 'I' for Inactive)
REMARK    1  A    between atoms: C_2  and  N_3 
REMARK    2  A    between atoms: C_2  and  C_10 
REMARK    3  A    between atoms: C_13  and  C_14 
ROOT
HETATM    1  C   UNL     1       7.338  26.802  56.927  1.00  0.00    -0.028 A 
HETATM    2  C   UNL     1       8.464  26.155  57.460  1.00  0.00     0.010 A 
HETATM    3  C   UNL     1       8.708  24.804  57.186  1.00  0.00     0.014 A 
HETATM    4  C   UNL     1       7.839  24.057  56.376  1.00  0.00    -0.006 A 
HETATM    5  C   UNL     1       6.703  24.707  55.867  1.00  0.00     0.014 A 
HETATM    6  C   UNL     1       6.455  26.058  56.130  1.00  0.00     0.010 A 
ENDROOT
BRANCH   4   7
HETATM    7  C   UNL     1       8.074  22.642  56.083  1.00  0.00     0.082 A 
HETATM    8  N   UNL     1       8.310  21.816  57.135  1.00  0.00    -0.240 NA
HETATM    9  C   UNL     1       8.533  20.511  56.882  1.00  0.00     0.236 A 
HETATM   10  N   UNL     1       8.533  19.890  55.692  1.00  0.00    -0.224 NA
HETATM   11  C   UNL     1       8.270  20.740  54.690  1.00  0.00     0.141 A 
HETATM   12  C   UNL     1       8.032  22.104  54.788  1.00  0.00     0.041 A 
HETATM   13  N   UNL     1       8.189  20.382  53.372  1.00  0.00    -0.350 N 
HETATM   14  C   UNL     1       7.777  22.564  53.463  1.00  0.00     0.034 A 
HETATM   15  C   UNL     1       7.884  21.483  52.612  1.00  0.00     0.091 A 
HETATM   16  H   UNL     1       8.326  19.438  53.037  1.00  0.00     0.166 HD
ENDBRANCH   4   7
BRANCH   1  17
HETATM   17  C   UNL     1       7.115  28.281  57.200  1.00  0.00     0.217 C 
HETATM   18  C   UNL     1       6.538  28.965  55.955  1.00  0.00     0.045 C 
BRANCH  17  19
HETATM   19  N   UNL     1       8.408  28.982  57.663  1.00  0.00    -0.063 N 
HETATM   20  H   UNL     1       8.956  28.267  58.159  1.00  0.00     0.280 HD
HETATM   21  C   UNL     1       9.253  29.503  56.518  1.00  0.00     0.235 C 
HETATM   22  C   UNL     1      10.547  30.106  57.047  1.00  0.00     0.028 C 
HETATM   23  C   UNL     1      10.288  31.201  58.070  1.00  0.00     0.003 C 
HETATM   24  C   UNL     1       9.409  30.680  59.195  1.00  0.00     0.028 C 
HETATM   25  C   UNL     1       8.111  30.086  58.667  1.00  0.00     0.235 C 
ENDBRANCH  17  19
ENDBRANCH   1  17
TORSDOF 3
ENDMDL
MODEL 3
REMARK VINA RESULT:      -8.9      1.357      2.594
REMARK  3 active torsions:
REMARK  status: ('A' for Active; 'I' for Inactive)
REMARK    1  A    between atoms: C_2  and  N_3 
REMARK    2  A    between atoms: C_2  and  C_10 
REMARK    3  A    between atoms: C_13  and  C_14 
ROOT
HETATM    1  C   UNL     1       5.688  26.585  52.076  1.00  0.00    -0.028 A 
HETATM    2  C   UNL     1       4.869  25.802  52.904  1.00  0.00     0.010 A 
HETATM    3  C   UNL     1       5.420  24.806  53.718  1.00  0.00     0.014 A 
HETATM    4  C   UNL     1       6.802  24.559  53.733  1.00  0.00    -0.006 A 
HETATM    5  C   UNL     1       7.610  25.332  52.884  1.00  0.00     0.014 A 
HETATM    6  C   UNL     1       7.069  26.334  52.071  1.00  0.00     0.010 A 
ENDROOT
BRANCH   4   7
HETATM    7  C   UNL     1       7.396  23.518  54.573  1.00  0.00     0.082 A 
HETATM    8  N   UNL     1       7.517  23.778  55.901  1.00  0.00    -0.240 NA
HETATM    9  C   UNL     1       8.066  22.831  56.688  1.00  0.00     0.236 A 
HETATM   10  N   UNL     1       8.508  21.616  56.329  1.00  0.00    -0.224 NA
HETATM   11  C   UNL     1       8.345  21.397  55.017  1.00  0.00     0.141 A 
HETATM   12  C   UNL     1       7.809  22.271  54.082  1.00  0.00     0.041 A 
HETATM   13  N   UNL     1       8.689  20.238  54.377  1.00  0.00    -0.350 N 
HETATM   14  C   UNL     1       7.820  21.580  52.834  1.00  0.00     0.034 A 
HETATM   15  C   UNL     1       8.370  20.333  53.046  1.00  0.00     0.091 A 
HETATM   16  H   UNL     1       9.103  19.441  54.841  1.00  0.00     0.166 HD
ENDBRANCH   4   7
BRANCH   1  17
HETATM   17  C   UNL     1       5.075  27.692  51.234  1.00  0.00     0.217 C 
HETATM   18  C   UNL     1       4.520  28.797  52.139  1.00  0.00     0.045 C 
BRANCH  17  19
HETATM   19  N   UNL     1       3.983  27.157  50.286  1.00  0.00    -0.063 N 
HETATM   20  H   UNL     1       3.357  26.587  50.868  1.00  0.00     0.280 HD
HETATM   21  C   UNL     1       3.155  28.251  49.643  1.00  0.00     0.235 C 
HETATM   22  C   UNL     1       2.049  27.645  48.790  1.00  0.00     0.028 C 
HETATM   23  C   UNL     1       2.599  26.695  47.738  1.00  0.00     0.003 C 
HETATM   24  C   UNL     1       3.460  25.623  48.386  1.00  0.00     0.028 C 
HETATM   25  C   UNL     1       4.571  26.228  49.231  1.00  0.00     0.235 C 
ENDBRANCH  17  19
ENDBRANCH   1  17
TORSDOF 3
ENDMDL
MODEL 4
REMARK VINA RESULT:      -8.8      4.424      5.947
REMARK  3 active torsions:
REMARK  status: ('A' for Active; 'I' for Inactive)
REMARK    1  A    between atoms: C_2  and  N_3 
REMARK    2  A    between atoms: C_2  and  C_10 
REMARK    3  A    between atoms: C_13  and  C_14 
ROOT
HETATM    1  C   UNL     1       7.355  26.726  56.605  1.00  0.00    -0.028 A 
HETATM    2  C   UNL     1       6.738  26.457  55.373  1.00  0.00     0.010 A 
HETATM    3  C   UNL     1       6.900  25.214  54.749  1.00  0.00     0.014 A 
HETATM    4  C   UNL     1       7.679  24.203  55.331  1.00  0.00    -0.006 A 
HETATM    5  C   UNL     1       8.312  24.490  56.551  1.00  0.00     0.014 A 
HETATM    6  C   UNL     1       8.151  25.727  57.185  1.00  0.00     0.010 A 
ENDROOT
BRANCH   4   7
HETATM    7  C   UNL     1       7.865  22.899  54.691  1.00  0.00     0.082 A 
HETATM    8  N   UNL     1       7.687  22.831  53.346  1.00  0.00    -0.240 NA
HETATM    9  C   UNL     1       7.849  21.637  52.742  1.00  0.00     0.236 A 
HETATM   10  N   UNL     1       8.196  20.469  53.306  1.00  0.00    -0.224 NA
HETATM   11  C   UNL     1       8.385  20.593  54.626  1.00  0.00     0.141 A 
HETATM   12  C   UNL     1       8.247  21.744  55.389  1.00  0.00     0.041 A 
HETATM   13  N   UNL     1       8.762  19.570  55.453  1.00  0.00    -0.350 N 
HETATM   14  C   UNL     1       8.580  21.382  56.727  1.00  0.00     0.034 A 
HETATM   15  C   UNL     1       8.889  20.037  56.737  1.00  0.00     0.091 A 
HETATM   16  H   UNL     1       8.927  18.624  55.138  1.00  0.00     0.166 HD
ENDBRANCH   4   7
BRANCH   1  17
HETATM   17  C   UNL     1       7.130  28.065  57.287  1.00  0.00     0.217 C 
HETATM   18  C   UNL     1       6.257  28.966  56.406  1.00  0.00     0.045 C 
BRANCH  17  19
HETATM   19  N   UNL     1       8.460  28.762  57.640  1.00  0.00    -0.063 N 
HETATM   20  H   UNL     1       9.005  28.076  58.176  1.00  0.00     0.280 HD
HETATM   21  C   UNL     1       9.273  29.157  56.425  1.00  0.00     0.235 C 
HETATM   22  C   UNL     1      10.604  29.761  56.852  1.00  0.00     0.028 C 
HETATM   23  C   UNL     1      10.416  30.947  57.785  1.00  0.00     0.003 C 
HETATM   24  C   UNL     1       9.567  30.553  58.983  1.00  0.00     0.028 C 
HETATM   25  C   UNL     1       8.233  29.957  58.556  1.00  0.00     0.235 C 
ENDBRANCH  17  19
ENDBRANCH   1  17
TORSDOF 3
ENDMDL
MODEL 5
REMARK VINA RESULT:      -8.5      1.468      7.978
REMARK  3 active torsions:
REMARK  status: ('A' for Active; 'I' for Inactive)
REMARK    1  A    between atoms: C_2  and  N_3 
REMARK    2  A    between atoms: C_2  and  C_10 
REMARK    3  A    between atoms: C_13  and  C_14 
ROOT
HETATM    1  C   UNL     1       6.611  24.649  54.083  1.00  0.00    -0.028 A 
HETATM    2  C   UNL     1       5.232  24.761  53.841  1.00  0.00     0.010 A 
HETATM    3  C   UNL     1       4.759  25.437  52.711  1.00  0.00     0.014 A 
HETATM    4  C   UNL     1       5.641  26.022  51.788  1.00  0.00    -0.006 A 
HETATM    5  C   UNL     1       7.016  25.925  52.052  1.00  0.00     0.014 A 
HETATM    6  C   UNL     1       7.499  25.246  53.176  1.00  0.00     0.010 A 
ENDROOT
BRANCH   4   7
HETATM    7  C   UNL     1       5.164  26.738  50.604  1.00  0.00     0.082 A 
HETATM    8  N   UNL     1       4.620  25.999  49.602  1.00  0.00    -0.240 NA
HETATM    9  C   UNL     1       4.181  26.642  48.503  1.00  0.00     0.236 A 
HETATM   10  N   UNL     1       4.190  27.963  48.262  1.00  0.00    -0.224 NA
HETATM   11  C   UNL     1       4.712  28.650  49.287  1.00  0.00     0.141 A 
HETATM   12  C   UNL     1       5.213  28.134  50.473  1.00  0.00     0.041 A 
HETATM   13  N   UNL     1       4.831  30.012  49.325  1.00  0.00    -0.350 N 
HETATM   14  C   UNL     1       5.627  29.252  51.255  1.00  0.00     0.034 A 
HETATM   15  C   UNL     1       5.383  30.394  50.521  1.00  0.00     0.091 A 
HETATM   16  H   UNL     1       4.537  30.623  48.575  1.00  0.00     0.166 HD
ENDBRANCH   4   7
BRANCH   1  17
HETATM   17  C   UNL     1       7.106  23.872  55.292  1.00  0.00     0.217 C 
HETATM   18  C   UNL     1       8.391  24.506  55.836  1.00  0.00     0.045 C 
BRANCH  17  19
HETATM   19  N   UNL     1       7.323  22.380  54.968  1.00  0.00    -0.063 N 
HETATM   20  H   UNL     1       6.395  21.942  55.018  1.00  0.00     0.280 HD
HETATM   21  C   UNL     1       7.877  22.141  53.579  1.00  0.00     0.235 C 
HETATM   22  C   UNL     1       7.985  20.647  53.303  1.00  0.00     0.028 C 
HETATM   23  C   UNL     1       8.826  19.935  54.350  1.00  0.00     0.003 C 
HETATM   24  C   UNL     1       8.286  20.211  55.744  1.00  0.00     0.028 C 
HETATM   25  C   UNL     1       8.187  21.704  56.024  1.00  0.00     0.235 C 
ENDBRANCH  17  19
ENDBRANCH   1  17
TORSDOF 3
ENDMDL
MODEL 6
REMARK VINA RESULT:      -8.5      1.532      8.014
REMARK  3 active torsions:
REMARK  status: ('A' for Active; 'I' for Inactive)
REMARK    1  A    between atoms: C_2  and  N_3 
REMARK    2  A    between atoms: C_2  and  C_10 
REMARK    3  A    between atoms: C_13  and  C_14 
ROOT
HETATM    1  C   UNL     1       6.658  24.922  54.521  1.00  0.00    -0.028 A 
HETATM    2  C   UNL     1       5.366  24.868  53.973  1.00  0.00     0.010 A 
HETATM    3  C   UNL     1       4.984  25.749  52.956  1.00  0.00     0.014 A 
HETATM    4  C   UNL     1       5.874  26.710  52.452  1.00  0.00    -0.006 A 
HETATM    5  C   UNL     1       7.156  26.772  53.022  1.00  0.00     0.014 A 
HETATM    6  C   UNL     1       7.549  25.892  54.035  1.00  0.00     0.010 A 
ENDROOT
BRANCH   4   7
HETATM    7  C   UNL     1       5.491  27.644  51.391  1.00  0.00     0.082 A 
HETATM    8  N   UNL     1       5.712  28.967  51.612  1.00  0.00    -0.240 NA
HETATM    9  C   UNL     1       5.361  29.840  50.648  1.00  0.00     0.236 A 
HETATM   10  N   UNL     1       4.821  29.571  49.449  1.00  0.00    -0.224 NA
HETATM   11  C   UNL     1       4.647  28.255  49.268  1.00  0.00     0.141 A 
HETATM   12  C   UNL     1       4.947  27.239  50.164  1.00  0.00     0.041 A 
HETATM   13  N   UNL     1       4.133  27.691  48.133  1.00  0.00    -0.350 N 
HETATM   14  C   UNL     1       4.611  26.016  49.513  1.00  0.00     0.034 A 
HETATM   15  C   UNL     1       4.109  26.326  48.265  1.00  0.00     0.091 A 
HETATM   16  H   UNL     1       3.834  28.223  47.327  1.00  0.00     0.166 HD
ENDBRANCH   4   7
BRANCH   1  17
HETATM   17  C   UNL     1       7.068  23.927  55.593  1.00  0.00     0.217 C 
HETATM   18  C   UNL     1       8.338  24.411  56.304  1.00  0.00     0.045 C 
BRANCH  17  19
HETATM   19  N   UNL     1       7.266  22.510  55.019  1.00  0.00    -0.063 N 
HETATM   20  H   UNL     1       6.325  22.105  54.935  1.00  0.00     0.280 HD
HETATM   21  C   UNL     1       7.900  22.501  53.643  1.00  0.00     0.235 C 
HETATM   22  C   UNL     1       7.986  21.078  53.109  1.00  0.00     0.028 C 
HETATM   23  C   UNL     1       8.740  20.160  54.057  1.00  0.00     0.003 C 
HETATM   24  C   UNL     1       8.121  20.203  55.445  1.00  0.00     0.028 C 
HETATM   25  C   UNL     1       8.043  21.624  55.983  1.00  0.00     0.235 C 
ENDBRANCH  17  19
ENDBRANCH   1  17
TORSDOF 3
ENDMDL
MODEL 7
REMARK VINA RESULT:      -8.5     14.188     16.567
REMARK  3 active torsions:
REMARK  status: ('A' for Active; 'I' for Inactive)
REMARK    1  A    between atoms: C_2  and  N_3 
REMARK    2  A    between atoms: C_2  and  C_10 
REMARK    3  A    between atoms: C_13  and  C_14 
ROOT
HETATM    1  C   UNL     1       5.679  33.923  66.239  1.00  0.00    -0.028 A 
HETATM    2  C   UNL     1       7.008  33.774  65.811  1.00  0.00     0.010 A 
HETATM    3  C   UNL     1       7.295  33.338  64.512  1.00  0.00     0.014 A 
HETATM    4  C   UNL     1       6.270  33.036  63.602  1.00  0.00    -0.006 A 
HETATM    5  C   UNL     1       4.945  33.166  64.047  1.00  0.00     0.014 A 
HETATM    6  C   UNL     1       4.648  33.608  65.341  1.00  0.00     0.010 A 
ENDROOT
BRANCH   4   7
HETATM    7  C   UNL     1       6.551  32.573  62.241  1.00  0.00     0.082 A 
HETATM    8  N   UNL     1       5.787  33.078  61.238  1.00  0.00    -0.240 NA
HETATM    9  C   UNL     1       6.029  32.658  59.981  1.00  0.00     0.236 A 
HETATM   10  N   UNL     1       6.969  31.793  59.567  1.00  0.00    -0.224 NA
HETATM   11  C   UNL     1       7.711  31.343  60.588  1.00  0.00     0.141 A 
HETATM   12  C   UNL     1       7.579  31.671  61.929  1.00  0.00     0.041 A 
HETATM   13  N   UNL     1       8.753  30.466  60.459  1.00  0.00    -0.350 N 
HETATM   14  C   UNL     1       8.608  30.966  62.619  1.00  0.00     0.034 A 
HETATM   15  C   UNL     1       9.313  30.230  61.689  1.00  0.00     0.091 A 
HETATM   16  H   UNL     1       9.052  30.074  59.576  1.00  0.00     0.166 HD
ENDBRANCH   4   7
BRANCH   1  17
HETATM   17  C   UNL     1       5.388  34.442  67.638  1.00  0.00     0.217 C 
HETATM   18  C   UNL     1       5.174  35.959  67.603  1.00  0.00     0.045 C 
BRANCH  17  19
HETATM   19  N   UNL     1       6.503  34.066  68.634  1.00  0.00    -0.063 N 
HETATM   20  H   UNL     1       7.105  33.393  68.145  1.00  0.00     0.280 HD
HETATM   21  C   UNL     1       7.362  35.244  69.048  1.00  0.00     0.235 C 
HETATM   22  C   UNL     1       8.487  34.781  69.964  1.00  0.00     0.028 C 
HETATM   23  C   UNL     1       7.960  34.042  71.184  1.00  0.00     0.003 C 
HETATM   24  C   UNL     1       7.068  32.885  70.761  1.00  0.00     0.028 C 
HETATM   25  C   UNL     1       5.938  33.348  69.853  1.00  0.00     0.235 C 
ENDBRANCH  17  19
ENDBRANCH   1  17
TORSDOF 3
ENDMDL
MODEL 8
REMARK VINA RESULT:      -8.3      1.733      2.293
REMARK  3 active torsions:
REMARK  status: ('A' for Active; 'I' for Inactive)
REMARK    1  A    between atoms: C_2  and  N_3 
REMARK    2  A    between atoms: C_2  and  C_10 
REMARK    3  A    between atoms: C_13  and  C_14 
ROOT
HETATM    1  C   UNL     1       5.261  26.783  51.704  1.00  0.00    -0.028 A 
HETATM    2  C   UNL     1       6.482  26.183  51.355  1.00  0.00     0.010 A 
HETATM    3  C   UNL     1       7.085  25.247  52.203  1.00  0.00     0.014 A 
HETATM    4  C   UNL     1       6.493  24.880  53.422  1.00  0.00    -0.006 A 
HETATM    5  C   UNL     1       5.284  25.503  53.772  1.00  0.00     0.014 A 
HETATM    6  C   UNL     1       4.671  26.435  52.928  1.00  0.00     0.010 A 
ENDROOT
BRANCH   4   7
HETATM    7  C   UNL     1       7.111  23.907  54.325  1.00  0.00     0.082 A 
HETATM    8  N   UNL     1       7.273  22.639  53.863  1.00  0.00    -0.240 NA
HETATM    9  C   UNL     1       7.837  21.731  54.683  1.00  0.00     0.236 A 
HETATM   10  N   UNL     1       8.294  21.918  55.931  1.00  0.00    -0.224 NA
HETATM   11  C   UNL     1       8.135  23.187  56.331  1.00  0.00     0.141 A 
HETATM   12  C   UNL     1       7.567  24.228  55.611  1.00  0.00     0.041 A 
HETATM   13  N   UNL     1       8.526  23.669  57.551  1.00  0.00    -0.350 N 
HETATM   14  C   UNL     1       7.648  25.383  56.443  1.00  0.00     0.034 A 
HETATM   15  C   UNL     1       8.240  25.008  57.632  1.00  0.00     0.091 A 
HETATM   16  H   UNL     1       8.968  23.103  58.263  1.00  0.00     0.166 HD
ENDBRANCH   4   7
BRANCH   1  17
HETATM   17  C   UNL     1       4.601  27.763  50.748  1.00  0.00     0.217 C 
HETATM   18  C   UNL     1       3.900  28.876  51.536  1.00  0.00     0.045 C 
BRANCH  17  19
HETATM   19  N   UNL     1       3.615  27.061  49.793  1.00  0.00    -0.063 N 
HETATM   20  H   UNL     1       3.096  26.386  50.368  1.00  0.00     0.280 HD
HETATM   21  C   UNL     1       2.613  28.005  49.162  1.00  0.00     0.235 C 
HETATM   22  C   UNL     1       1.625  27.229  48.300  1.00  0.00     0.028 C 
HETATM   23  C   UNL     1       2.328  26.399  47.238  1.00  0.00     0.003 C 
HETATM   24  C   UNL     1       3.360  25.482  47.875  1.00  0.00     0.028 C 
HETATM   25  C   UNL     1       4.352  26.258  48.729  1.00  0.00     0.235 C 
ENDBRANCH  17  19
ENDBRANCH   1  17
TORSDOF 3
ENDMDL
MODEL 9
REMARK VINA RESULT:      -8.0     13.763     16.091
REMARK  3 active torsions:
REMARK  status: ('A' for Active; 'I' for Inactive)
REMARK    1  A    between atoms: C_2  and  N_3 
REMARK    2  A    between atoms: C_2  and  C_10 
REMARK    3  A    between atoms: C_13  and  C_14 
ROOT
HETATM    1  C   UNL     1       5.713  33.716  65.554  1.00  0.00    -0.028 A 
HETATM    2  C   UNL     1       7.107  33.698  65.386  1.00  0.00     0.010 A 
HETATM    3  C   UNL     1       7.681  33.114  64.251  1.00  0.00     0.014 A 
HETATM    4  C   UNL     1       6.888  32.530  63.251  1.00  0.00    -0.006 A 
HETATM    5  C   UNL     1       5.497  32.532  63.441  1.00  0.00     0.014 A 
HETATM    6  C   UNL     1       4.913  33.119  64.568  1.00  0.00     0.010 A 
ENDROOT
BRANCH   4   7
HETATM    7  C   UNL     1       7.471  31.909  62.060  1.00  0.00     0.082 A 
HETATM    8  N   UNL     1       8.577  31.139  62.234  1.00  0.00    -0.240 NA
HETATM    9  C   UNL     1       9.128  30.564  61.147  1.00  0.00     0.236 A 
HETATM   10  N   UNL     1       8.707  30.633  59.875  1.00  0.00    -0.224 NA
HETATM   11  C   UNL     1       7.601  31.380  59.759  1.00  0.00     0.141 A 
HETATM   12  C   UNL     1       6.927  32.042  60.775  1.00  0.00     0.041 A 
HETATM   13  N   UNL     1       6.942  31.610  58.582  1.00  0.00    -0.350 N 
HETATM   14  C   UNL     1       5.803  32.674  60.166  1.00  0.00     0.034 A 
HETATM   15  C   UNL     1       5.841  32.394  58.815  1.00  0.00     0.091 A 
HETATM   16  H   UNL     1       7.237  31.237  57.691  1.00  0.00     0.166 HD
ENDBRANCH   4   7
BRANCH   1  17
HETATM   17  C   UNL     1       5.107  34.396  66.771  1.00  0.00     0.217 C 
HETATM   18  C   UNL     1       4.848  35.877  66.473  1.00  0.00     0.045 C 
BRANCH  17  19
HETATM   19  N   UNL     1       5.992  34.233  68.022  1.00  0.00    -0.063 N 
HETATM   20  H   UNL     1       6.784  33.645  67.734  1.00  0.00     0.280 HD
HETATM   21  C   UNL     1       6.549  35.544  68.540  1.00  0.00     0.235 C 
HETATM   22  C   UNL     1       7.476  35.294  69.722  1.00  0.00     0.028 C 
HETATM   23  C   UNL     1       6.784  34.524  70.835  1.00  0.00     0.003 C 
HETATM   24  C   UNL     1       6.195  33.228  70.300  1.00  0.00     0.028 C 
HETATM   25  C   UNL     1       5.261  33.478  69.125  1.00  0.00     0.235 C 
ENDBRANCH  17  19
ENDBRANCH   1  17
TORSDOF 3
ENDMDL
MODEL 10
REMARK VINA RESULT:      -7.6      5.014      8.742
REMARK  3 active torsions:
REMARK  status: ('A' for Active; 'I' for Inactive)
REMARK    1  A    between atoms: C_2  and  N_3 
REMARK    2  A    between atoms: C_2  and  C_10 
REMARK    3  A    between atoms: C_13  and  C_14 
ROOT
HETATM    1  C   UNL     1       7.280  25.899  56.952  1.00  0.00    -0.028 A 
HETATM    2  C   UNL     1       8.276  26.879  57.095  1.00  0.00     0.010 A 
HETATM    3  C   UNL     1       7.934  28.229  57.237  1.00  0.00     0.014 A 
HETATM    4  C   UNL     1       6.593  28.645  57.240  1.00  0.00    -0.006 A 
HETATM    5  C   UNL     1       5.606  27.660  57.073  1.00  0.00     0.014 A 
HETATM    6  C   UNL     1       5.938  26.308  56.937  1.00  0.00     0.010 A 
ENDROOT
BRANCH   4   7
HETATM    7  C   UNL     1       6.216  30.053  57.382  1.00  0.00     0.082 A 
HETATM    8  N   UNL     1       6.696  30.724  58.461  1.00  0.00    -0.240 NA
HETATM    9  C   UNL     1       6.354  32.019  58.608  1.00  0.00     0.236 A 
HETATM   10  N   UNL     1       5.595  32.769  57.794  1.00  0.00    -0.224 NA
HETATM   11  C   UNL     1       5.167  32.071  56.733  1.00  0.00     0.141 A 
HETATM   12  C   UNL     1       5.423  30.737  56.449  1.00  0.00     0.041 A 
HETATM   13  N   UNL     1       4.391  32.584  55.731  1.00  0.00    -0.350 N 
HETATM   14  C   UNL     1       4.782  30.460  55.206  1.00  0.00     0.034 A 
HETATM   15  C   UNL     1       4.151  31.615  54.790  1.00  0.00     0.091 A 
HETATM   16  H   UNL     1       4.066  33.541  55.706  1.00  0.00     0.166 HD
ENDBRANCH   4   7
BRANCH   1  17
HETATM   17  C   UNL     1       7.670  24.435  56.845  1.00  0.00     0.217 C 
HETATM   18  C   UNL     1       8.871  24.141  57.752  1.00  0.00     0.045 C 
BRANCH  17  19
HETATM   19  N   UNL     1       7.967  24.023  55.389  1.00  0.00    -0.063 N 
HETATM   20  H   UNL     1       8.595  24.744  55.013  1.00  0.00     0.280 HD
HETATM   21  C   UNL     1       8.671  22.686  55.273  1.00  0.00     0.235 C 
HETATM   22  C   UNL     1       9.004  22.387  53.818  1.00  0.00     0.028 C 
HETATM   23  C   UNL     1       7.768  22.425  52.933  1.00  0.00     0.003 C 
HETATM   24  C   UNL     1       7.046  23.755  53.083  1.00  0.00     0.028 C 
HETATM   25  C   UNL     1       6.705  24.049  54.537  1.00  0.00     0.235 C 
ENDBRANCH  17  19
ENDBRANCH   1  17
TORSDOF 3
ENDMDL
