MODEL 1
REMARK VINA RESULT:      -9.0      0.000      0.000
REMARK  6 active torsions:
REMARK  status: ('A' for Active; 'I' for Inactive)
REMARK    1  A    between atoms: C_2  and  S_3 
REMARK    2  A    between atoms: C_2  and  C_11 
REMARK    3  A    between atoms: S_3  and  C_4 
REMARK    4  A    between atoms: C_4  and  C_5 
REMARK       I    between atoms: C_11  and  N_12 
REMARK    5  A    between atoms: N_12  and  C_13 
REMARK    6  A    between atoms: C_15  and  C_16 
ROOT
HETATM    1  C   UNL     1       6.947  27.842  54.585  1.00  0.00     0.235 C 
HETATM    2  N   UNL     1       7.702  28.945  54.857  1.00  0.00    -0.326 N 
HETATM    3  O   UNL     1       6.419  27.809  53.465  1.00  0.00    -0.272 OA
HETATM    4  H   UNL     1       7.622  29.600  54.087  1.00  0.00     0.169 HD
ENDROOT
BRANCH   2   5
HETATM    5  C   UNL     1       8.494  29.381  55.934  1.00  0.00     0.035 A 
HETATM    6  C   UNL     1       8.026  29.793  57.182  1.00  0.00     0.042 A 
HETATM    7  C   UNL     1       8.911  30.223  58.190  1.00  0.00    -0.021 A 
HETATM    8  C   UNL     1      10.285  30.228  57.936  1.00  0.00     0.012 A 
HETATM    9  C   UNL     1      10.770  29.793  56.706  1.00  0.00     0.003 A 
HETATM   10  C   UNL     1       9.880  29.366  55.718  1.00  0.00     0.029 A 
BRANCH   7  11
HETATM   11  C   UNL     1       8.410  30.660  59.482  1.00  0.00     0.010 A 
HETATM   12  C   UNL     1       8.958  30.530  60.780  1.00  0.00     0.152 A 
HETATM   13  N   UNL     1       8.178  31.057  61.727  1.00  0.00    -0.187 NA
HETATM   14  N   UNL     1       7.123  31.526  61.040  1.00  0.00    -0.289 N 
HETATM   15  H   UNL     1       6.374  31.977  61.555  1.00  0.00     0.188 HD
HETATM   16  C   UNL     1       7.213  31.311  59.695  1.00  0.00     0.123 A 
ENDBRANCH   7  11
ENDBRANCH   2   5
BRANCH   1  17
HETATM   17  C   UNL     1       6.711  26.713  55.584  1.00  0.00     0.135 C 
HETATM   18  C   UNL     1       5.604  27.078  56.575  1.00  0.00     0.031 C 
BRANCH  17  19
HETATM   19  S   UNL     1       6.308  25.143  54.709  1.00  0.00    -0.150 SA
BRANCH  19  20
HETATM   20  C   UNL     1       7.068  23.908  55.820  1.00  0.00     0.113 C 
BRANCH  20  21
HETATM   21  C   UNL     1       7.507  22.686  55.049  1.00  0.00    -0.049 A 
HETATM   22  C   UNL     1       7.631  22.728  53.652  1.00  0.00     0.008 A 
HETATM   23  C   UNL     1       8.037  21.597  52.942  1.00  0.00     0.001 A 
HETATM   24  C   UNL     1       8.322  20.413  53.618  1.00  0.00     0.000 A 
HETATM   25  C   UNL     1       8.196  20.356  55.005  1.00  0.00     0.001 A 
HETATM   26  C   UNL     1       7.787  21.485  55.717  1.00  0.00     0.008 A 
ENDBRANCH  20  21
ENDBRANCH  19  20
ENDBRANCH  17  19
ENDBRANCH   1  17
TORSDOF 6
ENDMDL
MODEL 2
REMARK VINA RESULT:      -8.9      3.276      8.812
REMARK  6 active torsions:
REMARK  status: ('A' for Active; 'I' for Inactive)
REMARK    1  A    between atoms: C_2  and  S_3 
REMARK    2  A    between atoms: C_2  and  C_11 
REMARK    3  A    between atoms: S_3  and  C_4 
REMARK    4  A    between atoms: C_4  and  C_5 
REMARK       I    between atoms: C_11  and  N_12 
REMARK    5  A    between atoms: N_12  and  C_13 
REMARK    6  A    between atoms: C_15  and  C_16 
ROOT
HETATM    1  C   UNL     1       5.570  26.880  56.021  1.00  0.00     0.235 C 
HETATM    2  N   UNL     1       5.447  25.721  55.313  1.00  0.00    -0.326 N 
HETATM    3  O   UNL     1       4.614  27.173  56.753  1.00  0.00    -0.272 OA
HETATM    4  H   UNL     1       4.520  25.336  55.464  1.00  0.00     0.169 HD
ENDROOT
BRANCH   2   5
HETATM    5  C   UNL     1       6.260  24.993  54.427  1.00  0.00     0.035 A 
HETATM    6  C   UNL     1       6.799  23.728  54.658  1.00  0.00     0.042 A 
HETATM    7  C   UNL     1       7.612  23.092  53.700  1.00  0.00    -0.021 A 
HETATM    8  C   UNL     1       7.878  23.740  52.491  1.00  0.00     0.012 A 
HETATM    9  C   UNL     1       7.325  24.991  52.233  1.00  0.00     0.003 A 
HETATM   10  C   UNL     1       6.517  25.606  53.191  1.00  0.00     0.029 A 
BRANCH   7  11
HETATM   11  C   UNL     1       8.176  21.778  53.958  1.00  0.00     0.010 A 
HETATM   12  C   UNL     1       8.460  20.703  53.083  1.00  0.00     0.152 A 
HETATM   13  N   UNL     1       8.968  19.641  53.713  1.00  0.00    -0.187 NA
HETATM   14  N   UNL     1       9.009  20.029  54.998  1.00  0.00    -0.289 N 
HETATM   15  H   UNL     1       9.363  19.375  55.688  1.00  0.00     0.188 HD
HETATM   16  C   UNL     1       8.545  21.298  55.198  1.00  0.00     0.123 A 
ENDBRANCH   7  11
ENDBRANCH   2   5
BRANCH   1  17
HETATM   17  C   UNL     1       6.776  27.809  55.918  1.00  0.00     0.135 C 
HETATM   18  C   UNL     1       6.337  29.261  55.717  1.00  0.00     0.031 C 
BRANCH  17  19
HETATM   19  S   UNL     1       7.846  27.653  57.409  1.00  0.00    -0.150 SA
BRANCH  19  20
HETATM   20  C   UNL     1       9.118  28.921  57.071  1.00  0.00     0.113 C 
BRANCH  20  21
HETATM   21  C   UNL     1       9.102  29.997  58.131  1.00  0.00    -0.049 A 
HETATM   22  C   UNL     1      10.078  31.004  58.142  1.00  0.00     0.008 A 
HETATM   23  C   UNL     1      10.062  31.998  59.123  1.00  0.00     0.001 A 
HETATM   24  C   UNL     1       9.071  31.995  60.101  1.00  0.00     0.000 A 
HETATM   25  C   UNL     1       8.099  30.997  60.106  1.00  0.00     0.001 A 
HETATM   26  C   UNL     1       8.116  30.000  59.129  1.00  0.00     0.008 A 
ENDBRANCH  20  21
ENDBRANCH  19  20
ENDBRANCH  17  19
ENDBRANCH   1  17
TORSDOF 6
ENDMDL
MODEL 3
REMARK VINA RESULT:      -8.8      3.121      7.904
REMARK  6 active torsions:
REMARK  status: ('A' for Active; 'I' for Inactive)
REMARK    1  A    between atoms: C_2  and  S_3 
REMARK    2  A    between atoms: C_2  and  C_11 
REMARK    3  A    between atoms: S_3  and  C_4 
REMARK    4  A    between atoms: C_4  and  C_5 
REMARK       I    between atoms: C_11  and  N_12 
REMARK    5  A    between atoms: N_12  and  C_13 
REMARK    6  A    between atoms: C_15  and  C_16 
ROOT
HETATM    1  C   UNL     1       5.004  27.684  54.795  1.00  0.00     0.235 C 
HETATM    2  N   UNL     1       5.030  26.542  54.051  1.00  0.00    -0.326 N 
HETATM    3  O   UNL     1       3.900  28.236  54.904  1.00  0.00    -0.272 OA
HETATM    4  H   UNL     1       4.115  26.392  53.640  1.00  0.00     0.169 HD
ENDROOT
BRANCH   2   5
HETATM    5  C   UNL     1       6.005  25.591  53.701  1.00  0.00     0.035 A 
HETATM    6  C   UNL     1       6.373  24.478  54.456  1.00  0.00     0.042 A 
HETATM    7  C   UNL     1       7.375  23.592  54.015  1.00  0.00    -0.021 A 
HETATM    8  C   UNL     1       8.007  23.830  52.791  1.00  0.00     0.012 A 
HETATM    9  C   UNL     1       7.632  24.922  52.012  1.00  0.00     0.003 A 
HETATM   10  C   UNL     1       6.634  25.789  52.462  1.00  0.00     0.029 A 
BRANCH   7  11
HETATM   11  C   UNL     1       7.756  22.441  54.816  1.00  0.00     0.010 A 
HETATM   12  C   UNL     1       8.107  22.339  56.183  1.00  0.00     0.152 A 
HETATM   13  N   UNL     1       8.412  21.091  56.548  1.00  0.00    -0.187 NA
HETATM   14  N   UNL     1       8.261  20.387  55.414  1.00  0.00    -0.289 N 
HETATM   15  H   UNL     1       8.446  19.389  55.438  1.00  0.00     0.188 HD
HETATM   16  C   UNL     1       7.872  21.148  54.350  1.00  0.00     0.123 A 
ENDBRANCH   7  11
ENDBRANCH   2   5
BRANCH   1  17
HETATM   17  C   UNL     1       6.242  28.301  55.439  1.00  0.00     0.135 C 
HETATM   18  C   UNL     1       6.072  29.810  55.625  1.00  0.00     0.031 C 
BRANCH  17  19
HETATM   19  S   UNL     1       6.613  27.486  57.049  1.00  0.00    -0.150 SA
BRANCH  19  20
HETATM   20  C   UNL     1       8.440  27.461  57.026  1.00  0.00     0.113 C 
BRANCH  20  21
HETATM   21  C   UNL     1       9.003  28.791  57.469  1.00  0.00    -0.049 A 
HETATM   22  C   UNL     1      10.206  29.273  56.931  1.00  0.00     0.008 A 
HETATM   23  C   UNL     1      10.724  30.502  57.341  1.00  0.00     0.001 A 
HETATM   24  C   UNL     1      10.048  31.262  58.293  1.00  0.00     0.000 A 
HETATM   25  C   UNL     1       8.855  30.792  58.841  1.00  0.00     0.001 A 
HETATM   26  C   UNL     1       8.337  29.561  58.434  1.00  0.00     0.008 A 
ENDBRANCH  20  21
ENDBRANCH  19  20
ENDBRANCH  17  19
ENDBRANCH   1  17
TORSDOF 6
ENDMDL
MODEL 4
REMARK VINA RESULT:      -8.6      1.982      3.290
REMARK  6 active torsions:
REMARK  status: ('A' for Active; 'I' for Inactive)
REMARK    1  A    between atoms: C_2  and  S_3 
REMARK    2  A    between atoms: C_2  and  C_11 
REMARK    3  A    between atoms: S_3  and  C_4 
REMARK    4  A    between atoms: C_4  and  C_5 
REMARK       I    between atoms: C_11  and  N_12 
REMARK    5  A    between atoms: N_12  and  C_13 
REMARK    6  A    between atoms: C_15  and  C_16 
ROOT
HETATM    1  C   UNL     1       5.404  27.113  52.878  1.00  0.00     0.235 C 
HETATM    2  N   UNL     1       5.593  28.228  53.640  1.00  0.00    -0.326 N 
HETATM    3  O   UNL     1       4.998  27.307  51.723  1.00  0.00    -0.272 OA
HETATM    4  H   UNL     1       5.276  29.041  53.123  1.00  0.00     0.169 HD
ENDROOT
BRANCH   2   5
HETATM    5  C   UNL     1       6.063  28.490  54.939  1.00  0.00     0.035 A 
HETATM    6  C   UNL     1       7.347  28.918  55.275  1.00  0.00     0.042 A 
HETATM    7  C   UNL     1       7.717  29.142  56.616  1.00  0.00    -0.021 A 
HETATM    8  C   UNL     1       6.775  28.937  57.627  1.00  0.00     0.012 A 
HETATM    9  C   UNL     1       5.480  28.538  57.306  1.00  0.00     0.003 A 
HETATM   10  C   UNL     1       5.128  28.324  55.972  1.00  0.00     0.029 A 
BRANCH   7  11
HETATM   11  C   UNL     1       9.062  29.577  56.953  1.00  0.00     0.010 A 
HETATM   12  C   UNL     1      10.266  29.524  56.213  1.00  0.00     0.152 A 
HETATM   13  N   UNL     1      11.309  30.019  56.884  1.00  0.00    -0.187 NA
HETATM   14  N   UNL     1      10.778  30.390  58.061  1.00  0.00    -0.289 N 
HETATM   15  H   UNL     1      11.391  30.800  58.758  1.00  0.00     0.188 HD
HETATM   16  C   UNL     1       9.438  30.145  58.153  1.00  0.00     0.123 A 
ENDBRANCH   7  11
ENDBRANCH   2   5
BRANCH   1  17
HETATM   17  C   UNL     1       5.631  25.693  53.388  1.00  0.00     0.135 C 
HETATM   18  C   UNL     1       4.955  24.666  52.476  1.00  0.00     0.031 C 
BRANCH  17  19
HETATM   19  S   UNL     1       7.431  25.336  53.545  1.00  0.00    -0.150 SA
BRANCH  19  20
HETATM   20  C   UNL     1       7.565  23.760  52.630  1.00  0.00     0.113 C 
BRANCH  20  21
HETATM   21  C   UNL     1       7.790  22.605  53.576  1.00  0.00    -0.049 A 
HETATM   22  C   UNL     1       8.208  21.356  53.093  1.00  0.00     0.008 A 
HETATM   23  C   UNL     1       8.416  20.289  53.970  1.00  0.00     0.001 A 
HETATM   24  C   UNL     1       8.208  20.459  55.337  1.00  0.00     0.000 A 
HETATM   25  C   UNL     1       7.786  21.693  55.829  1.00  0.00     0.001 A 
HETATM   26  C   UNL     1       7.574  22.760  54.954  1.00  0.00     0.008 A 
ENDBRANCH  20  21
ENDBRANCH  19  20
ENDBRANCH  17  19
ENDBRANCH   1  17
TORSDOF 6
ENDMDL
MODEL 5
REMARK VINA RESULT:      -8.4      5.198      8.520
REMARK  6 active torsions:
REMARK  status: ('A' for Active; 'I' for Inactive)
REMARK    1  A    between atoms: C_2  and  S_3 
REMARK    2  A    between atoms: C_2  and  C_11 
REMARK    3  A    between atoms: S_3  and  C_4 
REMARK    4  A    between atoms: C_4  and  C_5 
REMARK       I    between atoms: C_11  and  N_12 
REMARK    5  A    between atoms: N_12  and  C_13 
REMARK    6  A    between atoms: C_15  and  C_16 
ROOT
HETATM    1  C   UNL     1       4.803  26.884  53.361  1.00  0.00     0.235 C 
HETATM    2  N   UNL     1       5.109  26.123  54.451  1.00  0.00    -0.326 N 
HETATM    3  O   UNL     1       3.738  27.514  53.421  1.00  0.00    -0.272 OA
HETATM    4  H   UNL     1       4.334  26.154  55.106  1.00  0.00     0.169 HD
ENDROOT
BRANCH   2   5
HETATM    5  C   UNL     1       6.185  25.305  54.837  1.00  0.00     0.035 A 
HETATM    6  C   UNL     1       6.508  24.063  54.292  1.00  0.00     0.042 A 
HETATM    7  C   UNL     1       7.608  23.320  54.763  1.00  0.00    -0.021 A 
HETATM    8  C   UNL     1       8.395  23.844  55.793  1.00  0.00     0.012 A 
HETATM    9  C   UNL     1       8.103  25.095  56.329  1.00  0.00     0.003 A 
HETATM   10  C   UNL     1       7.012  25.821  55.847  1.00  0.00     0.029 A 
BRANCH   7  11
HETATM   11  C   UNL     1       7.928  22.022  54.194  1.00  0.00     0.010 A 
HETATM   12  C   UNL     1       8.452  20.852  54.793  1.00  0.00     0.152 A 
HETATM   13  N   UNL     1       8.621  19.855  53.921  1.00  0.00    -0.187 NA
HETATM   14  N   UNL     1       8.209  20.383  52.756  1.00  0.00    -0.289 N 
HETATM   15  H   UNL     1       8.248  19.804  51.924  1.00  0.00     0.188 HD
HETATM   16  C   UNL     1       7.787  21.677  52.866  1.00  0.00     0.123 A 
ENDBRANCH   7  11
ENDBRANCH   2   5
BRANCH   1  17
HETATM   17  C   UNL     1       5.671  26.952  52.109  1.00  0.00     0.135 C 
HETATM   18  C   UNL     1       5.577  25.655  51.302  1.00  0.00     0.031 C 
BRANCH  17  19
HETATM   19  S   UNL     1       5.203  28.399  51.070  1.00  0.00    -0.150 SA
BRANCH  19  20
HETATM   20  C   UNL     1       5.296  27.680  49.392  1.00  0.00     0.113 C 
BRANCH  20  21
HETATM   21  C   UNL     1       3.914  27.461  48.822  1.00  0.00    -0.049 A 
HETATM   22  C   UNL     1       2.823  28.213  49.282  1.00  0.00     0.008 A 
HETATM   23  C   UNL     1       1.547  28.009  48.752  1.00  0.00     0.001 A 
HETATM   24  C   UNL     1       1.349  27.051  47.760  1.00  0.00     0.000 A 
HETATM   25  C   UNL     1       2.424  26.292  47.299  1.00  0.00     0.001 A 
HETATM   26  C   UNL     1       3.699  26.493  47.830  1.00  0.00     0.008 A 
ENDBRANCH  20  21
ENDBRANCH  19  20
ENDBRANCH  17  19
ENDBRANCH   1  17
TORSDOF 6
ENDMDL
MODEL 6
REMARK VINA RESULT:      -8.4      3.098      8.002
REMARK  6 active torsions:
REMARK  status: ('A' for Active; 'I' for Inactive)
REMARK    1  A    between atoms: C_2  and  S_3 
REMARK    2  A    between atoms: C_2  and  C_11 
REMARK    3  A    between atoms: S_3  and  C_4 
REMARK    4  A    between atoms: C_4  and  C_5 
REMARK       I    between atoms: C_11  and  N_12 
REMARK    5  A    between atoms: N_12  and  C_13 
REMARK    6  A    between atoms: C_15  and  C_16 
ROOT
HETATM    1  C   UNL     1       5.304  26.845  54.396  1.00  0.00     0.235 C 
HETATM    2  N   UNL     1       5.489  25.922  55.383  1.00  0.00    -0.326 N 
HETATM    3  O   UNL     1       4.223  27.450  54.415  1.00  0.00    -0.272 OA
HETATM    4  H   UNL     1       4.637  25.843  55.928  1.00  0.00     0.169 HD
ENDROOT
BRANCH   2   5
HETATM    5  C   UNL     1       6.530  25.061  55.772  1.00  0.00     0.035 A 
HETATM    6  C   UNL     1       6.858  23.847  55.171  1.00  0.00     0.042 A 
HETATM    7  C   UNL     1       7.920  23.055  55.651  1.00  0.00    -0.021 A 
HETATM    8  C   UNL     1       8.663  23.500  56.747  1.00  0.00     0.012 A 
HETATM    9  C   UNL     1       8.366  24.724  57.341  1.00  0.00     0.003 A 
HETATM   10  C   UNL     1       7.314  25.499  56.851  1.00  0.00     0.029 A 
BRANCH   7  11
HETATM   11  C   UNL     1       8.244  21.786  55.022  1.00  0.00     0.010 A 
HETATM   12  C   UNL     1       8.060  21.336  53.693  1.00  0.00     0.152 A 
HETATM   13  N   UNL     1       8.481  20.083  53.506  1.00  0.00    -0.187 NA
HETATM   14  N   UNL     1       8.936  19.722  54.717  1.00  0.00    -0.289 N 
HETATM   15  H   UNL     1       9.313  18.786  54.831  1.00  0.00     0.188 HD
HETATM   16  C   UNL     1       8.815  20.703  55.658  1.00  0.00     0.123 A 
ENDBRANCH   7  11
ENDBRANCH   2   5
BRANCH   1  17
HETATM   17  C   UNL     1       6.322  27.119  53.294  1.00  0.00     0.135 C 
HETATM   18  C   UNL     1       5.725  28.007  52.200  1.00  0.00     0.031 C 
BRANCH  17  19
HETATM   19  S   UNL     1       7.846  27.883  53.991  1.00  0.00    -0.150 SA
BRANCH  19  20
HETATM   20  C   UNL     1       7.163  28.823  55.400  1.00  0.00     0.113 C 
BRANCH  20  21
HETATM   21  C   UNL     1       8.269  29.335  56.294  1.00  0.00    -0.049 A 
HETATM   22  C   UNL     1       9.587  29.422  55.822  1.00  0.00     0.008 A 
HETATM   23  C   UNL     1      10.606  29.896  56.650  1.00  0.00     0.001 A 
HETATM   24  C   UNL     1      10.320  30.286  57.956  1.00  0.00     0.000 A 
HETATM   25  C   UNL     1       9.016  30.198  58.440  1.00  0.00     0.001 A 
HETATM   26  C   UNL     1       7.995  29.721  57.615  1.00  0.00     0.008 A 
ENDBRANCH  20  21
ENDBRANCH  19  20
ENDBRANCH  17  19
ENDBRANCH   1  17
TORSDOF 6
ENDMDL
MODEL 7
REMARK VINA RESULT:      -8.1      2.456      3.920
REMARK  6 active torsions:
REMARK  status: ('A' for Active; 'I' for Inactive)
REMARK    1  A    between atoms: C_2  and  S_3 
REMARK    2  A    between atoms: C_2  and  C_11 
REMARK    3  A    between atoms: S_3  and  C_4 
REMARK    4  A    between atoms: C_4  and  C_5 
REMARK       I    between atoms: C_11  and  N_12 
REMARK    5  A    between atoms: N_12  and  C_13 
REMARK    6  A    between atoms: C_15  and  C_16 
ROOT
HETATM    1  C   UNL     1       8.607  29.587  57.542  1.00  0.00     0.235 C 
HETATM    2  N   UNL     1       8.882  30.600  58.412  1.00  0.00    -0.326 N 
HETATM    3  O   UNL     1       9.184  29.640  56.447  1.00  0.00    -0.272 OA
HETATM    4  H   UNL     1       9.475  31.283  57.950  1.00  0.00     0.169 HD
ENDROOT
BRANCH   2   5
HETATM    5  C   UNL     1       8.512  30.923  59.729  1.00  0.00     0.035 A 
HETATM    6  C   UNL     1       7.308  31.503  60.124  1.00  0.00     0.042 A 
HETATM    7  C   UNL     1       7.043  31.796  61.476  1.00  0.00    -0.021 A 
HETATM    8  C   UNL     1       8.007  31.491  62.442  1.00  0.00     0.012 A 
HETATM    9  C   UNL     1       9.204  30.886  62.068  1.00  0.00     0.003 A 
HETATM   10  C   UNL     1       9.448  30.599  60.723  1.00  0.00     0.029 A 
BRANCH   7  11
HETATM   11  C   UNL     1       5.787  32.409  61.873  1.00  0.00     0.010 A 
HETATM   12  C   UNL     1       5.073  32.352  63.093  1.00  0.00     0.152 A 
HETATM   13  N   UNL     1       3.935  33.050  63.061  1.00  0.00    -0.187 NA
HETATM   14  N   UNL     1       3.913  33.557  61.817  1.00  0.00    -0.289 N 
HETATM   15  H   UNL     1       3.124  34.134  61.545  1.00  0.00     0.188 HD
HETATM   16  C   UNL     1       4.997  33.201  61.066  1.00  0.00     0.123 A 
ENDBRANCH   7  11
ENDBRANCH   2   5
BRANCH   1  17
HETATM   17  C   UNL     1       7.625  28.459  57.843  1.00  0.00     0.135 C 
HETATM   18  C   UNL     1       6.206  28.835  57.414  1.00  0.00     0.031 C 
BRANCH  17  19
HETATM   19  S   UNL     1       8.159  26.896  57.027  1.00  0.00    -0.150 SA
BRANCH  19  20
HETATM   20  C   UNL     1       6.766  26.596  55.883  1.00  0.00     0.113 C 
BRANCH  20  21
HETATM   21  C   UNL     1       7.161  25.627  54.794  1.00  0.00    -0.049 A 
HETATM   22  C   UNL     1       7.566  26.093  53.534  1.00  0.00     0.008 A 
HETATM   23  C   UNL     1       7.932  25.195  52.529  1.00  0.00     0.001 A 
HETATM   24  C   UNL     1       7.896  23.824  52.773  1.00  0.00     0.000 A 
HETATM   25  C   UNL     1       7.489  23.347  54.018  1.00  0.00     0.001 A 
HETATM   26  C   UNL     1       7.120  24.243  55.022  1.00  0.00     0.008 A 
ENDBRANCH  20  21
ENDBRANCH  19  20
ENDBRANCH  17  19
ENDBRANCH   1  17
TORSDOF 6
ENDMDL
MODEL 8
REMARK VINA RESULT:      -8.1      8.243     12.624
REMARK  6 active torsions:
REMARK  status: ('A' for Active; 'I' for Inactive)
REMARK    1  A    between atoms: C_2  and  S_3 
REMARK    2  A    between atoms: C_2  and  C_11 
REMARK    3  A    between atoms: S_3  and  C_4 
REMARK    4  A    between atoms: C_4  and  C_5 
REMARK       I    between atoms: C_11  and  N_12 
REMARK    5  A    between atoms: N_12  and  C_13 
REMARK    6  A    between atoms: C_15  and  C_16 
ROOT
HETATM    1  C   UNL     1       2.810  34.059  63.388  1.00  0.00     0.235 C 
HETATM    2  N   UNL     1       3.747  33.325  64.053  1.00  0.00    -0.326 N 
HETATM    3  O   UNL     1       1.648  33.965  63.808  1.00  0.00    -0.272 OA
HETATM    4  H   UNL     1       3.285  32.751  64.751  1.00  0.00     0.169 HD
ENDROOT
BRANCH   2   5
HETATM    5  C   UNL     1       5.140  33.156  63.966  1.00  0.00     0.035 A 
HETATM    6  C   UNL     1       5.820  32.456  62.971  1.00  0.00     0.042 A 
HETATM    7  C   UNL     1       7.224  32.339  62.986  1.00  0.00    -0.021 A 
HETATM    8  C   UNL     1       7.948  32.944  64.017  1.00  0.00     0.012 A 
HETATM    9  C   UNL     1       7.286  33.670  65.003  1.00  0.00     0.003 A 
HETATM   10  C   UNL     1       5.895  33.779  64.971  1.00  0.00     0.029 A 
BRANCH   7  11
HETATM   11  C   UNL     1       7.920  31.599  61.947  1.00  0.00     0.010 A 
HETATM   12  C   UNL     1       8.981  30.666  62.028  1.00  0.00     0.152 A 
HETATM   13  N   UNL     1       9.361  30.208  60.832  1.00  0.00    -0.187 NA
HETATM   14  N   UNL     1       8.546  30.849  59.978  1.00  0.00    -0.289 N 
HETATM   15  H   UNL     1       8.647  30.665  58.985  1.00  0.00     0.188 HD
HETATM   16  C   UNL     1       7.668  31.693  60.595  1.00  0.00     0.123 A 
ENDBRANCH   7  11
ENDBRANCH   2   5
BRANCH   1  17
HETATM   17  C   UNL     1       3.123  34.926  62.172  1.00  0.00     0.135 C 
HETATM   18  C   UNL     1       1.920  35.008  61.230  1.00  0.00     0.031 C 
BRANCH  17  19
HETATM   19  S   UNL     1       3.658  36.609  62.693  1.00  0.00    -0.150 SA
BRANCH  19  20
HETATM   20  C   UNL     1       5.473  36.476  62.529  1.00  0.00     0.113 C 
BRANCH  20  21
HETATM   21  C   UNL     1       6.128  37.830  62.664  1.00  0.00    -0.049 A 
HETATM   22  C   UNL     1       6.122  38.508  63.892  1.00  0.00     0.008 A 
HETATM   23  C   UNL     1       6.729  39.759  64.014  1.00  0.00     0.001 A 
HETATM   24  C   UNL     1       7.347  40.346  62.912  1.00  0.00     0.000 A 
HETATM   25  C   UNL     1       7.353  39.686  61.684  1.00  0.00     0.001 A 
HETATM   26  C   UNL     1       6.744  38.437  61.559  1.00  0.00     0.008 A 
ENDBRANCH  20  21
ENDBRANCH  19  20
ENDBRANCH  17  19
ENDBRANCH   1  17
TORSDOF 6
ENDMDL
MODEL 9
REMARK VINA RESULT:      -8.0      4.318      7.893
REMARK  6 active torsions:
REMARK  status: ('A' for Active; 'I' for Inactive)
REMARK    1  A    between atoms: C_2  and  S_3 
REMARK    2  A    between atoms: C_2  and  C_11 
REMARK    3  A    between atoms: S_3  and  C_4 
REMARK    4  A    between atoms: C_4  and  C_5 
REMARK       I    between atoms: C_11  and  N_12 
REMARK    5  A    between atoms: N_12  and  C_13 
REMARK    6  A    between atoms: C_15  and  C_16 
ROOT
HETATM    1  C   UNL     1       5.401  27.351  55.153  1.00  0.00     0.235 C 
HETATM    2  N   UNL     1       5.638  26.253  55.926  1.00  0.00    -0.326 N 
HETATM    3  O   UNL     1       4.367  27.983  55.410  1.00  0.00    -0.272 OA
HETATM    4  H   UNL     1       4.847  26.105  56.544  1.00  0.00     0.169 HD
ENDROOT
BRANCH   2   5
HETATM    5  C   UNL     1       6.662  25.295  56.025  1.00  0.00     0.035 A 
HETATM    6  C   UNL     1       6.831  24.186  55.197  1.00  0.00     0.042 A 
HETATM    7  C   UNL     1       7.892  23.280  55.393  1.00  0.00    -0.021 A 
HETATM    8  C   UNL     1       8.796  23.502  56.435  1.00  0.00     0.012 A 
HETATM    9  C   UNL     1       8.658  24.620  57.254  1.00  0.00     0.003 A 
HETATM   10  C   UNL     1       7.603  25.511  57.043  1.00  0.00     0.029 A 
BRANCH   7  11
HETATM   11  C   UNL     1       8.051  22.123  54.529  1.00  0.00     0.010 A 
HETATM   12  C   UNL     1       8.493  20.809  54.812  1.00  0.00     0.152 A 
HETATM   13  N   UNL     1       8.514  20.025  53.732  1.00  0.00    -0.187 NA
HETATM   14  N   UNL     1       8.088  20.834  52.748  1.00  0.00    -0.289 N 
HETATM   15  H   UNL     1       8.022  20.458  51.808  1.00  0.00     0.188 HD
HETATM   16  C   UNL     1       7.800  22.100  53.173  1.00  0.00     0.123 A 
ENDBRANCH   7  11
ENDBRANCH   2   5
BRANCH   1  17
HETATM   17  C   UNL     1       6.307  27.788  54.006  1.00  0.00     0.135 C 
HETATM   18  C   UNL     1       7.774  27.811  54.441  1.00  0.00     0.031 C 
BRANCH  17  19
HETATM   19  S   UNL     1       6.080  26.693  52.543  1.00  0.00    -0.150 SA
BRANCH  19  20
HETATM   20  C   UNL     1       4.623  27.455  51.747  1.00  0.00     0.113 C 
BRANCH  20  21
HETATM   21  C   UNL     1       4.801  27.523  50.248  1.00  0.00    -0.049 A 
HETATM   22  C   UNL     1       4.545  26.401  49.446  1.00  0.00     0.008 A 
HETATM   23  C   UNL     1       4.709  26.467  48.061  1.00  0.00     0.001 A 
HETATM   24  C   UNL     1       5.131  27.653  47.464  1.00  0.00     0.000 A 
HETATM   25  C   UNL     1       5.395  28.773  48.250  1.00  0.00     0.001 A 
HETATM   26  C   UNL     1       5.235  28.708  49.636  1.00  0.00     0.008 A 
ENDBRANCH  20  21
ENDBRANCH  19  20
ENDBRANCH  17  19
ENDBRANCH   1  17
TORSDOF 6
ENDMDL
MODEL 10
REMARK VINA RESULT:      -8.0      1.360      2.046
REMARK  6 active torsions:
REMARK  status: ('A' for Active; 'I' for Inactive)
REMARK    1  A    between atoms: C_2  and  S_3 
REMARK    2  A    between atoms: C_2  and  C_11 
REMARK    3  A    between atoms: S_3  and  C_4 
REMARK    4  A    between atoms: C_4  and  C_5 
REMARK       I    between atoms: C_11  and  N_12 
REMARK    5  A    between atoms: N_12  and  C_13 
REMARK    6  A    between atoms: C_15  and  C_16 
ROOT
HETATM    1  C   UNL     1       6.184  27.588  53.669  1.00  0.00     0.235 C 
HETATM    2  N   UNL     1       6.490  28.717  54.370  1.00  0.00    -0.326 N 
HETATM    3  O   UNL     1       5.659  27.763  52.560  1.00  0.00    -0.272 OA
HETATM    4  H   UNL     1       6.144  29.526  53.865  1.00  0.00     0.169 HD
ENDROOT
BRANCH   2   5
HETATM    5  C   UNL     1       7.109  28.999  55.600  1.00  0.00     0.035 A 
HETATM    6  C   UNL     1       6.675  29.931  56.542  1.00  0.00     0.042 A 
HETATM    7  C   UNL     1       7.380  30.143  57.743  1.00  0.00    -0.021 A 
HETATM    8  C   UNL     1       8.535  29.398  57.997  1.00  0.00     0.012 A 
HETATM    9  C   UNL     1       8.966  28.443  57.080  1.00  0.00     0.003 A 
HETATM   10  C   UNL     1       8.253  28.242  55.897  1.00  0.00     0.029 A 
BRANCH   7  11
HETATM   11  C   UNL     1       6.923  31.125  58.711  1.00  0.00     0.010 A 
HETATM   12  C   UNL     1       5.718  31.864  58.783  1.00  0.00     0.152 A 
HETATM   13  N   UNL     1       5.678  32.689  59.832  1.00  0.00    -0.187 NA
HETATM   14  N   UNL     1       6.859  32.485  60.437  1.00  0.00    -0.289 N 
HETATM   15  H   UNL     1       7.069  33.015  61.277  1.00  0.00     0.188 HD
HETATM   16  C   UNL     1       7.641  31.561  59.805  1.00  0.00     0.123 A 
ENDBRANCH   7  11
ENDBRANCH   2   5
BRANCH   1  17
HETATM   17  C   UNL     1       6.420  26.176  54.197  1.00  0.00     0.135 C 
HETATM   18  C   UNL     1       5.462  25.850  55.344  1.00  0.00     0.031 C 
BRANCH  17  19
HETATM   19  S   UNL     1       6.256  24.939  52.842  1.00  0.00    -0.150 SA
BRANCH  19  20
HETATM   20  C   UNL     1       7.923  24.192  52.835  1.00  0.00     0.113 C 
BRANCH  20  21
HETATM   21  C   UNL     1       7.943  22.908  53.629  1.00  0.00    -0.049 A 
HETATM   22  C   UNL     1       7.934  22.934  55.031  1.00  0.00     0.008 A 
HETATM   23  C   UNL     1       7.951  21.745  55.763  1.00  0.00     0.001 A 
HETATM   24  C   UNL     1       7.980  20.519  55.102  1.00  0.00     0.000 A 
HETATM   25  C   UNL     1       7.996  20.479  53.709  1.00  0.00     0.001 A 
HETATM   26  C   UNL     1       7.982  21.667  52.976  1.00  0.00     0.008 A 
ENDBRANCH  20  21
ENDBRANCH  19  20
ENDBRANCH  17  19
ENDBRANCH   1  17
TORSDOF 6
ENDMDL
