MODEL 1
REMARK VINA RESULT:      -8.9      0.000      0.000
REMARK  5 active torsions:
REMARK  status: ('A' for Active; 'I' for Inactive)
REMARK    1  A    between atoms: C_6  and  N_7 
REMARK       I    between atoms: N_7  and  C_8 
REMARK    2  A    between atoms: C_8  and  C_9 
REMARK    3  A    between atoms: C_10  and  O_11 
REMARK    4  A    between atoms: C_14  and  O_15 
REMARK    5  A    between atoms: C_20  and  C_21 
ROOT
HETATM    1  C   UNL     1       7.895  21.712  54.911  1.00  0.00     0.073 C 
HETATM    2  C   UNL     1       7.893  22.966  55.706  1.00  0.00     0.065 A 
HETATM    3  N   UNL     1       8.256  22.939  56.996  1.00  0.00    -0.177 NA
HETATM    4  N   UNL     1       8.070  24.202  57.402  1.00  0.00    -0.262 N 
HETATM    5  H   UNL     1       8.293  24.422  58.363  1.00  0.00     0.191 HD
HETATM    6  C   UNL     1       7.671  25.065  56.416  1.00  0.00     0.137 A 
HETATM    7  C   UNL     1       7.495  24.271  55.293  1.00  0.00     0.046 A 
ENDROOT
BRANCH   6   8
HETATM    8  N   UNL     1       7.512  26.416  56.687  1.00  0.00    -0.307 N 
HETATM    9  C   UNL     1       6.284  26.963  57.039  1.00  0.00     0.260 C 
HETATM   10  O   UNL     1       5.208  26.377  57.015  1.00  0.00    -0.267 OA
HETATM   11  H   UNL     1       8.274  27.041  56.462  1.00  0.00     0.170 HD
BRANCH   9  12
HETATM   12  C   UNL     1       6.307  28.419  57.368  1.00  0.00     0.065 A 
HETATM   13  C   UNL     1       7.492  29.036  57.795  1.00  0.00     0.086 A 
HETATM   14  C   UNL     1       7.521  30.404  58.103  1.00  0.00     0.074 A 
HETATM   15  C   UNL     1       6.354  31.161  58.025  1.00  0.00     0.070 A 
HETATM   16  C   UNL     1       5.166  30.547  57.621  1.00  0.00     0.038 A 
HETATM   17  C   UNL     1       5.135  29.186  57.302  1.00  0.00     0.022 A 
BRANCH  13  18
HETATM   18  O   UNL     1       8.679  28.351  57.832  1.00  0.00    -0.355 OA
HETATM   19  C   UNL     1       9.710  29.113  57.196  1.00  0.00     0.210 C 
ENDBRANCH  13  18
BRANCH  15  20
HETATM   20  O   UNL     1       6.241  32.494  58.306  1.00  0.00    -0.356 OA
HETATM   21  C   UNL     1       5.443  32.846  59.431  1.00  0.00     0.210 C 
ENDBRANCH  15  20
ENDBRANCH   9  12
ENDBRANCH   6   8
BRANCH   7  22
HETATM   22  C   UNL     1       6.859  24.670  54.050  1.00  0.00    -0.020 A 
HETATM   23  C   UNL     1       5.469  24.813  53.972  1.00  0.00     0.014 A 
HETATM   24  C   UNL     1       4.871  25.250  52.786  1.00  0.00     0.020 A 
HETATM   25  C   UNL     1       5.663  25.548  51.679  1.00  0.00     0.011 A 
HETATM   26 BR   UNL     1       4.854  26.145  50.078  1.00  0.00    -0.051 Br
HETATM   27  C   UNL     1       7.048  25.413  51.743  1.00  0.00     0.020 A 
HETATM   28  C   UNL     1       7.644  24.978  52.928  1.00  0.00     0.014 A 
ENDBRANCH   7  22
TORSDOF 5
ENDMDL
MODEL 2
REMARK VINA RESULT:      -8.9      2.853      4.234
REMARK  5 active torsions:
REMARK  status: ('A' for Active; 'I' for Inactive)
REMARK    1  A    between atoms: C_6  and  N_7 
REMARK       I    between atoms: N_7  and  C_8 
REMARK    2  A    between atoms: C_8  and  C_9 
REMARK    3  A    between atoms: C_10  and  O_11 
REMARK    4  A    between atoms: C_14  and  O_15 
REMARK    5  A    between atoms: C_20  and  C_21 
ROOT
HETATM    1  C   UNL     1       4.947  26.265  49.996  1.00  0.00     0.073 C 
HETATM    2  C   UNL     1       5.368  27.224  51.049  1.00  0.00     0.065 A 
HETATM    3  N   UNL     1       5.206  28.539  50.856  1.00  0.00    -0.177 NA
HETATM    4  N   UNL     1       5.747  29.088  51.952  1.00  0.00    -0.262 N 
HETATM    5  H   UNL     1       5.729  30.096  52.029  1.00  0.00     0.191 HD
HETATM    6  C   UNL     1       6.190  28.185  52.882  1.00  0.00     0.137 A 
HETATM    7  C   UNL     1       6.001  26.943  52.295  1.00  0.00     0.046 A 
ENDROOT
BRANCH   6   8
HETATM    8  N   UNL     1       6.706  28.620  54.093  1.00  0.00    -0.307 N 
HETATM    9  C   UNL     1       5.892  29.014  55.149  1.00  0.00     0.260 C 
HETATM   10  O   UNL     1       4.676  29.157  55.099  1.00  0.00    -0.267 OA
HETATM   11  H   UNL     1       7.697  28.811  54.148  1.00  0.00     0.170 HD
BRANCH   9  12
HETATM   12  C   UNL     1       6.612  29.384  56.404  1.00  0.00     0.065 A 
HETATM   13  C   UNL     1       7.604  28.546  56.931  1.00  0.00     0.086 A 
HETATM   14  C   UNL     1       8.286  28.890  58.108  1.00  0.00     0.074 A 
HETATM   15  C   UNL     1       7.954  30.057  58.790  1.00  0.00     0.070 A 
HETATM   16  C   UNL     1       6.951  30.886  58.280  1.00  0.00     0.038 A 
HETATM   17  C   UNL     1       6.277  30.553  57.102  1.00  0.00     0.022 A 
BRANCH  13  18
HETATM   18  O   UNL     1       8.011  27.417  56.268  1.00  0.00    -0.355 OA
HETATM   19  C   UNL     1       7.946  26.281  57.136  1.00  0.00     0.210 C 
ENDBRANCH  13  18
BRANCH  15  20
HETATM   20  O   UNL     1       8.529  30.502  59.948  1.00  0.00    -0.356 OA
HETATM   21  C   UNL     1       7.714  31.293  60.806  1.00  0.00     0.210 C 
ENDBRANCH  15  20
ENDBRANCH   9  12
ENDBRANCH   6   8
BRANCH   7  22
HETATM   22  C   UNL     1       6.521  25.676  52.779  1.00  0.00    -0.020 A 
HETATM   23  C   UNL     1       7.542  25.012  52.088  1.00  0.00     0.014 A 
HETATM   24  C   UNL     1       8.073  23.821  52.590  1.00  0.00     0.020 A 
HETATM   25  C   UNL     1       7.587  23.295  53.786  1.00  0.00     0.011 A 
HETATM   26 BR   UNL     1       8.312  21.687  54.468  1.00  0.00    -0.051 Br
HETATM   27  C   UNL     1       6.574  23.946  54.486  1.00  0.00     0.020 A 
HETATM   28  C   UNL     1       6.045  25.137  53.984  1.00  0.00     0.014 A 
ENDBRANCH   7  22
TORSDOF 5
ENDMDL
MODEL 3
REMARK VINA RESULT:      -8.9      3.618      7.571
REMARK  5 active torsions:
REMARK  status: ('A' for Active; 'I' for Inactive)
REMARK    1  A    between atoms: C_6  and  N_7 
REMARK       I    between atoms: N_7  and  C_8 
REMARK    2  A    between atoms: C_8  and  C_9 
REMARK    3  A    between atoms: C_10  and  O_11 
REMARK    4  A    between atoms: C_14  and  O_15 
REMARK    5  A    between atoms: C_20  and  C_21 
ROOT
HETATM    1  C   UNL     1       3.693  30.762  53.796  1.00  0.00     0.073 C 
HETATM    2  C   UNL     1       3.902  29.298  53.657  1.00  0.00     0.065 A 
HETATM    3  N   UNL     1       3.108  28.585  52.848  1.00  0.00    -0.177 NA
HETATM    4  N   UNL     1       3.531  27.325  53.022  1.00  0.00    -0.262 N 
HETATM    5  H   UNL     1       3.070  26.598  52.491  1.00  0.00     0.191 HD
HETATM    6  C   UNL     1       4.612  27.196  53.854  1.00  0.00     0.137 A 
HETATM    7  C   UNL     1       4.851  28.475  54.332  1.00  0.00     0.046 A 
ENDROOT
BRANCH   6   8
HETATM    8  N   UNL     1       5.193  25.954  54.063  1.00  0.00    -0.307 N 
HETATM    9  C   UNL     1       6.400  25.592  53.478  1.00  0.00     0.260 C 
HETATM   10  O   UNL     1       7.005  26.236  52.629  1.00  0.00    -0.267 OA
HETATM   11  H   UNL     1       4.641  25.240  54.519  1.00  0.00     0.170 HD
BRANCH   9  12
HETATM   12  C   UNL     1       6.917  24.246  53.868  1.00  0.00     0.065 A 
HETATM   13  C   UNL     1       6.965  23.863  55.217  1.00  0.00     0.086 A 
HETATM   14  C   UNL     1       7.447  22.600  55.589  1.00  0.00     0.074 A 
HETATM   15  C   UNL     1       7.924  21.721  54.618  1.00  0.00     0.070 A 
HETATM   16  C   UNL     1       7.898  22.106  53.276  1.00  0.00     0.038 A 
HETATM   17  C   UNL     1       7.408  23.360  52.899  1.00  0.00     0.022 A 
BRANCH  13  18
HETATM   18  O   UNL     1       6.454  24.665  56.204  1.00  0.00    -0.355 OA
HETATM   19  C   UNL     1       7.512  25.196  57.009  1.00  0.00     0.210 C 
ENDBRANCH  13  18
BRANCH  15  20
HETATM   20  O   UNL     1       8.428  20.471  54.845  1.00  0.00    -0.356 OA
HETATM   21  C   UNL     1       9.224  20.304  56.013  1.00  0.00     0.210 C 
ENDBRANCH  15  20
ENDBRANCH   9  12
ENDBRANCH   6   8
BRANCH   7  22
HETATM   22  C   UNL     1       5.743  28.832  55.422  1.00  0.00    -0.020 A 
HETATM   23  C   UNL     1       7.131  28.790  55.252  1.00  0.00     0.014 A 
HETATM   24  C   UNL     1       7.980  29.187  56.289  1.00  0.00     0.020 A 
HETATM   25  C   UNL     1       7.441  29.632  57.495  1.00  0.00     0.011 A 
HETATM   26 BR   UNL     1       8.590  30.176  58.894  1.00  0.00    -0.051 Br
HETATM   27  C   UNL     1       6.061  29.682  57.677  1.00  0.00     0.020 A 
HETATM   28  C   UNL     1       5.214  29.286  56.641  1.00  0.00     0.014 A 
ENDBRANCH   7  22
TORSDOF 5
ENDMDL
MODEL 4
REMARK VINA RESULT:      -8.7      0.963      1.850
REMARK  5 active torsions:
REMARK  status: ('A' for Active; 'I' for Inactive)
REMARK    1  A    between atoms: C_6  and  N_7 
REMARK       I    between atoms: N_7  and  C_8 
REMARK    2  A    between atoms: C_8  and  C_9 
REMARK    3  A    between atoms: C_10  and  O_11 
REMARK    4  A    between atoms: C_14  and  O_15 
REMARK    5  A    between atoms: C_20  and  C_21 
ROOT
HETATM    1  C   UNL     1       8.301  21.978  55.019  1.00  0.00     0.073 C 
HETATM    2  C   UNL     1       8.061  23.167  55.875  1.00  0.00     0.065 A 
HETATM    3  N   UNL     1       8.357  23.120  57.181  1.00  0.00    -0.177 NA
HETATM    4  N   UNL     1       7.955  24.313  57.638  1.00  0.00    -0.262 N 
HETATM    5  H   UNL     1       8.092  24.509  58.621  1.00  0.00     0.191 HD
HETATM    6  C   UNL     1       7.476  25.162  56.675  1.00  0.00     0.137 A 
HETATM    7  C   UNL     1       7.484  24.418  55.505  1.00  0.00     0.046 A 
ENDROOT
BRANCH   6   8
HETATM    8  N   UNL     1       7.094  26.454  57.004  1.00  0.00    -0.307 N 
HETATM    9  C   UNL     1       8.017  27.473  57.204  1.00  0.00     0.260 C 
HETATM   10  O   UNL     1       9.234  27.336  57.255  1.00  0.00    -0.267 OA
HETATM   11  H   UNL     1       6.131  26.614  57.266  1.00  0.00     0.170 HD
BRANCH   9  12
HETATM   12  C   UNL     1       7.430  28.818  57.480  1.00  0.00     0.065 A 
HETATM   13  C   UNL     1       6.413  29.334  56.664  1.00  0.00     0.086 A 
HETATM   14  C   UNL     1       5.855  30.595  56.920  1.00  0.00     0.074 A 
HETATM   15  C   UNL     1       6.338  31.371  57.971  1.00  0.00     0.070 A 
HETATM   16  C   UNL     1       7.365  30.870  58.774  1.00  0.00     0.038 A 
HETATM   17  C   UNL     1       7.917  29.609  58.530  1.00  0.00     0.022 A 
BRANCH  13  18
HETATM   18  O   UNL     1       5.862  28.588  55.654  1.00  0.00    -0.355 OA
HETATM   19  C   UNL     1       4.478  28.915  55.495  1.00  0.00     0.210 C 
ENDBRANCH  13  18
BRANCH  15  20
HETATM   20  O   UNL     1       5.893  32.615  58.321  1.00  0.00    -0.356 OA
HETATM   21  C   UNL     1       5.476  32.790  59.671  1.00  0.00     0.210 C 
ENDBRANCH  15  20
ENDBRANCH   9  12
ENDBRANCH   6   8
BRANCH   7  22
HETATM   22  C   UNL     1       6.858  24.787  54.248  1.00  0.00    -0.020 A 
HETATM   23  C   UNL     1       5.481  25.034  54.181  1.00  0.00     0.014 A 
HETATM   24  C   UNL     1       4.897  25.441  52.978  1.00  0.00     0.020 A 
HETATM   25  C   UNL     1       5.689  25.605  51.843  1.00  0.00     0.011 A 
HETATM   26 BR   UNL     1       4.898  26.163  50.219  1.00  0.00    -0.051 Br
HETATM   27  C   UNL     1       7.060  25.366  51.896  1.00  0.00     0.020 A 
HETATM   28  C   UNL     1       7.643  24.961  53.098  1.00  0.00     0.014 A 
ENDBRANCH   7  22
TORSDOF 5
ENDMDL
MODEL 5
REMARK VINA RESULT:      -8.7      4.239      7.274
REMARK  5 active torsions:
REMARK  status: ('A' for Active; 'I' for Inactive)
REMARK    1  A    between atoms: C_6  and  N_7 
REMARK       I    between atoms: N_7  and  C_8 
REMARK    2  A    between atoms: C_8  and  C_9 
REMARK    3  A    between atoms: C_10  and  O_11 
REMARK    4  A    between atoms: C_14  and  O_15 
REMARK    5  A    between atoms: C_20  and  C_21 
ROOT
HETATM    1  C   UNL     1       8.123  26.784  56.931  1.00  0.00     0.073 C 
HETATM    2  C   UNL     1       7.149  27.159  55.875  1.00  0.00     0.065 A 
HETATM    3  N   UNL     1       6.450  28.296  55.985  1.00  0.00    -0.177 NA
HETATM    4  N   UNL     1       5.641  28.274  54.918  1.00  0.00    -0.262 N 
HETATM    5  H   UNL     1       5.014  29.057  54.789  1.00  0.00     0.191 HD
HETATM    6  C   UNL     1       5.833  27.208  54.079  1.00  0.00     0.137 A 
HETATM    7  C   UNL     1       6.787  26.424  54.707  1.00  0.00     0.046 A 
ENDROOT
BRANCH   6   8
HETATM    8  N   UNL     1       5.110  27.103  52.900  1.00  0.00    -0.307 N 
HETATM    9  C   UNL     1       5.348  27.930  51.807  1.00  0.00     0.260 C 
HETATM   10  O   UNL     1       6.091  28.904  51.796  1.00  0.00    -0.267 OA
HETATM   11  H   UNL     1       4.283  26.523  52.898  1.00  0.00     0.170 HD
BRANCH   9  12
HETATM   12  C   UNL     1       4.528  27.632  50.595  1.00  0.00     0.065 A 
HETATM   13  C   UNL     1       3.436  28.443  50.255  1.00  0.00     0.086 A 
HETATM   14  C   UNL     1       2.664  28.170  49.116  1.00  0.00     0.074 A 
HETATM   15  C   UNL     1       2.953  27.058  48.328  1.00  0.00     0.070 A 
HETATM   16  C   UNL     1       4.027  26.235  48.675  1.00  0.00     0.038 A 
HETATM   17  C   UNL     1       4.806  26.510  49.802  1.00  0.00     0.022 A 
BRANCH  13  18
HETATM   18  O   UNL     1       3.145  29.582  50.962  1.00  0.00    -0.355 OA
HETATM   19  C   UNL     1       3.402  30.740  50.162  1.00  0.00     0.210 C 
ENDBRANCH  13  18
BRANCH  15  20
HETATM   20  O   UNL     1       2.277  26.674  47.204  1.00  0.00    -0.356 OA
HETATM   21  C   UNL     1       0.971  27.212  47.026  1.00  0.00     0.210 C 
ENDBRANCH  15  20
ENDBRANCH   9  12
ENDBRANCH   6   8
BRANCH   7  22
HETATM   22  C   UNL     1       7.167  25.071  54.338  1.00  0.00    -0.020 A 
HETATM   23  C   UNL     1       6.996  24.011  55.236  1.00  0.00     0.014 A 
HETATM   24  C   UNL     1       7.313  22.705  54.852  1.00  0.00     0.020 A 
HETATM   25  C   UNL     1       7.799  22.458  53.569  1.00  0.00     0.011 A 
HETATM   26 BR   UNL     1       8.221  20.690  53.049  1.00  0.00    -0.051 Br
HETATM   27  C   UNL     1       7.972  23.503  52.664  1.00  0.00     0.020 A 
HETATM   28  C   UNL     1       7.653  24.807  53.048  1.00  0.00     0.014 A 
ENDBRANCH   7  22
TORSDOF 5
ENDMDL
MODEL 6
REMARK VINA RESULT:      -8.1      3.248      6.805
REMARK  5 active torsions:
REMARK  status: ('A' for Active; 'I' for Inactive)
REMARK    1  A    between atoms: C_6  and  N_7 
REMARK       I    between atoms: N_7  and  C_8 
REMARK    2  A    between atoms: C_8  and  C_9 
REMARK    3  A    between atoms: C_10  and  O_11 
REMARK    4  A    between atoms: C_14  and  O_15 
REMARK    5  A    between atoms: C_20  and  C_21 
ROOT
HETATM    1  C   UNL     1       3.327  31.100  55.085  1.00  0.00     0.073 C 
HETATM    2  C   UNL     1       3.920  29.777  55.407  1.00  0.00     0.065 A 
HETATM    3  N   UNL     1       4.224  29.473  56.676  1.00  0.00    -0.177 NA
HETATM    4  N   UNL     1       4.789  28.263  56.584  1.00  0.00    -0.262 N 
HETATM    5  H   UNL     1       5.096  27.822  57.441  1.00  0.00     0.191 HD
HETATM    6  C   UNL     1       4.802  27.734  55.320  1.00  0.00     0.137 A 
HETATM    7  C   UNL     1       4.282  28.730  54.509  1.00  0.00     0.046 A 
ENDROOT
BRANCH   6   8
HETATM    8  N   UNL     1       5.294  26.456  55.098  1.00  0.00    -0.307 N 
HETATM    9  C   UNL     1       6.619  26.222  54.746  1.00  0.00     0.260 C 
HETATM   10  O   UNL     1       7.444  27.080  54.458  1.00  0.00    -0.267 OA
HETATM   11  H   UNL     1       4.633  25.695  55.031  1.00  0.00     0.170 HD
BRANCH   9  12
HETATM   12  C   UNL     1       6.997  24.783  54.617  1.00  0.00     0.065 A 
HETATM   13  C   UNL     1       7.295  24.019  55.754  1.00  0.00     0.086 A 
HETATM   14  C   UNL     1       7.648  22.666  55.640  1.00  0.00     0.074 A 
HETATM   15  C   UNL     1       7.746  22.075  54.382  1.00  0.00     0.070 A 
HETATM   16  C   UNL     1       7.471  22.838  53.245  1.00  0.00     0.038 A 
HETATM   17  C   UNL     1       7.108  24.183  53.354  1.00  0.00     0.022 A 
BRANCH  13  18
HETATM   18  O   UNL     1       7.156  24.535  57.017  1.00  0.00    -0.355 OA
HETATM   19  C   UNL     1       8.432  24.915  57.540  1.00  0.00     0.210 C 
ENDBRANCH  13  18
BRANCH  15  20
HETATM   20  O   UNL     1       8.089  20.776  54.130  1.00  0.00    -0.356 OA
HETATM   21  C   UNL     1       8.354  20.435  52.774  1.00  0.00     0.210 C 
ENDBRANCH  15  20
ENDBRANCH   9  12
ENDBRANCH   6   8
BRANCH   7  22
HETATM   22  C   UNL     1       4.298  28.752  53.057  1.00  0.00    -0.020 A 
HETATM   23  C   UNL     1       3.103  28.783  52.329  1.00  0.00     0.014 A 
HETATM   24  C   UNL     1       3.129  28.859  50.934  1.00  0.00     0.020 A 
HETATM   25  C   UNL     1       4.351  28.908  50.265  1.00  0.00     0.011 A 
HETATM   26 BR   UNL     1       4.385  29.017  48.378  1.00  0.00    -0.051 Br
HETATM   27  C   UNL     1       5.548  28.881  50.976  1.00  0.00     0.020 A 
HETATM   28  C   UNL     1       5.521  28.806  52.370  1.00  0.00     0.014 A 
ENDBRANCH   7  22
TORSDOF 5
ENDMDL
MODEL 7
REMARK VINA RESULT:      -8.1      3.830      7.545
REMARK  5 active torsions:
REMARK  status: ('A' for Active; 'I' for Inactive)
REMARK    1  A    between atoms: C_6  and  N_7 
REMARK       I    between atoms: N_7  and  C_8 
REMARK    2  A    between atoms: C_8  and  C_9 
REMARK    3  A    between atoms: C_10  and  O_11 
REMARK    4  A    between atoms: C_14  and  O_15 
REMARK    5  A    between atoms: C_20  and  C_21 
ROOT
HETATM    1  C   UNL     1       4.304  29.591  50.447  1.00  0.00     0.073 C 
HETATM    2  C   UNL     1       4.646  28.188  50.795  1.00  0.00     0.065 A 
HETATM    3  N   UNL     1       4.535  27.226  49.870  1.00  0.00    -0.177 NA
HETATM    4  N   UNL     1       4.850  26.108  50.539  1.00  0.00    -0.262 N 
HETATM    5  H   UNL     1       4.842  25.237  50.026  1.00  0.00     0.191 HD
HETATM    6  C   UNL     1       5.230  26.310  51.840  1.00  0.00     0.137 A 
HETATM    7  C   UNL     1       5.057  27.668  52.058  1.00  0.00     0.046 A 
ENDROOT
BRANCH   6   8
HETATM    8  N   UNL     1       5.649  25.244  52.623  1.00  0.00    -0.307 N 
HETATM    9  C   UNL     1       6.945  24.745  52.562  1.00  0.00     0.260 C 
HETATM   10  O   UNL     1       7.799  25.070  51.747  1.00  0.00    -0.267 OA
HETATM   11  H   UNL     1       4.949  24.717  53.125  1.00  0.00     0.170 HD
BRANCH   9  12
HETATM   12  C   UNL     1       7.246  23.644  53.525  1.00  0.00     0.065 A 
HETATM   13  C   UNL     1       6.998  23.806  54.896  1.00  0.00     0.086 A 
HETATM   14  C   UNL     1       7.277  22.774  55.805  1.00  0.00     0.074 A 
HETATM   15  C   UNL     1       7.844  21.584  55.356  1.00  0.00     0.070 A 
HETATM   16  C   UNL     1       8.113  21.425  53.994  1.00  0.00     0.038 A 
HETATM   17  C   UNL     1       7.827  22.446  53.083  1.00  0.00     0.022 A 
BRANCH  13  18
HETATM   18  O   UNL     1       6.386  24.933  55.381  1.00  0.00    -0.355 OA
HETATM   19  C   UNL     1       6.770  25.158  56.741  1.00  0.00     0.210 C 
ENDBRANCH  13  18
BRANCH  15  20
HETATM   20  O   UNL     1       8.174  20.509  56.133  1.00  0.00    -0.356 OA
HETATM   21  C   UNL     1       9.478  19.967  55.957  1.00  0.00     0.210 C 
ENDBRANCH  15  20
ENDBRANCH   9  12
ENDBRANCH   6   8
BRANCH   7  22
HETATM   22  C   UNL     1       5.101  28.345  53.342  1.00  0.00    -0.020 A 
HETATM   23  C   UNL     1       6.266  28.329  54.118  1.00  0.00     0.014 A 
HETATM   24  C   UNL     1       6.316  29.029  55.327  1.00  0.00     0.020 A 
HETATM   25  C   UNL     1       5.203  29.749  55.759  1.00  0.00     0.011 A 
HETATM   26 BR   UNL     1       5.275  30.701  57.391  1.00  0.00    -0.051 Br
HETATM   27  C   UNL     1       4.039  29.776  54.995  1.00  0.00     0.020 A 
HETATM   28  C   UNL     1       3.989  29.078  53.787  1.00  0.00     0.014 A 
ENDBRANCH   7  22
TORSDOF 5
ENDMDL
MODEL 8
REMARK VINA RESULT:      -8.0      4.147      6.842
REMARK  5 active torsions:
REMARK  status: ('A' for Active; 'I' for Inactive)
REMARK    1  A    between atoms: C_6  and  N_7 
REMARK       I    between atoms: N_7  and  C_8 
REMARK    2  A    between atoms: C_8  and  C_9 
REMARK    3  A    between atoms: C_10  and  O_11 
REMARK    4  A    between atoms: C_14  and  O_15 
REMARK    5  A    between atoms: C_20  and  C_21 
ROOT
HETATM    1  C   UNL     1       8.308  23.424  55.985  1.00  0.00     0.073 C 
HETATM    2  C   UNL     1       8.009  23.841  54.591  1.00  0.00     0.065 A 
HETATM    3  N   UNL     1       8.476  23.120  53.564  1.00  0.00    -0.177 NA
HETATM    4  N   UNL     1       8.082  23.813  52.487  1.00  0.00    -0.262 N 
HETATM    5  H   UNL     1       8.321  23.442  51.577  1.00  0.00     0.191 HD
HETATM    6  C   UNL     1       7.316  24.914  52.767  1.00  0.00     0.137 A 
HETATM    7  C   UNL     1       7.291  24.992  54.150  1.00  0.00     0.046 A 
ENDROOT
BRANCH   6   8
HETATM    8  N   UNL     1       6.783  25.678  51.739  1.00  0.00    -0.307 N 
HETATM    9  C   UNL     1       5.434  25.637  51.407  1.00  0.00     0.260 C 
HETATM   10  O   UNL     1       4.610  24.852  51.860  1.00  0.00    -0.267 OA
HETATM   11  H   UNL     1       7.422  26.149  51.114  1.00  0.00     0.170 HD
BRANCH   9  12
HETATM   12  C   UNL     1       5.018  26.577  50.324  1.00  0.00     0.065 A 
HETATM   13  C   UNL     1       5.201  27.960  50.470  1.00  0.00     0.086 A 
HETATM   14  C   UNL     1       4.814  28.848  49.455  1.00  0.00     0.074 A 
HETATM   15  C   UNL     1       4.203  28.364  48.301  1.00  0.00     0.070 A 
HETATM   16  C   UNL     1       3.999  26.989  48.160  1.00  0.00     0.038 A 
HETATM   17  C   UNL     1       4.393  26.100  49.163  1.00  0.00     0.022 A 
BRANCH  13  18
HETATM   18  O   UNL     1       5.851  28.483  51.558  1.00  0.00    -0.355 OA
HETATM   19  C   UNL     1       4.905  29.010  52.494  1.00  0.00     0.210 C 
ENDBRANCH  13  18
BRANCH  15  20
HETATM   20  O   UNL     1       3.770  29.118  47.245  1.00  0.00    -0.356 OA
HETATM   21  C   UNL     1       2.372  29.099  46.975  1.00  0.00     0.210 C 
ENDBRANCH  15  20
ENDBRANCH   9  12
ENDBRANCH   6   8
BRANCH   7  22
HETATM   22  C   UNL     1       6.806  26.111  54.940  1.00  0.00    -0.020 A 
HETATM   23  C   UNL     1       7.454  27.350  54.897  1.00  0.00     0.014 A 
HETATM   24  C   UNL     1       6.947  28.435  55.617  1.00  0.00     0.020 A 
HETATM   25  C   UNL     1       5.790  28.283  56.379  1.00  0.00     0.011 A 
HETATM   26 BR   UNL     1       5.102  29.753  57.348  1.00  0.00    -0.051 Br
HETATM   27  C   UNL     1       5.133  27.056  56.428  1.00  0.00     0.020 A 
HETATM   28  C   UNL     1       5.638  25.973  55.707  1.00  0.00     0.014 A 
ENDBRANCH   7  22
TORSDOF 5
ENDMDL
MODEL 9
REMARK VINA RESULT:      -7.8      3.374      7.061
REMARK  5 active torsions:
REMARK  status: ('A' for Active; 'I' for Inactive)
REMARK    1  A    between atoms: C_6  and  N_7 
REMARK       I    between atoms: N_7  and  C_8 
REMARK    2  A    between atoms: C_8  and  C_9 
REMARK    3  A    between atoms: C_10  and  O_11 
REMARK    4  A    between atoms: C_14  and  O_15 
REMARK    5  A    between atoms: C_20  and  C_21 
ROOT
HETATM    1  C   UNL     1       3.091  31.381  54.415  1.00  0.00     0.073 C 
HETATM    2  C   UNL     1       3.761  30.103  54.766  1.00  0.00     0.065 A 
HETATM    3  N   UNL     1       4.078  29.845  56.042  1.00  0.00    -0.177 NA
HETATM    4  N   UNL     1       4.716  28.668  55.976  1.00  0.00    -0.262 N 
HETATM    5  H   UNL     1       5.046  28.265  56.843  1.00  0.00     0.191 HD
HETATM    6  C   UNL     1       4.764  28.115  54.724  1.00  0.00     0.137 A 
HETATM    7  C   UNL     1       4.187  29.061  53.891  1.00  0.00     0.046 A 
ENDROOT
BRANCH   6   8
HETATM    8  N   UNL     1       5.332  26.865  54.529  1.00  0.00    -0.307 N 
HETATM    9  C   UNL     1       6.583  26.532  55.036  1.00  0.00     0.260 C 
HETATM   10  O   UNL     1       7.368  27.307  55.568  1.00  0.00    -0.267 OA
HETATM   11  H   UNL     1       4.896  26.241  53.865  1.00  0.00     0.170 HD
BRANCH   9  12
HETATM   12  C   UNL     1       7.011  25.121  54.796  1.00  0.00     0.065 A 
HETATM   13  C   UNL     1       7.419  24.706  53.520  1.00  0.00     0.086 A 
HETATM   14  C   UNL     1       7.824  23.383  53.290  1.00  0.00     0.074 A 
HETATM   15  C   UNL     1       7.786  22.451  54.324  1.00  0.00     0.070 A 
HETATM   16  C   UNL     1       7.360  22.855  55.592  1.00  0.00     0.038 A 
HETATM   17  C   UNL     1       6.966  24.175  55.830  1.00  0.00     0.022 A 
BRANCH  13  18
HETATM   18  O   UNL     1       7.532  25.595  52.483  1.00  0.00    -0.355 OA
HETATM   19  C   UNL     1       6.446  25.427  51.566  1.00  0.00     0.210 C 
ENDBRANCH  13  18
BRANCH  15  20
HETATM   20  O   UNL     1       8.141  21.135  54.233  1.00  0.00    -0.356 OA
HETATM   21  C   UNL     1       8.192  20.574  52.926  1.00  0.00     0.210 C 
ENDBRANCH  15  20
ENDBRANCH   9  12
ENDBRANCH   6   8
BRANCH   7  22
HETATM   22  C   UNL     1       4.206  29.054  52.438  1.00  0.00    -0.020 A 
HETATM   23  C   UNL     1       5.417  29.111  51.739  1.00  0.00     0.014 A 
HETATM   24  C   UNL     1       5.428  29.048  50.343  1.00  0.00     0.020 A 
HETATM   25  C   UNL     1       4.228  28.924  49.645  1.00  0.00     0.011 A 
HETATM   26 BR   UNL     1       4.245  28.832  47.757  1.00  0.00    -0.051 Br
HETATM   27  C   UNL     1       3.016  28.862  50.328  1.00  0.00     0.020 A 
HETATM   28  C   UNL     1       3.006  28.924  51.722  1.00  0.00     0.014 A 
ENDBRANCH   7  22
TORSDOF 5
ENDMDL
MODEL 10
REMARK VINA RESULT:      -7.8      4.822      9.409
REMARK  5 active torsions:
REMARK  status: ('A' for Active; 'I' for Inactive)
REMARK    1  A    between atoms: C_6  and  N_7 
REMARK       I    between atoms: N_7  and  C_8 
REMARK    2  A    between atoms: C_8  and  C_9 
REMARK    3  A    between atoms: C_10  and  O_11 
REMARK    4  A    between atoms: C_14  and  O_15 
REMARK    5  A    between atoms: C_20  and  C_21 
ROOT
HETATM    1  C   UNL     1       6.453  34.145  64.705  1.00  0.00     0.073 C 
HETATM    2  C   UNL     1       6.962  33.243  63.640  1.00  0.00     0.065 A 
HETATM    3  N   UNL     1       8.192  32.721  63.740  1.00  0.00    -0.177 NA
HETATM    4  N   UNL     1       8.337  32.035  62.599  1.00  0.00    -0.262 N 
HETATM    5  H   UNL     1       9.207  31.539  62.458  1.00  0.00     0.191 HD
HETATM    6  C   UNL     1       7.229  32.027  61.793  1.00  0.00     0.137 A 
HETATM    7  C   UNL     1       6.319  32.859  62.427  1.00  0.00     0.046 A 
ENDROOT
BRANCH   6   8
HETATM    8  N   UNL     1       7.222  31.295  60.616  1.00  0.00    -0.307 N 
HETATM    9  C   UNL     1       8.070  31.587  59.554  1.00  0.00     0.260 C 
HETATM   10  O   UNL     1       8.797  32.570  59.470  1.00  0.00    -0.267 OA
HETATM   11  H   UNL     1       6.467  30.639  60.467  1.00  0.00     0.170 HD
BRANCH   9  12
HETATM   12  C   UNL     1       7.981  30.653  58.393  1.00  0.00     0.065 A 
HETATM   13  C   UNL     1       6.765  30.466  57.719  1.00  0.00     0.086 A 
HETATM   14  C   UNL     1       6.676  29.592  56.625  1.00  0.00     0.074 A 
HETATM   15  C   UNL     1       7.793  28.864  56.221  1.00  0.00     0.070 A 
HETATM   16  C   UNL     1       9.000  29.030  56.903  1.00  0.00     0.038 A 
HETATM   17  C   UNL     1       9.097  29.909  57.986  1.00  0.00     0.022 A 
BRANCH  13  18
HETATM   18  O   UNL     1       5.653  31.201  58.037  1.00  0.00    -0.355 OA
HETATM   19  C   UNL     1       5.210  31.949  56.900  1.00  0.00     0.210 C 
ENDBRANCH  13  18
BRANCH  15  20
HETATM   20  O   UNL     1       7.839  27.975  55.184  1.00  0.00    -0.356 OA
HETATM   21  C   UNL     1       6.823  28.091  54.194  1.00  0.00     0.210 C 
ENDBRANCH  15  20
ENDBRANCH   9  12
ENDBRANCH   6   8
BRANCH   7  22
HETATM   22  C   UNL     1       5.079  33.364  61.863  1.00  0.00    -0.020 A 
HETATM   23  C   UNL     1       3.882  33.283  62.584  1.00  0.00     0.014 A 
HETATM   24  C   UNL     1       2.704  33.821  62.056  1.00  0.00     0.020 A 
HETATM   25  C   UNL     1       2.725  34.443  60.809  1.00  0.00     0.011 A 
HETATM   26 BR   UNL     1       1.133  35.177  60.099  1.00  0.00    -0.051 Br
HETATM   27  C   UNL     1       3.909  34.534  60.082  1.00  0.00     0.020 A 
HETATM   28  C   UNL     1       5.085  33.998  60.611  1.00  0.00     0.014 A 
ENDBRANCH   7  22
TORSDOF 5
ENDMDL
