MODEL 1
REMARK VINA RESULT:     -10.7      0.000      0.000
REMARK  5 active torsions:
REMARK  status: ('A' for Active; 'I' for Inactive)
REMARK       I    between atoms: C_2  and  N_3 
REMARK    1  A    between atoms: N_3  and  C_4 
REMARK    2  A    between atoms: C_5  and  C_6 
REMARK    3  A    between atoms: C_15  and  C_16 
REMARK       I    between atoms: C_16  and  N_17 
REMARK    4  A    between atoms: N_17  and  C_18 
REMARK    5  A    between atoms: C_18  and  C_19 
ROOT
HETATM    1  C   UNL     1       7.325  25.929  56.078  1.00  0.00     0.138 A 
HETATM    2  N   UNL     1       8.208  26.835  56.409  1.00  0.00    -0.240 NA
HETATM    3  C   UNL     1       7.761  28.032  56.995  1.00  0.00     0.084 A 
HETATM    4  C   UNL     1       6.407  28.286  57.242  1.00  0.00     0.065 A 
HETATM    5  N   UNL     1       5.462  27.317  56.905  1.00  0.00    -0.320 N 
HETATM    6  C   UNL     1       5.822  26.116  56.347  1.00  0.00     0.275 A 
HETATM    7  O   UNL     1       5.004  25.245  56.093  1.00  0.00    -0.266 OA
HETATM    8  C   UNL     1       8.700  29.001  57.349  1.00  0.00     0.035 A 
HETATM    9  C   UNL     1       8.299  30.208  57.941  1.00  0.00     0.019 A 
HETATM   10  C   UNL     1       6.941  30.455  58.176  1.00  0.00     0.034 A 
HETATM   11  C   UNL     1       5.993  29.481  57.829  1.00  0.00     0.049 A 
HETATM   12  H   UNL     1       4.480  27.456  57.100  1.00  0.00     0.169 HD
ENDROOT
BRANCH  10  13
HETATM   13  C   UNL     1       6.438  31.700  58.826  1.00  0.00     0.252 C 
HETATM   14  N   UNL     1       6.288  31.693  60.195  1.00  0.00    -0.353 N 
HETATM   15  H   UNL     1       6.464  30.861  60.737  1.00  0.00     0.163 HD
HETATM   16  O   UNL     1       6.192  32.685  58.136  1.00  0.00    -0.268 OA
BRANCH  14  17
HETATM   17  C   UNL     1       5.655  32.812  60.856  1.00  0.00     0.163 C 
BRANCH  17  18
HETATM   18  C   UNL     1       6.153  32.998  62.265  1.00  0.00    -0.019 A 
HETATM   19  C   UNL     1       5.335  33.473  63.302  1.00  0.00     0.042 A 
HETATM   20 CL   UNL     1       3.667  33.846  63.046  1.00  0.00    -0.084 Cl
HETATM   21  C   UNL     1       5.849  33.650  64.591  1.00  0.00     0.024 A 
HETATM   22  C   UNL     1       7.183  33.348  64.863  1.00  0.00     0.002 A 
HETATM   23  C   UNL     1       8.003  32.863  63.849  1.00  0.00     0.001 A 
HETATM   24  C   UNL     1       7.492  32.685  62.561  1.00  0.00     0.010 A 
ENDBRANCH  17  18
ENDBRANCH  14  17
ENDBRANCH  10  13
BRANCH   1  25
HETATM   25  C   UNL     1       7.791  24.656  55.453  1.00  0.00     0.025 A 
HETATM   26  C   UNL     1       7.855  24.520  54.046  1.00  0.00     0.047 A 
HETATM   27  C   UNL     1       8.299  23.304  53.518  1.00  0.00     0.030 A 
HETATM   28  C   UNL     1       8.691  22.254  54.356  1.00  0.00     0.002 A 
HETATM   29  C   UNL     1       8.629  22.398  55.737  1.00  0.00     0.001 A 
HETATM   30  C   UNL     1       8.172  23.593  56.287  1.00  0.00     0.016 A 
BRANCH  26  31
HETATM   31  N   UNL     1       7.419  25.592  53.235  1.00  0.00    -0.327 N 
HETATM   32  C   UNL     1       6.243  25.883  52.613  1.00  0.00     0.218 C 
HETATM   33  C   UNL     1       5.160  24.851  52.478  1.00  0.00     0.117 C 
HETATM   34  O   UNL     1       6.098  27.001  52.111  1.00  0.00    -0.274 OA
HETATM   35  H   UNL     1       8.113  26.329  53.091  1.00  0.00     0.169 HD
ENDBRANCH  26  31
ENDBRANCH   1  25
TORSDOF 5
ENDMDL
MODEL 2
REMARK VINA RESULT:     -10.4      2.091      2.736
REMARK  5 active torsions:
REMARK  status: ('A' for Active; 'I' for Inactive)
REMARK       I    between atoms: C_2  and  N_3 
REMARK    1  A    between atoms: N_3  and  C_4 
REMARK    2  A    between atoms: C_5  and  C_6 
REMARK    3  A    between atoms: C_15  and  C_16 
REMARK       I    between atoms: C_16  and  N_17 
REMARK    4  A    between atoms: N_17  and  C_18 
REMARK    5  A    between atoms: C_18  and  C_19 
ROOT
HETATM    1  C   UNL     1       7.265  24.644  55.788  1.00  0.00     0.138 A 
HETATM    2  N   UNL     1       6.206  25.336  55.458  1.00  0.00    -0.240 NA
HETATM    3  C   UNL     1       5.998  26.585  56.067  1.00  0.00     0.084 A 
HETATM    4  C   UNL     1       6.886  27.119  57.009  1.00  0.00     0.065 A 
HETATM    5  N   UNL     1       8.026  26.392  57.354  1.00  0.00    -0.320 N 
HETATM    6  C   UNL     1       8.307  25.173  56.789  1.00  0.00     0.275 A 
HETATM    7  O   UNL     1       9.326  24.554  57.053  1.00  0.00    -0.266 OA
HETATM    8  C   UNL     1       4.869  27.327  55.716  1.00  0.00     0.035 A 
HETATM    9  C   UNL     1       4.625  28.581  56.296  1.00  0.00     0.019 A 
HETATM   10  C   UNL     1       5.515  29.100  57.244  1.00  0.00     0.034 A 
HETATM   11  C   UNL     1       6.656  28.363  57.593  1.00  0.00     0.049 A 
HETATM   12  H   UNL     1       8.703  26.762  58.006  1.00  0.00     0.169 HD
ENDROOT
BRANCH  10  13
HETATM   13  C   UNL     1       5.340  30.437  57.882  1.00  0.00     0.252 C 
HETATM   14  N   UNL     1       6.454  31.040  58.421  1.00  0.00    -0.353 N 
HETATM   15  H   UNL     1       7.348  30.577  58.430  1.00  0.00     0.163 HD
HETATM   16  O   UNL     1       4.229  30.960  57.894  1.00  0.00    -0.268 OA
BRANCH  14  17
HETATM   17  C   UNL     1       6.313  32.257  59.191  1.00  0.00     0.163 C 
BRANCH  17  18
HETATM   18  C   UNL     1       7.025  32.179  60.516  1.00  0.00    -0.019 A 
HETATM   19  C   UNL     1       8.417  32.030  60.620  1.00  0.00     0.042 A 
HETATM   20 CL   UNL     1       9.431  31.963  59.223  1.00  0.00    -0.084 Cl
HETATM   21  C   UNL     1       9.032  31.940  61.873  1.00  0.00     0.024 A 
HETATM   22  C   UNL     1       8.267  32.006  63.037  1.00  0.00     0.002 A 
HETATM   23  C   UNL     1       6.888  32.168  62.950  1.00  0.00     0.001 A 
HETATM   24  C   UNL     1       6.272  32.257  61.701  1.00  0.00     0.010 A 
ENDBRANCH  17  18
ENDBRANCH  14  17
ENDBRANCH  10  13
BRANCH   1  25
HETATM   25  C   UNL     1       7.492  23.315  55.148  1.00  0.00     0.025 A 
HETATM   26  C   UNL     1       7.700  23.207  53.753  1.00  0.00     0.047 A 
HETATM   27  C   UNL     1       7.906  21.935  53.210  1.00  0.00     0.030 A 
HETATM   28  C   UNL     1       7.928  20.798  54.026  1.00  0.00     0.002 A 
HETATM   29  C   UNL     1       7.727  20.914  55.397  1.00  0.00     0.001 A 
HETATM   30  C   UNL     1       7.500  22.168  55.958  1.00  0.00     0.016 A 
BRANCH  26  31
HETATM   31  N   UNL     1       7.637  24.375  52.961  1.00  0.00    -0.327 N 
HETATM   32  C   UNL     1       6.615  25.069  52.386  1.00  0.00     0.218 C 
HETATM   33  C   UNL     1       5.235  24.484  52.295  1.00  0.00     0.117 C 
HETATM   34  O   UNL     1       6.852  26.174  51.891  1.00  0.00    -0.274 OA
HETATM   35  H   UNL     1       8.539  24.824  52.788  1.00  0.00     0.169 HD
ENDBRANCH  26  31
ENDBRANCH   1  25
TORSDOF 5
ENDMDL
MODEL 3
REMARK VINA RESULT:     -10.0      1.919      3.391
REMARK  5 active torsions:
REMARK  status: ('A' for Active; 'I' for Inactive)
REMARK       I    between atoms: C_2  and  N_3 
REMARK    1  A    between atoms: N_3  and  C_4 
REMARK    2  A    between atoms: C_5  and  C_6 
REMARK    3  A    between atoms: C_15  and  C_16 
REMARK       I    between atoms: C_16  and  N_17 
REMARK    4  A    between atoms: N_17  and  C_18 
REMARK    5  A    between atoms: C_18  and  C_19 
ROOT
HETATM    1  C   UNL     1       6.049  28.140  54.444  1.00  0.00     0.138 A 
HETATM    2  N   UNL     1       7.267  28.167  54.919  1.00  0.00    -0.240 NA
HETATM    3  C   UNL     1       7.535  28.966  56.044  1.00  0.00     0.084 A 
HETATM    4  C   UNL     1       6.546  29.727  56.677  1.00  0.00     0.065 A 
HETATM    5  N   UNL     1       5.242  29.690  56.183  1.00  0.00    -0.320 N 
HETATM    6  C   UNL     1       4.898  28.921  55.100  1.00  0.00     0.275 A 
HETATM    7  O   UNL     1       3.749  28.848  54.691  1.00  0.00    -0.266 OA
HETATM    8  C   UNL     1       8.833  28.997  56.555  1.00  0.00     0.035 A 
HETATM    9  C   UNL     1       9.144  29.776  57.679  1.00  0.00     0.019 A 
HETATM   10  C   UNL     1       8.148  30.541  58.299  1.00  0.00     0.034 A 
HETATM   11  C   UNL     1       6.840  30.507  57.795  1.00  0.00     0.049 A 
HETATM   12  H   UNL     1       4.498  30.203  56.635  1.00  0.00     0.169 HD
ENDROOT
BRANCH  10  13
HETATM   13  C   UNL     1       8.394  31.372  59.513  1.00  0.00     0.252 C 
HETATM   14  N   UNL     1       7.802  30.974  60.691  1.00  0.00    -0.353 N 
HETATM   15  H   UNL     1       7.185  30.179  60.726  1.00  0.00     0.163 HD
HETATM   16  O   UNL     1       9.117  32.360  59.433  1.00  0.00    -0.268 OA
BRANCH  14  17
HETATM   17  C   UNL     1       7.874  31.828  61.857  1.00  0.00     0.163 C 
BRANCH  17  18
HETATM   18  C   UNL     1       6.536  32.419  62.214  1.00  0.00    -0.019 A 
HETATM   19  C   UNL     1       6.280  33.020  63.457  1.00  0.00     0.042 A 
HETATM   20 CL   UNL     1       7.505  33.163  64.667  1.00  0.00    -0.084 Cl
HETATM   21  C   UNL     1       5.014  33.536  63.751  1.00  0.00     0.024 A 
HETATM   22  C   UNL     1       3.990  33.466  62.807  1.00  0.00     0.002 A 
HETATM   23  C   UNL     1       4.232  32.886  61.566  1.00  0.00     0.001 A 
HETATM   24  C   UNL     1       5.495  32.370  61.269  1.00  0.00     0.010 A 
ENDBRANCH  17  18
ENDBRANCH  14  17
ENDBRANCH  10  13
BRANCH   1  25
HETATM   25  C   UNL     1       5.757  27.296  53.247  1.00  0.00     0.025 A 
HETATM   26  C   UNL     1       5.557  25.901  53.374  1.00  0.00     0.047 A 
HETATM   27  C   UNL     1       5.288  25.163  52.217  1.00  0.00     0.030 A 
HETATM   28  C   UNL     1       5.196  25.787  50.968  1.00  0.00     0.002 A 
HETATM   29  C   UNL     1       5.389  27.160  50.854  1.00  0.00     0.001 A 
HETATM   30  C   UNL     1       5.678  27.913  51.989  1.00  0.00     0.016 A 
BRANCH  26  31
HETATM   31  N   UNL     1       5.692  25.305  54.647  1.00  0.00    -0.327 N 
HETATM   32  C   UNL     1       6.704  24.644  55.276  1.00  0.00     0.218 C 
HETATM   33  C   UNL     1       7.912  24.175  54.517  1.00  0.00     0.117 C 
HETATM   34  O   UNL     1       6.590  24.387  56.477  1.00  0.00    -0.274 OA
HETATM   35  H   UNL     1       4.872  25.398  55.252  1.00  0.00     0.169 HD
ENDBRANCH  26  31
ENDBRANCH   1  25
TORSDOF 5
ENDMDL
MODEL 4
REMARK VINA RESULT:     -10.0      1.595      2.007
REMARK  5 active torsions:
REMARK  status: ('A' for Active; 'I' for Inactive)
REMARK       I    between atoms: C_2  and  N_3 
REMARK    1  A    between atoms: N_3  and  C_4 
REMARK    2  A    between atoms: C_5  and  C_6 
REMARK    3  A    between atoms: C_15  and  C_16 
REMARK       I    between atoms: C_16  and  N_17 
REMARK    4  A    between atoms: N_17  and  C_18 
REMARK    5  A    between atoms: C_18  and  C_19 
ROOT
HETATM    1  C   UNL     1       7.434  26.413  55.946  1.00  0.00     0.138 A 
HETATM    2  N   UNL     1       8.555  27.077  56.050  1.00  0.00    -0.240 NA
HETATM    3  C   UNL     1       8.591  28.219  56.869  1.00  0.00     0.084 A 
HETATM    4  C   UNL     1       7.474  28.665  57.583  1.00  0.00     0.065 A 
HETATM    5  N   UNL     1       6.278  27.951  57.488  1.00  0.00    -0.320 N 
HETATM    6  C   UNL     1       6.170  26.818  56.723  1.00  0.00     0.275 A 
HETATM    7  O   UNL     1       5.140  26.163  56.673  1.00  0.00    -0.266 OA
HETATM    8  C   UNL     1       9.787  28.930  56.982  1.00  0.00     0.035 A 
HETATM    9  C   UNL     1       9.869  30.071  57.794  1.00  0.00     0.019 A 
HETATM   10  C   UNL     1       8.742  30.515  58.496  1.00  0.00     0.034 A 
HETATM   11  C   UNL     1       7.540  29.798  58.393  1.00  0.00     0.049 A 
HETATM   12  H   UNL     1       5.462  28.229  58.015  1.00  0.00     0.169 HD
ENDROOT
BRANCH  10  13
HETATM   13  C   UNL     1       8.757  31.701  59.400  1.00  0.00     0.252 C 
HETATM   14  N   UNL     1       7.709  31.850  60.280  1.00  0.00    -0.353 N 
HETATM   15  H   UNL     1       6.932  31.208  60.283  1.00  0.00     0.163 HD
HETATM   16  O   UNL     1       9.696  32.490  59.346  1.00  0.00    -0.268 OA
BRANCH  14  17
HETATM   17  C   UNL     1       7.591  33.061  61.063  1.00  0.00     0.163 C 
BRANCH  17  18
HETATM   18  C   UNL     1       6.265  33.155  61.771  1.00  0.00    -0.019 A 
HETATM   19  C   UNL     1       6.150  33.133  63.170  1.00  0.00     0.042 A 
HETATM   20 CL   UNL     1       7.536  33.033  64.195  1.00  0.00    -0.084 Cl
HETATM   21  C   UNL     1       4.894  33.202  63.782  1.00  0.00     0.024 A 
HETATM   22  C   UNL     1       3.739  33.302  63.006  1.00  0.00     0.002 A 
HETATM   23  C   UNL     1       3.839  33.340  61.619  1.00  0.00     0.001 A 
HETATM   24  C   UNL     1       5.091  33.271  61.005  1.00  0.00     0.010 A 
ENDBRANCH  17  18
ENDBRANCH  14  17
ENDBRANCH  10  13
BRANCH   1  25
HETATM   25  C   UNL     1       7.386  25.201  55.075  1.00  0.00     0.025 A 
HETATM   26  C   UNL     1       7.224  25.321  53.675  1.00  0.00     0.047 A 
HETATM   27  C   UNL     1       7.186  24.151  52.910  1.00  0.00     0.030 A 
HETATM   28  C   UNL     1       7.326  22.893  53.508  1.00  0.00     0.002 A 
HETATM   29  C   UNL     1       7.490  22.786  54.885  1.00  0.00     0.001 A 
HETATM   30  C   UNL     1       7.511  23.936  55.670  1.00  0.00     0.016 A 
BRANCH  26  31
HETATM   31  N   UNL     1       7.053  26.606  53.114  1.00  0.00    -0.327 N 
HETATM   32  C   UNL     1       5.970  27.406  52.906  1.00  0.00     0.218 C 
HETATM   33  C   UNL     1       4.573  26.871  53.041  1.00  0.00     0.117 C 
HETATM   34  O   UNL     1       6.153  28.574  52.552  1.00  0.00    -0.274 OA
HETATM   35  H   UNL     1       7.918  27.060  52.813  1.00  0.00     0.169 HD
ENDBRANCH  26  31
ENDBRANCH   1  25
TORSDOF 5
ENDMDL
MODEL 5
REMARK VINA RESULT:      -9.9      3.671     10.519
REMARK  5 active torsions:
REMARK  status: ('A' for Active; 'I' for Inactive)
REMARK       I    between atoms: C_2  and  N_3 
REMARK    1  A    between atoms: N_3  and  C_4 
REMARK    2  A    between atoms: C_5  and  C_6 
REMARK    3  A    between atoms: C_15  and  C_16 
REMARK       I    between atoms: C_16  and  N_17 
REMARK    4  A    between atoms: N_17  and  C_18 
REMARK    5  A    between atoms: C_18  and  C_19 
ROOT
HETATM    1  C   UNL     1       5.407  31.597  58.107  1.00  0.00     0.138 A 
HETATM    2  N   UNL     1       4.845  30.585  57.499  1.00  0.00    -0.240 NA
HETATM    3  C   UNL     1       5.554  29.374  57.406  1.00  0.00     0.084 A 
HETATM    4  C   UNL     1       6.835  29.211  57.944  1.00  0.00     0.065 A 
HETATM    5  N   UNL     1       7.434  30.284  58.607  1.00  0.00    -0.320 N 
HETATM    6  C   UNL     1       6.798  31.491  58.755  1.00  0.00     0.275 A 
HETATM    7  O   UNL     1       7.298  32.417  59.375  1.00  0.00    -0.266 OA
HETATM    8  C   UNL     1       4.957  28.292  56.758  1.00  0.00     0.035 A 
HETATM    9  C   UNL     1       5.626  27.064  56.646  1.00  0.00     0.019 A 
HETATM   10  C   UNL     1       6.912  26.915  57.181  1.00  0.00     0.034 A 
HETATM   11  C   UNL     1       7.513  27.998  57.841  1.00  0.00     0.049 A 
HETATM   12  H   UNL     1       8.345  30.190  59.035  1.00  0.00     0.169 HD
ENDROOT
BRANCH  10  13
HETATM   13  C   UNL     1       7.675  25.635  57.128  1.00  0.00     0.252 C 
HETATM   14  N   UNL     1       7.046  24.535  56.589  1.00  0.00    -0.353 N 
HETATM   15  H   UNL     1       6.086  24.578  56.286  1.00  0.00     0.163 HD
HETATM   16  O   UNL     1       8.830  25.602  57.543  1.00  0.00    -0.268 OA
BRANCH  14  17
HETATM   17  C   UNL     1       7.678  23.237  56.660  1.00  0.00     0.163 C 
BRANCH  17  18
HETATM   18  C   UNL     1       7.796  22.585  55.307  1.00  0.00    -0.019 A 
HETATM   19  C   UNL     1       8.027  21.210  55.146  1.00  0.00     0.042 A 
HETATM   20 CL   UNL     1       8.155  20.145  56.500  1.00  0.00    -0.084 Cl
HETATM   21  C   UNL     1       8.150  20.654  53.868  1.00  0.00     0.024 A 
HETATM   22  C   UNL     1       8.038  21.461  52.737  1.00  0.00     0.002 A 
HETATM   23  C   UNL     1       7.794  22.823  52.880  1.00  0.00     0.001 A 
HETATM   24  C   UNL     1       7.671  23.381  54.154  1.00  0.00     0.010 A 
ENDBRANCH  17  18
ENDBRANCH  14  17
ENDBRANCH  10  13
BRANCH   1  25
HETATM   25  C   UNL     1       4.662  32.886  58.208  1.00  0.00     0.025 A 
HETATM   26  C   UNL     1       3.835  33.161  59.323  1.00  0.00     0.047 A 
HETATM   27  C   UNL     1       3.162  34.386  59.362  1.00  0.00     0.030 A 
HETATM   28  C   UNL     1       3.315  35.327  58.337  1.00  0.00     0.002 A 
HETATM   29  C   UNL     1       4.134  35.050  57.247  1.00  0.00     0.001 A 
HETATM   30  C   UNL     1       4.800  33.828  57.177  1.00  0.00     0.016 A 
BRANCH  26  31
HETATM   31  N   UNL     1       3.681  32.172  60.320  1.00  0.00    -0.327 N 
HETATM   32  C   UNL     1       3.996  32.113  61.644  1.00  0.00     0.218 C 
HETATM   33  C   UNL     1       4.896  33.137  62.274  1.00  0.00     0.117 C 
HETATM   34  O   UNL     1       3.571  31.168  62.314  1.00  0.00    -0.274 OA
HETATM   35  H   UNL     1       3.214  31.319  60.006  1.00  0.00     0.169 HD
ENDBRANCH  26  31
ENDBRANCH   1  25
TORSDOF 5
ENDMDL
MODEL 6
REMARK VINA RESULT:      -9.7      3.325     10.116
REMARK  5 active torsions:
REMARK  status: ('A' for Active; 'I' for Inactive)
REMARK       I    between atoms: C_2  and  N_3 
REMARK    1  A    between atoms: N_3  and  C_4 
REMARK    2  A    between atoms: C_5  and  C_6 
REMARK    3  A    between atoms: C_15  and  C_16 
REMARK       I    between atoms: C_16  and  N_17 
REMARK    4  A    between atoms: N_17  and  C_18 
REMARK    5  A    between atoms: C_18  and  C_19 
ROOT
HETATM    1  C   UNL     1       5.243  31.811  59.309  1.00  0.00     0.138 A 
HETATM    2  N   UNL     1       6.300  31.474  58.617  1.00  0.00    -0.240 NA
HETATM    3  C   UNL     1       6.179  30.462  57.649  1.00  0.00     0.084 A 
HETATM    4  C   UNL     1       4.969  29.807  57.394  1.00  0.00     0.065 A 
HETATM    5  N   UNL     1       3.834  30.173  58.120  1.00  0.00    -0.320 N 
HETATM    6  C   UNL     1       3.868  31.164  59.068  1.00  0.00     0.275 A 
HETATM    7  O   UNL     1       2.869  31.520  59.673  1.00  0.00    -0.266 OA
HETATM    8  C   UNL     1       7.305  30.100  56.908  1.00  0.00     0.035 A 
HETATM    9  C   UNL     1       7.229  29.099  55.928  1.00  0.00     0.019 A 
HETATM   10  C   UNL     1       6.014  28.444  55.688  1.00  0.00     0.034 A 
HETATM   11  C   UNL     1       4.878  28.810  56.424  1.00  0.00     0.049 A 
HETATM   12  H   UNL     1       2.938  29.742  57.939  1.00  0.00     0.169 HD
ENDROOT
BRANCH  10  13
HETATM   13  C   UNL     1       5.846  27.392  54.646  1.00  0.00     0.252 C 
HETATM   14  N   UNL     1       5.605  26.103  55.068  1.00  0.00    -0.353 N 
HETATM   15  H   UNL     1       5.591  25.867  56.048  1.00  0.00     0.163 HD
HETATM   16  O   UNL     1       5.910  27.700  53.459  1.00  0.00    -0.268 OA
BRANCH  14  17
HETATM   17  C   UNL     1       5.595  25.020  54.109  1.00  0.00     0.163 C 
BRANCH  17  18
HETATM   18  C   UNL     1       6.756  24.081  54.299  1.00  0.00    -0.019 A 
HETATM   19  C   UNL     1       7.682  23.804  53.280  1.00  0.00     0.042 A 
HETATM   20 CL   UNL     1       7.580  24.559  51.730  1.00  0.00    -0.084 Cl
HETATM   21  C   UNL     1       8.733  22.906  53.497  1.00  0.00     0.024 A 
HETATM   22  C   UNL     1       8.877  22.280  54.734  1.00  0.00     0.002 A 
HETATM   23  C   UNL     1       7.976  22.555  55.758  1.00  0.00     0.001 A 
HETATM   24  C   UNL     1       6.926  23.450  55.545  1.00  0.00     0.010 A 
ENDBRANCH  17  18
ENDBRANCH  14  17
ENDBRANCH  10  13
BRANCH   1  25
HETATM   25  C   UNL     1       5.364  32.882  60.342  1.00  0.00     0.025 A 
HETATM   26  C   UNL     1       6.280  32.758  61.413  1.00  0.00     0.047 A 
HETATM   27  C   UNL     1       6.347  33.793  62.350  1.00  0.00     0.030 A 
HETATM   28  C   UNL     1       5.547  34.934  62.223  1.00  0.00     0.002 A 
HETATM   29  C   UNL     1       4.652  35.050  61.165  1.00  0.00     0.001 A 
HETATM   30  C   UNL     1       4.553  34.022  60.230  1.00  0.00     0.016 A 
BRANCH  26  31
HETATM   31  N   UNL     1       7.046  31.576  61.523  1.00  0.00    -0.327 N 
HETATM   32  C   UNL     1       8.362  31.285  61.322  1.00  0.00     0.218 C 
HETATM   33  C   UNL     1       9.273  32.254  60.627  1.00  0.00     0.117 C 
HETATM   34  O   UNL     1       8.787  30.182  61.676  1.00  0.00    -0.274 OA
HETATM   35  H   UNL     1       6.525  30.756  61.842  1.00  0.00     0.169 HD
ENDBRANCH  26  31
ENDBRANCH   1  25
TORSDOF 5
ENDMDL
MODEL 7
REMARK VINA RESULT:      -9.6      3.310     10.251
REMARK  5 active torsions:
REMARK  status: ('A' for Active; 'I' for Inactive)
REMARK       I    between atoms: C_2  and  N_3 
REMARK    1  A    between atoms: N_3  and  C_4 
REMARK    2  A    between atoms: C_5  and  C_6 
REMARK    3  A    between atoms: C_15  and  C_16 
REMARK       I    between atoms: C_16  and  N_17 
REMARK    4  A    between atoms: N_17  and  C_18 
REMARK    5  A    between atoms: C_18  and  C_19 
ROOT
HETATM    1  C   UNL     1       7.609  32.141  61.026  1.00  0.00     0.138 A 
HETATM    2  N   UNL     1       6.663  31.794  60.194  1.00  0.00    -0.240 NA
HETATM    3  C   UNL     1       7.011  31.079  59.035  1.00  0.00     0.084 A 
HETATM    4  C   UNL     1       8.332  30.721  58.742  1.00  0.00     0.065 A 
HETATM    5  N   UNL     1       9.344  31.077  59.634  1.00  0.00    -0.320 N 
HETATM    6  C   UNL     1       9.081  31.759  60.795  1.00  0.00     0.275 A 
HETATM    7  O   UNL     1       9.957  32.032  61.602  1.00  0.00    -0.266 OA
HETATM    8  C   UNL     1       6.003  30.706  58.145  1.00  0.00     0.035 A 
HETATM    9  C   UNL     1       6.305  29.987  56.978  1.00  0.00     0.019 A 
HETATM   10  C   UNL     1       7.631  29.643  56.691  1.00  0.00     0.034 A 
HETATM   11  C   UNL     1       8.647  30.008  57.587  1.00  0.00     0.049 A 
HETATM   12  H   UNL     1      10.304  30.807  59.468  1.00  0.00     0.169 HD
ENDROOT
BRANCH  10  13
HETATM   13  C   UNL     1       8.028  28.857  55.488  1.00  0.00     0.252 C 
HETATM   14  N   UNL     1       7.121  27.952  54.985  1.00  0.00    -0.353 N 
HETATM   15  H   UNL     1       6.237  27.788  55.440  1.00  0.00     0.163 HD
HETATM   16  O   UNL     1       9.129  29.046  54.977  1.00  0.00    -0.268 OA
BRANCH  14  17
HETATM   17  C   UNL     1       7.513  27.051  53.923  1.00  0.00     0.163 C 
BRANCH  17  18
HETATM   18  C   UNL     1       7.491  25.610  54.360  1.00  0.00    -0.019 A 
HETATM   19  C   UNL     1       7.587  24.542  53.454  1.00  0.00     0.042 A 
HETATM   20 CL   UNL     1       7.780  24.804  51.757  1.00  0.00    -0.084 Cl
HETATM   21  C   UNL     1       7.541  23.219  53.905  1.00  0.00     0.024 A 
HETATM   22  C   UNL     1       7.405  22.945  55.266  1.00  0.00     0.002 A 
HETATM   23  C   UNL     1       7.323  23.994  56.177  1.00  0.00     0.001 A 
HETATM   24  C   UNL     1       7.369  25.315  55.729  1.00  0.00     0.010 A 
ENDBRANCH  17  18
ENDBRANCH  14  17
ENDBRANCH  10  13
BRANCH   1  25
HETATM   25  C   UNL     1       7.248  32.903  62.258  1.00  0.00     0.025 A 
HETATM   26  C   UNL     1       6.259  33.914  62.222  1.00  0.00     0.047 A 
HETATM   27  C   UNL     1       5.964  34.594  63.408  1.00  0.00     0.030 A 
HETATM   28  C   UNL     1       6.613  34.272  64.605  1.00  0.00     0.002 A 
HETATM   29  C   UNL     1       7.581  33.274  64.632  1.00  0.00     0.001 A 
HETATM   30  C   UNL     1       7.906  32.596  63.459  1.00  0.00     0.016 A 
BRANCH  26  31
HETATM   31  N   UNL     1       5.650  34.231  60.987  1.00  0.00    -0.327 N 
HETATM   32  C   UNL     1       4.367  34.187  60.531  1.00  0.00     0.218 C 
HETATM   33  C   UNL     1       3.295  33.469  61.299  1.00  0.00     0.117 C 
HETATM   34  O   UNL     1       4.106  34.705  59.442  1.00  0.00    -0.274 OA
HETATM   35  H   UNL     1       6.289  34.595  60.277  1.00  0.00     0.169 HD
ENDBRANCH  26  31
ENDBRANCH   1  25
TORSDOF 5
ENDMDL
MODEL 8
REMARK VINA RESULT:      -9.6      3.622     11.035
REMARK  5 active torsions:
REMARK  status: ('A' for Active; 'I' for Inactive)
REMARK       I    between atoms: C_2  and  N_3 
REMARK    1  A    between atoms: N_3  and  C_4 
REMARK    2  A    between atoms: C_5  and  C_6 
REMARK    3  A    between atoms: C_15  and  C_16 
REMARK       I    between atoms: C_16  and  N_17 
REMARK    4  A    between atoms: N_17  and  C_18 
REMARK    5  A    between atoms: C_18  and  C_19 
ROOT
HETATM    1  C   UNL     1       5.680  33.686  63.400  1.00  0.00     0.138 A 
HETATM    2  N   UNL     1       6.925  33.286  63.407  1.00  0.00    -0.240 NA
HETATM    3  C   UNL     1       7.412  32.572  62.299  1.00  0.00     0.084 A 
HETATM    4  C   UNL     1       6.615  32.278  61.187  1.00  0.00     0.065 A 
HETATM    5  N   UNL     1       5.290  32.715  61.167  1.00  0.00    -0.320 N 
HETATM    6  C   UNL     1       4.748  33.433  62.203  1.00  0.00     0.275 A 
HETATM    7  O   UNL     1       3.603  33.858  62.171  1.00  0.00    -0.266 OA
HETATM    8  C   UNL     1       8.740  32.145  62.303  1.00  0.00     0.035 A 
HETATM    9  C   UNL     1       9.269  31.433  61.216  1.00  0.00     0.019 A 
HETATM   10  C   UNL     1       8.460  31.137  60.112  1.00  0.00     0.034 A 
HETATM   11  C   UNL     1       7.126  31.572  60.099  1.00  0.00     0.049 A 
HETATM   12  H   UNL     1       4.697  32.547  60.366  1.00  0.00     0.169 HD
ENDROOT
BRANCH  10  13
HETATM   13  C   UNL     1       8.956  30.411  58.908  1.00  0.00     0.252 C 
HETATM   14  N   UNL     1       8.185  29.381  58.417  1.00  0.00    -0.353 N 
HETATM   15  H   UNL     1       7.338  29.093  58.882  1.00  0.00     0.163 HD
HETATM   16  O   UNL     1      10.012  30.756  58.386  1.00  0.00    -0.268 OA
BRANCH  14  17
HETATM   17  C   UNL     1       8.694  28.542  57.354  1.00  0.00     0.163 C 
BRANCH  17  18
HETATM   18  C   UNL     1       7.733  27.443  56.986  1.00  0.00    -0.019 A 
HETATM   19  C   UNL     1       6.562  27.675  56.248  1.00  0.00     0.042 A 
HETATM   20 CL   UNL     1       6.150  29.250  55.669  1.00  0.00    -0.084 Cl
HETATM   21  C   UNL     1       5.688  26.625  55.948  1.00  0.00     0.024 A 
HETATM   22  C   UNL     1       5.976  25.328  56.374  1.00  0.00     0.002 A 
HETATM   23  C   UNL     1       7.141  25.080  57.094  1.00  0.00     0.001 A 
HETATM   24  C   UNL     1       8.015  26.126  57.394  1.00  0.00     0.010 A 
ENDBRANCH  17  18
ENDBRANCH  14  17
ENDBRANCH  10  13
BRANCH   1  25
HETATM   25  C   UNL     1       5.154  34.442  64.575  1.00  0.00     0.025 A 
HETATM   26  C   UNL     1       5.259  35.852  64.635  1.00  0.00     0.047 A 
HETATM   27  C   UNL     1       4.749  36.506  65.761  1.00  0.00     0.030 A 
HETATM   28  C   UNL     1       4.132  35.790  66.793  1.00  0.00     0.002 A 
HETATM   29  C   UNL     1       4.029  34.405  66.723  1.00  0.00     0.001 A 
HETATM   30  C   UNL     1       4.547  33.730  65.620  1.00  0.00     0.016 A 
BRANCH  26  31
HETATM   31  N   UNL     1       5.918  36.534  63.589  1.00  0.00    -0.327 N 
HETATM   32  C   UNL     1       5.493  37.337  62.573  1.00  0.00     0.218 C 
HETATM   33  C   UNL     1       4.037  37.437  62.221  1.00  0.00     0.117 C 
HETATM   34  O   UNL     1       6.334  37.946  61.906  1.00  0.00    -0.274 OA
HETATM   35  H   UNL     1       6.936  36.436  63.589  1.00  0.00     0.169 HD
ENDBRANCH  26  31
ENDBRANCH   1  25
TORSDOF 5
ENDMDL
MODEL 9
REMARK VINA RESULT:      -9.2      1.858      3.602
REMARK  5 active torsions:
REMARK  status: ('A' for Active; 'I' for Inactive)
REMARK       I    between atoms: C_2  and  N_3 
REMARK    1  A    between atoms: N_3  and  C_4 
REMARK    2  A    between atoms: C_5  and  C_6 
REMARK    3  A    between atoms: C_15  and  C_16 
REMARK       I    between atoms: C_16  and  N_17 
REMARK    4  A    between atoms: N_17  and  C_18 
REMARK    5  A    between atoms: C_18  and  C_19 
ROOT
HETATM    1  C   UNL     1       6.276  28.082  54.349  1.00  0.00     0.138 A 
HETATM    2  N   UNL     1       5.413  28.631  55.163  1.00  0.00    -0.240 NA
HETATM    3  C   UNL     1       5.893  29.415  56.227  1.00  0.00     0.084 A 
HETATM    4  C   UNL     1       7.258  29.634  56.442  1.00  0.00     0.065 A 
HETATM    5  N   UNL     1       8.183  29.063  55.567  1.00  0.00    -0.320 N 
HETATM    6  C   UNL     1       7.792  28.301  54.495  1.00  0.00     0.275 A 
HETATM    7  O   UNL     1       8.594  27.837  53.699  1.00  0.00    -0.266 OA
HETATM    8  C   UNL     1       4.975  30.003  57.098  1.00  0.00     0.035 A 
HETATM    9  C   UNL     1       5.409  30.797  58.170  1.00  0.00     0.019 A 
HETATM   10  C   UNL     1       6.778  31.002  58.381  1.00  0.00     0.034 A 
HETATM   11  C   UNL     1       7.705  30.420  57.503  1.00  0.00     0.049 A 
HETATM   12  H   UNL     1       9.174  29.227  55.675  1.00  0.00     0.169 HD
ENDROOT
BRANCH  10  13
HETATM   13  C   UNL     1       7.316  31.855  59.479  1.00  0.00     0.252 C 
HETATM   14  N   UNL     1       6.635  31.865  60.676  1.00  0.00    -0.353 N 
HETATM   15  H   UNL     1       5.775  31.353  60.793  1.00  0.00     0.163 HD
HETATM   16  O   UNL     1       8.344  32.501  59.295  1.00  0.00    -0.268 OA
BRANCH  14  17
HETATM   17  C   UNL     1       7.019  32.794  61.716  1.00  0.00     0.163 C 
BRANCH  17  18
HETATM   18  C   UNL     1       5.838  33.265  62.524  1.00  0.00    -0.019 A 
HETATM   19  C   UNL     1       5.910  33.497  63.907  1.00  0.00     0.042 A 
HETATM   20 CL   UNL     1       7.382  33.295  64.787  1.00  0.00    -0.084 Cl
HETATM   21  C   UNL     1       4.780  33.914  64.618  1.00  0.00     0.024 A 
HETATM   22  C   UNL     1       3.567  34.111  63.958  1.00  0.00     0.002 A 
HETATM   23  C   UNL     1       3.485  33.899  62.585  1.00  0.00     0.001 A 
HETATM   24  C   UNL     1       4.611  33.483  61.873  1.00  0.00     0.010 A 
ENDBRANCH  17  18
ENDBRANCH  14  17
ENDBRANCH  10  13
BRANCH   1  25
HETATM   25  C   UNL     1       5.775  27.246  53.218  1.00  0.00     0.025 A 
HETATM   26  C   UNL     1       5.451  25.882  53.413  1.00  0.00     0.047 A 
HETATM   27  C   UNL     1       4.988  25.149  52.316  1.00  0.00     0.030 A 
HETATM   28  C   UNL     1       4.827  25.750  51.062  1.00  0.00     0.002 A 
HETATM   29  C   UNL     1       5.144  27.092  50.882  1.00  0.00     0.001 A 
HETATM   30  C   UNL     1       5.626  27.838  51.954  1.00  0.00     0.016 A 
BRANCH  26  31
HETATM   31  N   UNL     1       5.659  25.305  54.685  1.00  0.00    -0.327 N 
HETATM   32  C   UNL     1       6.712  24.668  55.270  1.00  0.00     0.218 C 
HETATM   33  C   UNL     1       7.888  24.208  54.457  1.00  0.00     0.117 C 
HETATM   34  O   UNL     1       6.663  24.426  56.478  1.00  0.00    -0.274 OA
HETATM   35  H   UNL     1       4.869  25.393  55.329  1.00  0.00     0.169 HD
ENDBRANCH  26  31
ENDBRANCH   1  25
TORSDOF 5
ENDMDL
MODEL 10
REMARK VINA RESULT:      -9.1      2.325      2.811
REMARK  5 active torsions:
REMARK  status: ('A' for Active; 'I' for Inactive)
REMARK       I    between atoms: C_2  and  N_3 
REMARK    1  A    between atoms: N_3  and  C_4 
REMARK    2  A    between atoms: C_5  and  C_6 
REMARK    3  A    between atoms: C_15  and  C_16 
REMARK       I    between atoms: C_16  and  N_17 
REMARK    4  A    between atoms: N_17  and  C_18 
REMARK    5  A    between atoms: C_18  and  C_19 
ROOT
HETATM    1  C   UNL     1       5.753  27.620  54.925  1.00  0.00     0.138 A 
HETATM    2  N   UNL     1       5.794  28.921  54.796  1.00  0.00    -0.240 NA
HETATM    3  C   UNL     1       5.371  29.719  55.873  1.00  0.00     0.084 A 
HETATM    4  C   UNL     1       4.914  29.174  57.078  1.00  0.00     0.065 A 
HETATM    5  N   UNL     1       4.882  27.787  57.225  1.00  0.00    -0.320 N 
HETATM    6  C   UNL     1       5.295  26.941  56.227  1.00  0.00     0.275 A 
HETATM    7  O   UNL     1       5.313  25.728  56.368  1.00  0.00    -0.266 OA
HETATM    8  C   UNL     1       5.414  31.108  55.740  1.00  0.00     0.035 A 
HETATM    9  C   UNL     1       5.006  31.943  56.791  1.00  0.00     0.019 A 
HETATM   10  C   UNL     1       4.542  31.386  57.989  1.00  0.00     0.034 A 
HETATM   11  C   UNL     1       4.505  29.991  58.131  1.00  0.00     0.049 A 
HETATM   12  H   UNL     1       4.587  27.361  58.093  1.00  0.00     0.169 HD
ENDROOT
BRANCH  10  13
HETATM   13  C   UNL     1       4.118  32.206  59.160  1.00  0.00     0.252 C 
HETATM   14  N   UNL     1       4.862  32.107  60.314  1.00  0.00    -0.353 N 
HETATM   15  H   UNL     1       5.638  31.467  60.385  1.00  0.00     0.163 HD
HETATM   16  O   UNL     1       3.144  32.946  59.059  1.00  0.00    -0.268 OA
BRANCH  14  17
HETATM   17  C   UNL     1       4.404  32.753  61.525  1.00  0.00     0.163 C 
BRANCH  17  18
HETATM   18  C   UNL     1       5.504  32.900  62.543  1.00  0.00    -0.019 A 
HETATM   19  C   UNL     1       5.304  33.513  63.791  1.00  0.00     0.042 A 
HETATM   20 CL   UNL     1       3.758  34.115  64.271  1.00  0.00    -0.084 Cl
HETATM   21  C   UNL     1       6.362  33.646  64.696  1.00  0.00     0.024 A 
HETATM   22  C   UNL     1       7.629  33.163  64.372  1.00  0.00     0.002 A 
HETATM   23  C   UNL     1       7.839  32.540  63.145  1.00  0.00     0.001 A 
HETATM   24  C   UNL     1       6.785  32.406  62.240  1.00  0.00     0.010 A 
ENDBRANCH  17  18
ENDBRANCH  14  17
ENDBRANCH  10  13
BRANCH   1  25
HETATM   25  C   UNL     1       6.198  26.765  53.785  1.00  0.00     0.025 A 
HETATM   26  C   UNL     1       5.437  26.690  52.594  1.00  0.00     0.047 A 
HETATM   27  C   UNL     1       5.903  25.871  51.561  1.00  0.00     0.030 A 
HETATM   28  C   UNL     1       7.101  25.159  51.689  1.00  0.00     0.002 A 
HETATM   29  C   UNL     1       7.844  25.242  52.862  1.00  0.00     0.001 A 
HETATM   30  C   UNL     1       7.390  26.036  53.912  1.00  0.00     0.016 A 
BRANCH  26  31
HETATM   31  N   UNL     1       4.217  27.398  52.517  1.00  0.00    -0.327 N 
HETATM   32  C   UNL     1       3.831  28.543  51.887  1.00  0.00     0.218 C 
HETATM   33  C   UNL     1       4.843  29.482  51.296  1.00  0.00     0.117 C 
HETATM   34  O   UNL     1       2.631  28.827  51.854  1.00  0.00    -0.274 OA
HETATM   35  H   UNL     1       3.438  26.962  53.015  1.00  0.00     0.169 HD
ENDBRANCH  26  31
ENDBRANCH   1  25
TORSDOF 5
ENDMDL
