MODEL 1
REMARK VINA RESULT:     -10.3      0.000      0.000
REMARK  5 active torsions:
REMARK  status: ('A' for Active; 'I' for Inactive)
REMARK    1  A    between atoms: C_6  and  N_7 
REMARK       I    between atoms: N_7  and  C_8 
REMARK       I    between atoms: C_8  and  N_9 
REMARK    2  A    between atoms: N_9  and  C_10 
REMARK    3  A    between atoms: C_10  and  C_11 
REMARK    4  A    between atoms: C_13  and  N_14 
REMARK       I    between atoms: N_14  and  C_15 
REMARK    5  A    between atoms: C_15  and  C_16 
ROOT
HETATM    1  C   UNL     1       8.361  29.050  55.844  1.00  0.00    -0.038 A 
HETATM    2  C   UNL     1       7.910  29.530  57.088  1.00  0.00     0.038 A 
HETATM    3  C   UNL     1       8.806  30.032  58.035  1.00  0.00     0.035 A 
HETATM    4  C   UNL     1      10.168  30.080  57.721  1.00  0.00     0.029 A 
HETATM    5  C   UNL     1      10.629  29.615  56.488  1.00  0.00     0.003 A 
HETATM    6  C   UNL     1       9.731  29.098  55.556  1.00  0.00     0.009 A 
ENDROOT
BRANCH   1   7
HETATM    7  C   UNL     1       7.385  28.550  54.810  1.00  0.00     0.163 C 
BRANCH   7   8
HETATM    8  N   UNL     1       7.172  27.121  54.884  1.00  0.00    -0.339 N 
HETATM    9  C   UNL     1       6.092  26.651  55.565  1.00  0.00     0.320 C 
HETATM   10  N   UNL     1       6.002  25.308  55.764  1.00  0.00    -0.309 N 
HETATM   11  O   UNL     1       5.240  27.388  56.058  1.00  0.00    -0.247 OA
HETATM   12  H   UNL     1       5.295  25.100  56.458  1.00  0.00     0.170 HD
HETATM   13  H   UNL     1       8.000  26.555  55.001  1.00  0.00     0.164 HD
BRANCH  10  14
HETATM   14  C   UNL     1       6.646  24.206  55.177  1.00  0.00     0.037 A 
HETATM   15  C   UNL     1       7.290  23.194  55.888  1.00  0.00     0.049 A 
HETATM   16  C   UNL     1       7.927  22.143  55.210  1.00  0.00     0.019 A 
HETATM   17  C   UNL     1       7.937  22.089  53.809  1.00  0.00    -0.044 A 
HETATM   18 BR   UNL     1       8.791  20.820  56.267  1.00  0.00    -0.051 Br
HETATM   19  C   UNL     1       8.619  20.989  53.044  1.00  0.00     0.049 C 
HETATM   20  C   UNL     1       7.315  23.125  53.101  1.00  0.00     0.010 A 
HETATM   21  C   UNL     1       6.684  24.173  53.778  1.00  0.00     0.030 A 
ENDBRANCH  10  14
ENDBRANCH   7   8
ENDBRANCH   1   7
BRANCH   3  22
HETATM   22  N   UNL     1       8.423  30.509  59.302  1.00  0.00    -0.321 N 
HETATM   23  C   UNL     1       8.628  31.764  59.847  1.00  0.00     0.279 C 
HETATM   24  O   UNL     1       9.191  32.700  59.289  1.00  0.00    -0.265 OA
HETATM   25  H   UNL     1       7.898  29.874  59.894  1.00  0.00     0.169 HD
BRANCH  23  26
HETATM   26  C   UNL     1       8.082  31.883  61.188  1.00  0.00     0.142 A 
HETATM   27  O   UNL     1       6.722  31.839  61.370  1.00  0.00    -0.317 OA
HETATM   28  C   UNL     1       6.492  31.966  62.702  1.00  0.00     0.143 A 
HETATM   29  C   UNL     1       7.677  32.097  63.387  1.00  0.00     0.027 A 
HETATM   30  C   UNL     1       8.702  32.043  62.413  1.00  0.00     0.045 A 
ENDBRANCH  23  26
ENDBRANCH   3  22
TORSDOF 5
ENDMDL
MODEL 2
REMARK VINA RESULT:      -9.8      3.245      9.936
REMARK  5 active torsions:
REMARK  status: ('A' for Active; 'I' for Inactive)
REMARK    1  A    between atoms: C_6  and  N_7 
REMARK       I    between atoms: N_7  and  C_8 
REMARK       I    between atoms: C_8  and  N_9 
REMARK    2  A    between atoms: N_9  and  C_10 
REMARK    3  A    between atoms: C_10  and  C_11 
REMARK    4  A    between atoms: C_13  and  N_14 
REMARK       I    between atoms: N_14  and  C_15 
REMARK    5  A    between atoms: C_15  and  C_16 
ROOT
HETATM    1  C   UNL     1       8.111  28.212  57.163  1.00  0.00    -0.038 A 
HETATM    2  C   UNL     1       8.324  26.944  56.589  1.00  0.00     0.038 A 
HETATM    3  C   UNL     1       7.257  26.078  56.337  1.00  0.00     0.035 A 
HETATM    4  C   UNL     1       5.957  26.499  56.639  1.00  0.00     0.029 A 
HETATM    5  C   UNL     1       5.730  27.756  57.201  1.00  0.00     0.003 A 
HETATM    6  C   UNL     1       6.802  28.607  57.466  1.00  0.00     0.009 A 
ENDROOT
BRANCH   1   7
HETATM    7  C   UNL     1       9.262  29.159  57.392  1.00  0.00     0.163 C 
BRANCH   7   8
HETATM    8  N   UNL     1       9.000  30.117  58.443  1.00  0.00    -0.339 N 
HETATM    9  C   UNL     1       9.832  31.184  58.581  1.00  0.00     0.320 C 
HETATM   10  N   UNL     1       9.668  31.979  59.674  1.00  0.00    -0.309 N 
HETATM   11  O   UNL     1      10.755  31.418  57.804  1.00  0.00    -0.247 OA
HETATM   12  H   UNL     1      10.465  32.594  59.787  1.00  0.00     0.170 HD
HETATM   13  H   UNL     1       8.685  29.735  59.323  1.00  0.00     0.164 HD
BRANCH  10  14
HETATM   14  C   UNL     1       8.625  32.130  60.603  1.00  0.00     0.037 A 
HETATM   15  C   UNL     1       7.306  32.434  60.271  1.00  0.00     0.049 A 
HETATM   16  C   UNL     1       6.337  32.588  61.273  1.00  0.00     0.019 A 
HETATM   17  C   UNL     1       6.671  32.448  62.628  1.00  0.00    -0.044 A 
HETATM   18 BR   UNL     1       4.569  33.019  60.721  1.00  0.00    -0.051 Br
HETATM   19  C   UNL     1       5.668  32.618  63.734  1.00  0.00     0.049 C 
HETATM   20  C   UNL     1       8.005  32.173  62.956  1.00  0.00     0.010 A 
HETATM   21  C   UNL     1       8.969  32.023  61.955  1.00  0.00     0.030 A 
ENDBRANCH  10  14
ENDBRANCH   7   8
ENDBRANCH   1   7
BRANCH   3  22
HETATM   22  N   UNL     1       7.403  24.793  55.785  1.00  0.00    -0.321 N 
HETATM   23  C   UNL     1       7.637  24.445  54.466  1.00  0.00     0.279 C 
HETATM   24  O   UNL     1       7.768  25.232  53.534  1.00  0.00    -0.265 OA
HETATM   25  H   UNL     1       7.369  24.009  56.427  1.00  0.00     0.169 HD
BRANCH  23  26
HETATM   26  C   UNL     1       7.734  23.008  54.280  1.00  0.00     0.142 A 
HETATM   27  O   UNL     1       7.683  22.180  55.373  1.00  0.00    -0.317 OA
HETATM   28  C   UNL     1       7.789  20.905  54.916  1.00  0.00     0.143 A 
HETATM   29  C   UNL     1       7.913  20.892  53.547  1.00  0.00     0.027 A 
HETATM   30  C   UNL     1       7.878  22.246  53.136  1.00  0.00     0.045 A 
ENDBRANCH  23  26
ENDBRANCH   3  22
TORSDOF 5
ENDMDL
MODEL 3
REMARK VINA RESULT:      -9.3      2.778      4.292
REMARK  5 active torsions:
REMARK  status: ('A' for Active; 'I' for Inactive)
REMARK    1  A    between atoms: C_6  and  N_7 
REMARK       I    between atoms: N_7  and  C_8 
REMARK       I    between atoms: C_8  and  N_9 
REMARK    2  A    between atoms: N_9  and  C_10 
REMARK    3  A    between atoms: C_10  and  C_11 
REMARK    4  A    between atoms: C_13  and  N_14 
REMARK       I    between atoms: N_14  and  C_15 
REMARK    5  A    between atoms: C_15  and  C_16 
ROOT
HETATM    1  C   UNL     1       7.545  31.075  59.414  1.00  0.00    -0.038 A 
HETATM    2  C   UNL     1       6.854  31.913  60.310  1.00  0.00     0.038 A 
HETATM    3  C   UNL     1       7.282  32.064  61.631  1.00  0.00     0.035 A 
HETATM    4  C   UNL     1       8.433  31.389  62.052  1.00  0.00     0.029 A 
HETATM    5  C   UNL     1       9.133  30.561  61.172  1.00  0.00     0.003 A 
HETATM    6  C   UNL     1       8.689  30.402  59.861  1.00  0.00     0.009 A 
ENDROOT
BRANCH   1   7
HETATM    7  C   UNL     1       7.103  30.951  57.978  1.00  0.00     0.163 C 
BRANCH   7   8
HETATM    8  N   UNL     1       6.873  29.580  57.578  1.00  0.00    -0.339 N 
HETATM    9  C   UNL     1       5.594  29.124  57.504  1.00  0.00     0.320 C 
HETATM   10  N   UNL     1       5.406  27.793  57.291  1.00  0.00    -0.309 N 
HETATM   11  O   UNL     1       4.614  29.844  57.685  1.00  0.00    -0.247 OA
HETATM   12  H   UNL     1       4.444  27.537  57.474  1.00  0.00     0.170 HD
HETATM   13  H   UNL     1       7.525  28.898  57.938  1.00  0.00     0.164 HD
BRANCH  10  14
HETATM   14  C   UNL     1       6.251  26.765  56.838  1.00  0.00     0.037 A 
HETATM   15  C   UNL     1       6.183  26.182  55.574  1.00  0.00     0.049 A 
HETATM   16  C   UNL     1       7.057  25.143  55.222  1.00  0.00     0.019 A 
HETATM   17  C   UNL     1       8.012  24.663  56.130  1.00  0.00    -0.044 A 
HETATM   18 BR   UNL     1       6.875  24.401  53.480  1.00  0.00    -0.051 Br
HETATM   19  C   UNL     1       8.958  23.543  55.798  1.00  0.00     0.049 C 
HETATM   20  C   UNL     1       8.054  25.233  57.408  1.00  0.00     0.010 A 
HETATM   21  C   UNL     1       7.180  26.266  57.759  1.00  0.00     0.030 A 
ENDBRANCH  10  14
ENDBRANCH   7   8
ENDBRANCH   1   7
BRANCH   3  22
HETATM   22  N   UNL     1       6.627  32.869  62.581  1.00  0.00    -0.321 N 
HETATM   23  C   UNL     1       5.550  32.545  63.387  1.00  0.00     0.279 C 
HETATM   24  O   UNL     1       4.976  31.461  63.408  1.00  0.00    -0.265 OA
HETATM   25  H   UNL     1       7.001  33.800  62.733  1.00  0.00     0.169 HD
BRANCH  23  26
HETATM   26  C   UNL     1       5.153  33.644  64.250  1.00  0.00     0.142 A 
HETATM   27  O   UNL     1       4.190  33.438  65.207  1.00  0.00    -0.317 OA
HETATM   28  C   UNL     1       4.021  34.614  65.864  1.00  0.00     0.143 A 
HETATM   29  C   UNL     1       4.852  35.580  65.349  1.00  0.00     0.027 A 
HETATM   30  C   UNL     1       5.583  34.956  64.309  1.00  0.00     0.045 A 
ENDBRANCH  23  26
ENDBRANCH   3  22
TORSDOF 5
ENDMDL
MODEL 4
REMARK VINA RESULT:      -9.0      3.440      9.702
REMARK  5 active torsions:
REMARK  status: ('A' for Active; 'I' for Inactive)
REMARK    1  A    between atoms: C_6  and  N_7 
REMARK       I    between atoms: N_7  and  C_8 
REMARK       I    between atoms: C_8  and  N_9 
REMARK    2  A    between atoms: N_9  and  C_10 
REMARK    3  A    between atoms: C_10  and  C_11 
REMARK    4  A    between atoms: C_13  and  N_14 
REMARK       I    between atoms: N_14  and  C_15 
REMARK    5  A    between atoms: C_15  and  C_16 
ROOT
HETATM    1  C   UNL     1       6.327  29.059  57.221  1.00  0.00    -0.038 A 
HETATM    2  C   UNL     1       6.321  27.825  56.543  1.00  0.00     0.038 A 
HETATM    3  C   UNL     1       7.498  27.093  56.366  1.00  0.00     0.035 A 
HETATM    4  C   UNL     1       8.692  27.591  56.901  1.00  0.00     0.029 A 
HETATM    5  C   UNL     1       8.711  28.810  57.582  1.00  0.00     0.003 A 
HETATM    6  C   UNL     1       7.536  29.542  57.738  1.00  0.00     0.009 A 
ENDROOT
BRANCH   1   7
HETATM    7  C   UNL     1       5.046  29.822  57.446  1.00  0.00     0.163 C 
BRANCH   7   8
HETATM    8  N   UNL     1       5.137  30.759  58.544  1.00  0.00    -0.339 N 
HETATM    9  C   UNL     1       4.166  31.701  58.686  1.00  0.00     0.320 C 
HETATM   10  N   UNL     1       4.356  32.673  59.618  1.00  0.00    -0.309 N 
HETATM   11  O   UNL     1       3.168  31.746  57.969  1.00  0.00    -0.247 OA
HETATM   12  H   UNL     1       3.693  33.427  59.484  1.00  0.00     0.170 HD
HETATM   13  H   UNL     1       6.063  31.098  58.762  1.00  0.00     0.164 HD
BRANCH  10  14
HETATM   14  C   UNL     1       5.230  32.796  60.712  1.00  0.00     0.037 A 
HETATM   15  C   UNL     1       6.547  32.341  60.729  1.00  0.00     0.049 A 
HETATM   16  C   UNL     1       7.336  32.488  61.879  1.00  0.00     0.019 A 
HETATM   17  C   UNL     1       6.820  33.088  63.037  1.00  0.00    -0.044 A 
HETATM   18 BR   UNL     1       9.116  31.821  61.809  1.00  0.00    -0.051 Br
HETATM   19  C   UNL     1       7.627  33.254  64.295  1.00  0.00     0.049 C 
HETATM   20  C   UNL     1       5.486  33.515  63.023  1.00  0.00     0.010 A 
HETATM   21  C   UNL     1       4.701  33.364  61.877  1.00  0.00     0.030 A 
ENDBRANCH  10  14
ENDBRANCH   7   8
ENDBRANCH   1   7
BRANCH   3  22
HETATM   22  N   UNL     1       7.564  25.866  55.683  1.00  0.00    -0.321 N 
HETATM   23  C   UNL     1       7.576  25.641  54.318  1.00  0.00     0.279 C 
HETATM   24  O   UNL     1       7.537  26.509  53.452  1.00  0.00    -0.265 OA
HETATM   25  H   UNL     1       7.648  25.028  56.248  1.00  0.00     0.169 HD
BRANCH  23  26
HETATM   26  C   UNL     1       7.657  24.228  53.989  1.00  0.00     0.142 A 
HETATM   27  O   UNL     1       7.530  23.294  54.986  1.00  0.00    -0.317 OA
HETATM   28  C   UNL     1       7.639  22.071  54.405  1.00  0.00     0.143 A 
HETATM   29  C   UNL     1       7.840  22.195  53.051  1.00  0.00     0.027 A 
HETATM   30  C   UNL     1       7.851  23.585  52.781  1.00  0.00     0.045 A 
ENDBRANCH  23  26
ENDBRANCH   3  22
TORSDOF 5
ENDMDL
MODEL 5
REMARK VINA RESULT:      -8.9      3.806      8.797
REMARK  5 active torsions:
REMARK  status: ('A' for Active; 'I' for Inactive)
REMARK    1  A    between atoms: C_6  and  N_7 
REMARK       I    between atoms: N_7  and  C_8 
REMARK       I    between atoms: C_8  and  N_9 
REMARK    2  A    between atoms: N_9  and  C_10 
REMARK    3  A    between atoms: C_10  and  C_11 
REMARK    4  A    between atoms: C_13  and  N_14 
REMARK       I    between atoms: N_14  and  C_15 
REMARK    5  A    between atoms: C_15  and  C_16 
ROOT
HETATM    1  C   UNL     1       4.743  28.076  52.664  1.00  0.00    -0.038 A 
HETATM    2  C   UNL     1       5.300  26.909  53.220  1.00  0.00     0.038 A 
HETATM    3  C   UNL     1       5.576  25.793  52.425  1.00  0.00     0.035 A 
HETATM    4  C   UNL     1       5.317  25.857  51.052  1.00  0.00     0.029 A 
HETATM    5  C   UNL     1       4.772  27.011  50.486  1.00  0.00     0.003 A 
HETATM    6  C   UNL     1       4.483  28.113  51.288  1.00  0.00     0.009 A 
ENDROOT
BRANCH   1   7
HETATM    7  C   UNL     1       4.489  29.292  53.518  1.00  0.00     0.163 C 
BRANCH   7   8
HETATM    8  N   UNL     1       5.343  29.347  54.684  1.00  0.00    -0.339 N 
HETATM    9  C   UNL     1       4.817  29.034  55.899  1.00  0.00     0.320 C 
HETATM   10  N   UNL     1       5.587  29.253  57.000  1.00  0.00    -0.309 N 
HETATM   11  O   UNL     1       3.665  28.630  56.046  1.00  0.00    -0.247 OA
HETATM   12  H   UNL     1       5.026  29.199  57.841  1.00  0.00     0.170 HD
HETATM   13  H   UNL     1       6.003  30.110  54.715  1.00  0.00     0.164 HD
BRANCH  10  14
HETATM   14  C   UNL     1       6.962  29.484  57.179  1.00  0.00     0.037 A 
HETATM   15  C   UNL     1       7.501  30.380  58.101  1.00  0.00     0.049 A 
HETATM   16  C   UNL     1       8.890  30.558  58.189  1.00  0.00     0.019 A 
HETATM   17  C   UNL     1       9.764  29.849  57.353  1.00  0.00    -0.044 A 
HETATM   18 BR   UNL     1       9.529  31.814  59.466  1.00  0.00    -0.051 Br
HETATM   19  C   UNL     1      11.257  30.020  57.406  1.00  0.00     0.049 C 
HETATM   20  C   UNL     1       9.213  28.973  56.409  1.00  0.00     0.010 A 
HETATM   21  C   UNL     1       7.829  28.800  56.320  1.00  0.00     0.030 A 
ENDBRANCH  10  14
ENDBRANCH   7   8
ENDBRANCH   1   7
BRANCH   3  22
HETATM   22  N   UNL     1       6.114  24.591  52.920  1.00  0.00    -0.321 N 
HETATM   23  C   UNL     1       7.416  24.131  52.835  1.00  0.00     0.279 C 
HETATM   24  O   UNL     1       8.347  24.724  52.300  1.00  0.00    -0.265 OA
HETATM   25  H   UNL     1       5.487  23.985  53.440  1.00  0.00     0.169 HD
BRANCH  23  26
HETATM   26  C   UNL     1       7.591  22.838  53.474  1.00  0.00     0.142 A 
HETATM   27  O   UNL     1       7.402  22.723  54.828  1.00  0.00    -0.317 OA
HETATM   28  C   UNL     1       7.622  21.423  55.154  1.00  0.00     0.143 A 
HETATM   29  C   UNL     1       7.957  20.695  54.037  1.00  0.00     0.027 A 
HETATM   30  C   UNL     1       7.937  21.605  52.954  1.00  0.00     0.045 A 
ENDBRANCH  23  26
ENDBRANCH   3  22
TORSDOF 5
ENDMDL
MODEL 6
REMARK VINA RESULT:      -8.8      4.024      7.146
REMARK  5 active torsions:
REMARK  status: ('A' for Active; 'I' for Inactive)
REMARK    1  A    between atoms: C_6  and  N_7 
REMARK       I    between atoms: N_7  and  C_8 
REMARK       I    between atoms: C_8  and  N_9 
REMARK    2  A    between atoms: N_9  and  C_10 
REMARK    3  A    between atoms: C_10  and  C_11 
REMARK    4  A    between atoms: C_13  and  N_14 
REMARK       I    between atoms: N_14  and  C_15 
REMARK    5  A    between atoms: C_15  and  C_16 
ROOT
HETATM    1  C   UNL     1       7.874  32.368  62.594  1.00  0.00    -0.038 A 
HETATM    2  C   UNL     1       6.780  32.832  61.840  1.00  0.00     0.038 A 
HETATM    3  C   UNL     1       5.844  33.711  62.392  1.00  0.00     0.035 A 
HETATM    4  C   UNL     1       6.023  34.152  63.708  1.00  0.00     0.029 A 
HETATM    5  C   UNL     1       7.107  33.707  64.465  1.00  0.00     0.003 A 
HETATM    6  C   UNL     1       8.026  32.816  63.913  1.00  0.00     0.009 A 
ENDROOT
BRANCH   1   7
HETATM    7  C   UNL     1       8.903  31.455  61.979  1.00  0.00     0.163 C 
BRANCH   7   8
HETATM    8  N   UNL     1       8.487  30.920  60.701  1.00  0.00    -0.339 N 
HETATM    9  C   UNL     1       8.985  31.475  59.563  1.00  0.00     0.320 C 
HETATM   10  N   UNL     1       8.455  31.070  58.376  1.00  0.00    -0.309 N 
HETATM   11  O   UNL     1       9.835  32.362  59.567  1.00  0.00    -0.247 OA
HETATM   12  H   UNL     1       8.736  31.697  57.632  1.00  0.00     0.170 HD
HETATM   13  H   UNL     1       7.516  30.651  60.628  1.00  0.00     0.164 HD
BRANCH  10  14
HETATM   14  C   UNL     1       7.666  29.969  58.003  1.00  0.00     0.037 A 
HETATM   15  C   UNL     1       8.131  28.658  57.905  1.00  0.00     0.049 A 
HETATM   16  C   UNL     1       7.271  27.627  57.500  1.00  0.00     0.019 A 
HETATM   17  C   UNL     1       5.931  27.888  57.180  1.00  0.00    -0.044 A 
HETATM   18 BR   UNL     1       8.003  25.876  57.381  1.00  0.00    -0.051 Br
HETATM   19  C   UNL     1       4.979  26.815  56.730  1.00  0.00     0.049 C 
HETATM   20  C   UNL     1       5.479  29.211  57.251  1.00  0.00     0.010 A 
HETATM   21  C   UNL     1       6.339  30.238  57.651  1.00  0.00     0.030 A 
ENDBRANCH  10  14
ENDBRANCH   7   8
ENDBRANCH   1   7
BRANCH   3  22
HETATM   22  N   UNL     1       4.719  34.196  61.701  1.00  0.00    -0.321 N 
HETATM   23  C   UNL     1       3.382  33.928  61.937  1.00  0.00     0.279 C 
HETATM   24  O   UNL     1       2.947  33.203  62.826  1.00  0.00    -0.265 OA
HETATM   25  H   UNL     1       4.890  34.855  60.949  1.00  0.00     0.169 HD
BRANCH  23  26
HETATM   26  C   UNL     1       2.505  34.622  61.010  1.00  0.00     0.142 A 
HETATM   27  O   UNL     1       3.041  35.497  60.098  1.00  0.00    -0.317 OA
HETATM   28  C   UNL     1       2.011  35.992  59.365  1.00  0.00     0.143 A 
HETATM   29  C   UNL     1       0.817  35.459  59.788  1.00  0.00     0.027 A 
HETATM   30  C   UNL     1       1.133  34.576  60.847  1.00  0.00     0.045 A 
ENDBRANCH  23  26
ENDBRANCH   3  22
TORSDOF 5
ENDMDL
MODEL 7
REMARK VINA RESULT:      -8.8      4.822      8.469
REMARK  5 active torsions:
REMARK  status: ('A' for Active; 'I' for Inactive)
REMARK    1  A    between atoms: C_6  and  N_7 
REMARK       I    between atoms: N_7  and  C_8 
REMARK       I    between atoms: C_8  and  N_9 
REMARK    2  A    between atoms: N_9  and  C_10 
REMARK    3  A    between atoms: C_10  and  C_11 
REMARK    4  A    between atoms: C_13  and  N_14 
REMARK       I    between atoms: N_14  and  C_15 
REMARK    5  A    between atoms: C_15  and  C_16 
ROOT
HETATM    1  C   UNL     1       5.414  27.621  56.194  1.00  0.00    -0.038 A 
HETATM    2  C   UNL     1       5.656  26.354  55.632  1.00  0.00     0.038 A 
HETATM    3  C   UNL     1       6.739  25.575  56.049  1.00  0.00     0.035 A 
HETATM    4  C   UNL     1       7.573  26.060  57.062  1.00  0.00     0.029 A 
HETATM    5  C   UNL     1       7.340  27.313  57.634  1.00  0.00     0.003 A 
HETATM    6  C   UNL     1       6.269  28.091  57.200  1.00  0.00     0.009 A 
ENDROOT
BRANCH   1   7
HETATM    7  C   UNL     1       4.219  28.437  55.771  1.00  0.00     0.163 C 
BRANCH   7   8
HETATM    8  N   UNL     1       4.179  28.677  54.345  1.00  0.00    -0.339 N 
HETATM    9  C   UNL     1       4.193  29.960  53.894  1.00  0.00     0.320 C 
HETATM   10  N   UNL     1       3.986  30.168  52.565  1.00  0.00    -0.309 N 
HETATM   11  O   UNL     1       4.317  30.930  54.639  1.00  0.00    -0.247 OA
HETATM   12  H   UNL     1       3.798  31.146  52.384  1.00  0.00     0.170 HD
HETATM   13  H   UNL     1       3.578  28.067  53.810  1.00  0.00     0.164 HD
BRANCH  10  14
HETATM   14  C   UNL     1       4.031  29.322  51.443  1.00  0.00     0.037 A 
HETATM   15  C   UNL     1       2.940  29.032  50.626  1.00  0.00     0.049 A 
HETATM   16  C   UNL     1       3.078  28.155  49.540  1.00  0.00     0.019 A 
HETATM   17  C   UNL     1       4.310  27.548  49.254  1.00  0.00    -0.044 A 
HETATM   18 BR   UNL     1       1.528  27.809  48.494  1.00  0.00    -0.051 Br
HETATM   19  C   UNL     1       4.498  26.593  48.109  1.00  0.00     0.049 C 
HETATM   20  C   UNL     1       5.394  27.821  50.097  1.00  0.00     0.010 A 
HETATM   21  C   UNL     1       5.253  28.692  51.181  1.00  0.00     0.030 A 
ENDBRANCH  10  14
ENDBRANCH   7   8
ENDBRANCH   1   7
BRANCH   3  22
HETATM   22  N   UNL     1       7.047  24.311  55.515  1.00  0.00    -0.321 N 
HETATM   23  C   UNL     1       7.676  24.011  54.319  1.00  0.00     0.279 C 
HETATM   24  O   UNL     1       8.087  24.832  53.506  1.00  0.00    -0.265 OA
HETATM   25  H   UNL     1       6.816  23.502  56.083  1.00  0.00     0.169 HD
BRANCH  23  26
HETATM   26  C   UNL     1       7.824  22.581  54.113  1.00  0.00     0.142 A 
HETATM   27  O   UNL     1       7.803  21.736  55.194  1.00  0.00    -0.317 OA
HETATM   28  C   UNL     1       7.955  20.473  54.719  1.00  0.00     0.143 A 
HETATM   29  C   UNL     1       8.080  20.484  53.350  1.00  0.00     0.027 A 
HETATM   30  C   UNL     1       7.996  21.841  52.958  1.00  0.00     0.045 A 
ENDBRANCH  23  26
ENDBRANCH   3  22
TORSDOF 5
ENDMDL
MODEL 8
REMARK VINA RESULT:      -8.7      3.658      4.905
REMARK  5 active torsions:
REMARK  status: ('A' for Active; 'I' for Inactive)
REMARK    1  A    between atoms: C_6  and  N_7 
REMARK       I    between atoms: N_7  and  C_8 
REMARK       I    between atoms: C_8  and  N_9 
REMARK    2  A    between atoms: N_9  and  C_10 
REMARK    3  A    between atoms: C_10  and  C_11 
REMARK    4  A    between atoms: C_13  and  N_14 
REMARK       I    between atoms: N_14  and  C_15 
REMARK    5  A    between atoms: C_15  and  C_16 
ROOT
HETATM    1  C   UNL     1       8.543  28.580  57.316  1.00  0.00    -0.038 A 
HETATM    2  C   UNL     1       7.986  29.192  58.455  1.00  0.00     0.038 A 
HETATM    3  C   UNL     1       8.597  30.298  59.051  1.00  0.00     0.035 A 
HETATM    4  C   UNL     1       9.765  30.816  58.481  1.00  0.00     0.029 A 
HETATM    5  C   UNL     1      10.325  30.225  57.347  1.00  0.00     0.003 A 
HETATM    6  C   UNL     1       9.719  29.110  56.770  1.00  0.00     0.009 A 
ENDROOT
BRANCH   1   7
HETATM    7  C   UNL     1       7.855  27.415  56.652  1.00  0.00     0.163 C 
BRANCH   7   8
HETATM    8  N   UNL     1       6.747  27.819  55.816  1.00  0.00    -0.339 N 
HETATM    9  C   UNL     1       5.514  27.298  56.061  1.00  0.00     0.320 C 
HETATM   10  N   UNL     1       4.525  27.559  55.164  1.00  0.00    -0.309 N 
HETATM   11  O   UNL     1       5.279  26.556  57.013  1.00  0.00    -0.247 OA
HETATM   12  H   UNL     1       3.731  26.951  55.326  1.00  0.00     0.170 HD
HETATM   13  H   UNL     1       6.950  27.929  54.833  1.00  0.00     0.164 HD
BRANCH  10  14
HETATM   14  C   UNL     1       4.389  28.506  54.134  1.00  0.00     0.037 A 
HETATM   15  C   UNL     1       4.773  28.296  52.810  1.00  0.00     0.049 A 
HETATM   16  C   UNL     1       4.618  29.313  51.856  1.00  0.00     0.019 A 
HETATM   17  C   UNL     1       4.082  30.560  52.209  1.00  0.00    -0.044 A 
HETATM   18 BR   UNL     1       5.186  28.937  50.081  1.00  0.00    -0.051 Br
HETATM   19  C   UNL     1       3.911  31.680  51.221  1.00  0.00     0.049 C 
HETATM   20  C   UNL     1       3.727  30.773  53.547  1.00  0.00     0.010 A 
HETATM   21  C   UNL     1       3.885  29.760  54.497  1.00  0.00     0.030 A 
ENDBRANCH  10  14
ENDBRANCH   7   8
ENDBRANCH   1   7
BRANCH   3  22
HETATM   22  N   UNL     1       8.104  30.942  60.200  1.00  0.00    -0.321 N 
HETATM   23  C   UNL     1       8.500  30.778  61.516  1.00  0.00     0.279 C 
HETATM   24  O   UNL     1       9.384  30.021  61.905  1.00  0.00    -0.265 OA
HETATM   25  H   UNL     1       7.388  31.647  60.062  1.00  0.00     0.169 HD
BRANCH  23  26
HETATM   26  C   UNL     1       7.757  31.628  62.430  1.00  0.00     0.142 A 
HETATM   27  O   UNL     1       6.385  31.599  62.415  1.00  0.00    -0.317 OA
HETATM   28  C   UNL     1       5.956  32.474  63.361  1.00  0.00     0.143 A 
HETATM   29  C   UNL     1       7.024  33.073  63.985  1.00  0.00     0.027 A 
HETATM   30  C   UNL     1       8.185  32.529  63.387  1.00  0.00     0.045 A 
ENDBRANCH  23  26
ENDBRANCH   3  22
TORSDOF 5
ENDMDL
MODEL 9
REMARK VINA RESULT:      -8.3      4.024      9.865
REMARK  5 active torsions:
REMARK  status: ('A' for Active; 'I' for Inactive)
REMARK    1  A    between atoms: C_6  and  N_7 
REMARK       I    between atoms: N_7  and  C_8 
REMARK       I    between atoms: C_8  and  N_9 
REMARK    2  A    between atoms: N_9  and  C_10 
REMARK    3  A    between atoms: C_10  and  C_11 
REMARK    4  A    between atoms: C_13  and  N_14 
REMARK       I    between atoms: N_14  and  C_15 
REMARK    5  A    between atoms: C_15  and  C_16 
ROOT
HETATM    1  C   UNL     1       6.459  30.733  57.910  1.00  0.00    -0.038 A 
HETATM    2  C   UNL     1       6.486  29.474  57.280  1.00  0.00     0.038 A 
HETATM    3  C   UNL     1       7.645  28.692  57.281  1.00  0.00     0.035 A 
HETATM    4  C   UNL     1       8.781  29.166  57.946  1.00  0.00     0.029 A 
HETATM    5  C   UNL     1       8.766  30.408  58.582  1.00  0.00     0.003 A 
HETATM    6  C   UNL     1       7.613  31.190  58.561  1.00  0.00     0.009 A 
ENDROOT
BRANCH   1   7
HETATM    7  C   UNL     1       5.194  31.551  57.943  1.00  0.00     0.163 C 
BRANCH   7   8
HETATM    8  N   UNL     1       4.801  31.924  59.285  1.00  0.00    -0.339 N 
HETATM    9  C   UNL     1       3.606  31.486  59.765  1.00  0.00     0.320 C 
HETATM   10  N   UNL     1       3.182  31.983  60.959  1.00  0.00    -0.309 N 
HETATM   11  O   UNL     1       2.874  30.721  59.141  1.00  0.00    -0.247 OA
HETATM   12  H   UNL     1       2.204  31.765  61.106  1.00  0.00     0.170 HD
HETATM   13  H   UNL     1       5.029  32.866  59.568  1.00  0.00     0.164 HD
BRANCH  10  14
HETATM   14  C   UNL     1       3.833  32.669  61.999  1.00  0.00     0.037 A 
HETATM   15  C   UNL     1       5.168  32.486  62.355  1.00  0.00     0.049 A 
HETATM   16  C   UNL     1       5.724  33.202  63.425  1.00  0.00     0.019 A 
HETATM   17  C   UNL     1       4.951  34.110  64.165  1.00  0.00    -0.044 A 
HETATM   18 BR   UNL     1       7.549  32.871  63.844  1.00  0.00    -0.051 Br
HETATM   19  C   UNL     1       5.503  34.887  65.328  1.00  0.00     0.049 C 
HETATM   20  C   UNL     1       3.603  34.265  63.821  1.00  0.00     0.010 A 
HETATM   21  C   UNL     1       3.050  33.548  62.756  1.00  0.00     0.030 A 
ENDBRANCH  10  14
ENDBRANCH   7   8
ENDBRANCH   1   7
BRANCH   3  22
HETATM   22  N   UNL     1       7.744  27.437  56.655  1.00  0.00    -0.321 N 
HETATM   23  C   UNL     1       7.860  26.189  57.242  1.00  0.00     0.279 C 
HETATM   24  O   UNL     1       7.888  25.969  58.449  1.00  0.00    -0.265 OA
HETATM   25  H   UNL     1       7.693  27.422  55.642  1.00  0.00     0.169 HD
BRANCH  23  26
HETATM   26  C   UNL     1       7.934  25.119  56.262  1.00  0.00     0.142 A 
HETATM   27  O   UNL     1       8.656  23.988  56.549  1.00  0.00    -0.317 OA
HETATM   28  C   UNL     1       8.551  23.163  55.476  1.00  0.00     0.143 A 
HETATM   29  C   UNL     1       7.779  23.740  54.496  1.00  0.00     0.027 A 
HETATM   30  C   UNL     1       7.380  25.001  55.001  1.00  0.00     0.045 A 
ENDBRANCH  23  26
ENDBRANCH   3  22
TORSDOF 5
ENDMDL
MODEL 10
REMARK VINA RESULT:      -8.2      3.593      5.158
REMARK  5 active torsions:
REMARK  status: ('A' for Active; 'I' for Inactive)
REMARK    1  A    between atoms: C_6  and  N_7 
REMARK       I    between atoms: N_7  and  C_8 
REMARK       I    between atoms: C_8  and  N_9 
REMARK    2  A    between atoms: N_9  and  C_10 
REMARK    3  A    between atoms: C_10  and  C_11 
REMARK    4  A    between atoms: C_13  and  N_14 
REMARK       I    between atoms: N_14  and  C_15 
REMARK    5  A    between atoms: C_15  and  C_16 
ROOT
HETATM    1  C   UNL     1       7.003  31.184  58.861  1.00  0.00    -0.038 A 
HETATM    2  C   UNL     1       7.060  31.515  60.227  1.00  0.00     0.038 A 
HETATM    3  C   UNL     1       6.218  32.490  60.769  1.00  0.00     0.035 A 
HETATM    4  C   UNL     1       5.288  33.121  59.936  1.00  0.00     0.029 A 
HETATM    5  C   UNL     1       5.215  32.798  58.580  1.00  0.00     0.003 A 
HETATM    6  C   UNL     1       6.070  31.837  58.044  1.00  0.00     0.009 A 
ENDROOT
BRANCH   1   7
HETATM    7  C   UNL     1       7.882  30.100  58.291  1.00  0.00     0.163 C 
BRANCH   7   8
HETATM    8  N   UNL     1       7.205  29.288  57.305  1.00  0.00    -0.339 N 
HETATM    9  C   UNL     1       7.267  27.933  57.415  1.00  0.00     0.320 C 
HETATM   10  N   UNL     1       6.768  27.190  56.390  1.00  0.00    -0.309 N 
HETATM   11  O   UNL     1       7.807  27.363  58.361  1.00  0.00    -0.247 OA
HETATM   12  H   UNL     1       7.064  26.225  56.476  1.00  0.00     0.170 HD
HETATM   13  H   UNL     1       7.251  29.618  56.352  1.00  0.00     0.164 HD
BRANCH  10  14
HETATM   14  C   UNL     1       5.920  27.490  55.311  1.00  0.00     0.037 A 
HETATM   15  C   UNL     1       6.097  27.022  54.009  1.00  0.00     0.049 A 
HETATM   16  C   UNL     1       5.207  27.397  52.992  1.00  0.00     0.019 A 
HETATM   17  C   UNL     1       4.127  28.252  53.255  1.00  0.00    -0.044 A 
HETATM   18 BR   UNL     1       5.542  26.721  51.246  1.00  0.00    -0.051 Br
HETATM   19  C   UNL     1       3.159  28.689  52.192  1.00  0.00     0.049 C 
HETATM   20  C   UNL     1       3.973  28.742  54.558  1.00  0.00     0.010 A 
HETATM   21  C   UNL     1       4.863  28.371  55.570  1.00  0.00     0.030 A 
ENDBRANCH  10  14
ENDBRANCH   7   8
ENDBRANCH   1   7
BRANCH   3  22
HETATM   22  N   UNL     1       6.238  32.881  62.120  1.00  0.00    -0.321 N 
HETATM   23  C   UNL     1       5.476  32.393  63.168  1.00  0.00     0.279 C 
HETATM   24  O   UNL     1       4.636  31.504  63.085  1.00  0.00    -0.265 OA
HETATM   25  H   UNL     1       6.916  33.587  62.386  1.00  0.00     0.169 HD
BRANCH  23  26
HETATM   26  C   UNL     1       5.785  33.046  64.429  1.00  0.00     0.142 A 
HETATM   27  O   UNL     1       4.773  33.313  65.317  1.00  0.00    -0.317 OA
HETATM   28  C   UNL     1       5.337  33.912  66.397  1.00  0.00     0.143 A 
HETATM   29  C   UNL     1       6.694  34.044  66.224  1.00  0.00     0.027 A 
HETATM   30  C   UNL     1       6.985  33.485  64.956  1.00  0.00     0.045 A 
ENDBRANCH  23  26
ENDBRANCH   3  22
TORSDOF 5
ENDMDL
