MODEL 1
REMARK VINA RESULT:      -8.4      0.000      0.000
REMARK  8 active torsions:
REMARK  status: ('A' for Active; 'I' for Inactive)
REMARK    1  A    between atoms: C_2  and  C_3 
REMARK    2  A    between atoms: C_3  and  O_4 
REMARK    3  A    between atoms: O_4  and  C_5 
REMARK    4  A    between atoms: C_6  and  O_7 
REMARK    5  A    between atoms: C_10  and  C_11 
REMARK    6  A    between atoms: C_11  and  N_12 
REMARK    7  A    between atoms: N_12  and  C_13 
REMARK    8  A    between atoms: C_20  and  C_21 
REMARK       I    between atoms: C_21  and  N_22 
ROOT
HETATM    1  C   UNL     1       7.979  29.015  56.656  1.00  0.00     0.009 A 
HETATM    2  C   UNL     1       7.607  29.760  57.791  1.00  0.00     0.039 A 
HETATM    3  C   UNL     1       8.507  30.674  58.377  1.00  0.00     0.030 A 
HETATM    4  C   UNL     1       9.778  30.797  57.835  1.00  0.00     0.063 A 
HETATM    5  N   UNL     1      10.413  31.728  58.606  1.00  0.00    -0.277 N 
HETATM    6  H   UNL     1      11.364  32.064  58.503  1.00  0.00     0.189 HD
HETATM    7  N   UNL     1       9.664  32.230  59.603  1.00  0.00    -0.168 NA
HETATM    8  C   UNL     1       8.483  31.584  59.474  1.00  0.00     0.156 A 
HETATM    9  C   UNL     1      10.207  30.052  56.736  1.00  0.00     0.034 A 
HETATM   10  C   UNL     1       9.286  29.155  56.172  1.00  0.00     0.026 A 
ENDROOT
BRANCH   1  11
HETATM   11  N   UNL     1       7.074  28.069  56.162  1.00  0.00    -0.289 NA
HETATM   12  H   UNL     1       7.265  27.825  55.193  1.00  0.00     0.128 HD
BRANCH  11  13
HETATM   13  C   UNL     1       6.732  26.906  56.967  1.00  0.00     0.131 C 
BRANCH  13  14
HETATM   14  C   UNL     1       7.412  25.683  56.395  1.00  0.00    -0.042 A 
HETATM   15  C   UNL     1       7.433  25.447  55.013  1.00  0.00     0.048 A 
HETATM   16  C   UNL     1       8.080  24.319  54.491  1.00  0.00     0.102 A 
HETATM   17  C   UNL     1       8.739  23.423  55.354  1.00  0.00     0.102 A 
HETATM   18  C   UNL     1       8.696  23.645  56.733  1.00  0.00     0.040 A 
HETATM   19  C   UNL     1       8.035  24.762  57.248  1.00  0.00     0.011 A 
BRANCH  16  20
HETATM   20  O   UNL     1       8.160  24.049  53.146  1.00  0.00    -0.353 OA
HETATM   21  C   UNL     1       7.718  25.081  52.273  1.00  0.00     0.210 C 
ENDBRANCH  16  20
BRANCH  17  22
HETATM   22  O   UNL     1       9.368  22.360  54.757  1.00  0.00    -0.348 OA
BRANCH  22  23
HETATM   23  C   UNL     1       9.067  21.055  55.247  1.00  0.00     0.175 C 
BRANCH  23  24
HETATM   24  C   UNL     1       7.958  20.473  54.374  1.00  0.00     0.022 C 
HETATM   25  C   UNL     1       8.306  20.545  52.898  1.00  0.00     0.007 C 
ENDBRANCH  23  24
ENDBRANCH  22  23
ENDBRANCH  17  22
ENDBRANCH  13  14
ENDBRANCH  11  13
ENDBRANCH   1  11
BRANCH   8  26
HETATM   26  C   UNL     1       7.363  31.848  60.390  1.00  0.00     0.270 C 
HETATM   27  N   UNL     1       7.337  31.033  61.489  1.00  0.00    -0.365 N 
HETATM   28  H   UNL     1       8.062  30.333  61.591  1.00  0.00     0.159 HD
HETATM   29  H   UNL     1       6.607  31.140  62.175  1.00  0.00     0.159 HD
HETATM   30  O   UNL     1       6.512  32.715  60.218  1.00  0.00    -0.266 OA
ENDBRANCH   8  26
TORSDOF 8
ENDMDL
MODEL 2
REMARK VINA RESULT:      -8.2      3.105      9.057
REMARK  8 active torsions:
REMARK  status: ('A' for Active; 'I' for Inactive)
REMARK    1  A    between atoms: C_2  and  C_3 
REMARK    2  A    between atoms: C_3  and  O_4 
REMARK    3  A    between atoms: O_4  and  C_5 
REMARK    4  A    between atoms: C_6  and  O_7 
REMARK    5  A    between atoms: C_10  and  C_11 
REMARK    6  A    between atoms: C_11  and  N_12 
REMARK    7  A    between atoms: N_12  and  C_13 
REMARK    8  A    between atoms: C_20  and  C_21 
REMARK       I    between atoms: C_21  and  N_22 
ROOT
HETATM    1  C   UNL     1       7.443  25.346  55.526  1.00  0.00     0.009 A 
HETATM    2  C   UNL     1       7.752  24.019  55.874  1.00  0.00     0.039 A 
HETATM    3  C   UNL     1       7.792  23.009  54.889  1.00  0.00     0.030 A 
HETATM    4  C   UNL     1       7.483  23.345  53.579  1.00  0.00     0.063 A 
HETATM    5  N   UNL     1       7.592  22.182  52.871  1.00  0.00    -0.277 N 
HETATM    6  H   UNL     1       7.431  22.051  51.879  1.00  0.00     0.189 HD
HETATM    7  N   UNL     1       7.950  21.114  53.605  1.00  0.00    -0.168 NA
HETATM    8  C   UNL     1       8.074  21.612  54.856  1.00  0.00     0.156 A 
HETATM    9  C   UNL     1       7.133  24.639  53.192  1.00  0.00     0.034 A 
HETATM   10  C   UNL     1       7.108  25.622  54.194  1.00  0.00     0.026 A 
ENDROOT
BRANCH   1  11
HETATM   11  N   UNL     1       7.345  26.292  56.554  1.00  0.00    -0.289 NA
HETATM   12  H   UNL     1       8.257  26.626  56.855  1.00  0.00     0.128 HD
BRANCH  11  13
HETATM   13  C   UNL     1       6.366  27.364  56.459  1.00  0.00     0.131 C 
BRANCH  13  14
HETATM   14  C   UNL     1       6.905  28.597  57.149  1.00  0.00    -0.042 A 
HETATM   15  C   UNL     1       8.273  28.726  57.434  1.00  0.00     0.048 A 
HETATM   16  C   UNL     1       8.765  29.879  58.060  1.00  0.00     0.102 A 
HETATM   17  C   UNL     1       7.890  30.933  58.384  1.00  0.00     0.102 A 
HETATM   18  C   UNL     1       6.524  30.793  58.122  1.00  0.00     0.040 A 
HETATM   19  C   UNL     1       6.037  29.634  57.514  1.00  0.00     0.011 A 
BRANCH  16  20
HETATM   20  O   UNL     1      10.096  30.077  58.339  1.00  0.00    -0.353 OA
HETATM   21  C   UNL     1      10.951  30.255  57.218  1.00  0.00     0.210 C 
ENDBRANCH  16  20
BRANCH  17  22
HETATM   22  O   UNL     1       8.460  32.035  58.970  1.00  0.00    -0.348 OA
BRANCH  22  23
HETATM   23  C   UNL     1       8.162  32.280  60.343  1.00  0.00     0.175 C 
BRANCH  23  24
HETATM   24  C   UNL     1       9.414  31.961  61.156  1.00  0.00     0.022 C 
HETATM   25  C   UNL     1       9.331  30.591  61.805  1.00  0.00     0.007 C 
ENDBRANCH  23  24
ENDBRANCH  22  23
ENDBRANCH  17  22
ENDBRANCH  13  14
ENDBRANCH  11  13
ENDBRANCH   1  11
BRANCH   8  26
HETATM   26  C   UNL     1       8.461  20.753  55.985  1.00  0.00     0.270 C 
HETATM   27  N   UNL     1       9.040  19.570  55.614  1.00  0.00    -0.365 N 
HETATM   28  H   UNL     1       9.158  19.377  54.627  1.00  0.00     0.159 HD
HETATM   29  H   UNL     1       9.340  18.916  56.319  1.00  0.00     0.159 HD
HETATM   30  O   UNL     1       8.297  21.040  57.167  1.00  0.00    -0.266 OA
ENDBRANCH   8  26
TORSDOF 8
ENDMDL
MODEL 3
REMARK VINA RESULT:      -8.1      3.127      8.979
REMARK  8 active torsions:
REMARK  status: ('A' for Active; 'I' for Inactive)
REMARK    1  A    between atoms: C_2  and  C_3 
REMARK    2  A    between atoms: C_3  and  O_4 
REMARK    3  A    between atoms: O_4  and  C_5 
REMARK    4  A    between atoms: C_6  and  O_7 
REMARK    5  A    between atoms: C_10  and  C_11 
REMARK    6  A    between atoms: C_11  and  N_12 
REMARK    7  A    between atoms: N_12  and  C_13 
REMARK    8  A    between atoms: C_20  and  C_21 
REMARK       I    between atoms: C_21  and  N_22 
ROOT
HETATM    1  C   UNL     1       7.647  25.275  54.395  1.00  0.00     0.009 A 
HETATM    2  C   UNL     1       7.967  24.127  55.142  1.00  0.00     0.039 A 
HETATM    3  C   UNL     1       8.060  22.866  54.516  1.00  0.00     0.030 A 
HETATM    4  C   UNL     1       7.793  22.775  53.158  1.00  0.00     0.063 A 
HETATM    5  N   UNL     1       7.947  21.455  52.845  1.00  0.00    -0.277 N 
HETATM    6  H   UNL     1       7.824  21.022  51.937  1.00  0.00     0.189 HD
HETATM    7  N   UNL     1       8.298  20.674  53.881  1.00  0.00    -0.168 NA
HETATM    8  C   UNL     1       8.369  21.534  54.923  1.00  0.00     0.156 A 
HETATM    9  C   UNL     1       7.433  23.878  52.383  1.00  0.00     0.034 A 
HETATM   10  C   UNL     1       7.355  25.120  53.033  1.00  0.00     0.026 A 
ENDROOT
BRANCH   1  11
HETATM   11  N   UNL     1       7.495  26.486  55.080  1.00  0.00    -0.289 NA
HETATM   12  H   UNL     1       6.815  27.096  54.632  1.00  0.00     0.128 HD
BRANCH  11  13
HETATM   13  C   UNL     1       7.369  26.487  56.529  1.00  0.00     0.131 C 
BRANCH  13  14
HETATM   14  C   UNL     1       7.677  27.869  57.059  1.00  0.00    -0.042 A 
HETATM   15  C   UNL     1       6.649  28.739  57.450  1.00  0.00     0.048 A 
HETATM   16  C   UNL     1       6.945  30.013  57.955  1.00  0.00     0.102 A 
HETATM   17  C   UNL     1       8.285  30.419  58.097  1.00  0.00     0.102 A 
HETATM   18  C   UNL     1       9.308  29.562  57.684  1.00  0.00     0.040 A 
HETATM   19  C   UNL     1       9.006  28.300  57.166  1.00  0.00     0.011 A 
BRANCH  16  20
HETATM   20  O   UNL     1       5.984  30.898  58.381  1.00  0.00    -0.353 OA
HETATM   21  C   UNL     1       4.699  30.760  57.790  1.00  0.00     0.210 C 
ENDBRANCH  16  20
BRANCH  17  22
HETATM   22  O   UNL     1       8.485  31.671  58.624  1.00  0.00    -0.348 OA
BRANCH  22  23
HETATM   23  C   UNL     1       9.553  31.831  59.556  1.00  0.00     0.175 C 
BRANCH  23  24
HETATM   24  C   UNL     1       8.960  31.768  60.961  1.00  0.00     0.022 C 
HETATM   25  C   UNL     1       9.417  30.529  61.711  1.00  0.00     0.007 C 
ENDBRANCH  23  24
ENDBRANCH  22  23
ENDBRANCH  17  22
ENDBRANCH  13  14
ENDBRANCH  11  13
ENDBRANCH   1  11
BRANCH   8  26
HETATM   26  C   UNL     1       8.730  21.074  56.271  1.00  0.00     0.270 C 
HETATM   27  N   UNL     1       9.618  20.033  56.287  1.00  0.00    -0.365 N 
HETATM   28  H   UNL     1       9.952  19.667  55.403  1.00  0.00     0.159 HD
HETATM   29  H   UNL     1       9.926  19.650  57.166  1.00  0.00     0.159 HD
HETATM   30  O   UNL     1       8.296  21.557  57.312  1.00  0.00    -0.266 OA
ENDBRANCH   8  26
TORSDOF 8
ENDMDL
MODEL 4
REMARK VINA RESULT:      -8.1      2.273      3.383
REMARK  8 active torsions:
REMARK  status: ('A' for Active; 'I' for Inactive)
REMARK    1  A    between atoms: C_2  and  C_3 
REMARK    2  A    between atoms: C_3  and  O_4 
REMARK    3  A    between atoms: O_4  and  C_5 
REMARK    4  A    between atoms: C_6  and  O_7 
REMARK    5  A    between atoms: C_10  and  C_11 
REMARK    6  A    between atoms: C_11  and  N_12 
REMARK    7  A    between atoms: N_12  and  C_13 
REMARK    8  A    between atoms: C_20  and  C_21 
REMARK       I    between atoms: C_21  and  N_22 
ROOT
HETATM    1  C   UNL     1       4.990  28.025  56.006  1.00  0.00     0.009 A 
HETATM    2  C   UNL     1       6.009  28.445  56.880  1.00  0.00     0.039 A 
HETATM    3  C   UNL     1       6.086  29.790  57.299  1.00  0.00     0.030 A 
HETATM    4  C   UNL     1       5.159  30.695  56.804  1.00  0.00     0.063 A 
HETATM    5  N   UNL     1       5.487  31.895  57.367  1.00  0.00    -0.277 N 
HETATM    6  H   UNL     1       5.025  32.787  57.225  1.00  0.00     0.189 HD
HETATM    7  N   UNL     1       6.546  31.852  58.194  1.00  0.00    -0.168 NA
HETATM    8  C   UNL     1       6.928  30.555  58.159  1.00  0.00     0.156 A 
HETATM    9  C   UNL     1       4.155  30.335  55.905  1.00  0.00     0.034 A 
HETATM   10  C   UNL     1       4.102  28.988  55.511  1.00  0.00     0.026 A 
ENDROOT
BRANCH   1  11
HETATM   11  N   UNL     1       5.007  26.696  55.564  1.00  0.00    -0.289 NA
HETATM   12  H   UNL     1       4.206  26.169  55.904  1.00  0.00     0.128 HD
BRANCH  11  13
HETATM   13  C   UNL     1       5.312  26.401  54.172  1.00  0.00     0.131 C 
BRANCH  13  14
HETATM   14  C   UNL     1       6.334  25.289  54.108  1.00  0.00    -0.042 A 
HETATM   15  C   UNL     1       7.284  25.120  55.126  1.00  0.00     0.048 A 
HETATM   16  C   UNL     1       8.217  24.076  55.066  1.00  0.00     0.102 A 
HETATM   17  C   UNL     1       8.189  23.168  53.990  1.00  0.00     0.102 A 
HETATM   18  C   UNL     1       7.259  23.352  52.964  1.00  0.00     0.040 A 
HETATM   19  C   UNL     1       6.342  24.405  53.021  1.00  0.00     0.011 A 
BRANCH  16  20
HETATM   20  O   UNL     1       9.152  23.841  56.045  1.00  0.00    -0.353 OA
HETATM   21  C   UNL     1       8.758  24.156  57.374  1.00  0.00     0.210 C 
ENDBRANCH  16  20
BRANCH  17  22
HETATM   22  O   UNL     1       9.121  22.161  54.024  1.00  0.00    -0.348 OA
BRANCH  22  23
HETATM   23  C   UNL     1       8.653  20.825  53.851  1.00  0.00     0.175 C 
BRANCH  23  24
HETATM   24  C   UNL     1       8.024  20.376  55.167  1.00  0.00     0.022 C 
HETATM   25  C   UNL     1       9.024  20.404  56.309  1.00  0.00     0.007 C 
ENDBRANCH  23  24
ENDBRANCH  22  23
ENDBRANCH  17  22
ENDBRANCH  13  14
ENDBRANCH  11  13
ENDBRANCH   1  11
BRANCH   8  26
HETATM   26  C   UNL     1       8.076  30.075  58.942  1.00  0.00     0.270 C 
HETATM   27  N   UNL     1       8.022  30.402  60.270  1.00  0.00    -0.365 N 
HETATM   28  H   UNL     1       7.226  30.931  60.606  1.00  0.00     0.159 HD
HETATM   29  H   UNL     1       8.764  30.115  60.887  1.00  0.00     0.159 HD
HETATM   30  O   UNL     1       9.014  29.433  58.481  1.00  0.00    -0.266 OA
ENDBRANCH   8  26
TORSDOF 8
ENDMDL
MODEL 5
REMARK VINA RESULT:      -8.0      0.926      2.029
REMARK  8 active torsions:
REMARK  status: ('A' for Active; 'I' for Inactive)
REMARK    1  A    between atoms: C_2  and  C_3 
REMARK    2  A    between atoms: C_3  and  O_4 
REMARK    3  A    between atoms: O_4  and  C_5 
REMARK    4  A    between atoms: C_6  and  O_7 
REMARK    5  A    between atoms: C_10  and  C_11 
REMARK    6  A    between atoms: C_11  and  N_12 
REMARK    7  A    between atoms: N_12  and  C_13 
REMARK    8  A    between atoms: C_20  and  C_21 
REMARK       I    between atoms: C_21  and  N_22 
ROOT
HETATM    1  C   UNL     1       7.692  28.985  56.830  1.00  0.00     0.009 A 
HETATM    2  C   UNL     1       7.220  29.844  57.839  1.00  0.00     0.039 A 
HETATM    3  C   UNL     1       8.084  30.779  58.448  1.00  0.00     0.030 A 
HETATM    4  C   UNL     1       9.415  30.807  58.058  1.00  0.00     0.063 A 
HETATM    5  N   UNL     1       9.994  31.785  58.815  1.00  0.00    -0.277 N 
HETATM    6  H   UNL     1      10.965  32.078  58.800  1.00  0.00     0.189 HD
HETATM    7  N   UNL     1       9.155  32.403  59.664  1.00  0.00    -0.168 NA
HETATM    8  C   UNL     1       7.970  31.788  59.449  1.00  0.00     0.156 A 
HETATM    9  C   UNL     1       9.938  29.949  57.091  1.00  0.00     0.034 A 
HETATM   10  C   UNL     1       9.052  29.035  56.500  1.00  0.00     0.026 A 
ENDROOT
BRANCH   1  11
HETATM   11  N   UNL     1       6.810  28.027  56.315  1.00  0.00    -0.289 NA
HETATM   12  H   UNL     1       5.908  28.044  56.785  1.00  0.00     0.128 HD
BRANCH  11  13
HETATM   13  C   UNL     1       6.680  27.865  54.874  1.00  0.00     0.131 C 
BRANCH  13  14
HETATM   14  C   UNL     1       7.238  26.520  54.469  1.00  0.00    -0.042 A 
HETATM   15  C   UNL     1       7.642  25.585  55.432  1.00  0.00     0.048 A 
HETATM   16  C   UNL     1       8.144  24.334  55.046  1.00  0.00     0.102 A 
HETATM   17  C   UNL     1       8.221  23.997  53.682  1.00  0.00     0.102 A 
HETATM   18  C   UNL     1       7.842  24.939  52.722  1.00  0.00     0.040 A 
HETATM   19  C   UNL     1       7.358  26.190  53.112  1.00  0.00     0.011 A 
BRANCH  16  20
HETATM   20  O   UNL     1       8.528  23.366  55.942  1.00  0.00    -0.353 OA
HETATM   21  C   UNL     1       8.508  23.739  57.314  1.00  0.00     0.210 C 
ENDBRANCH  16  20
BRANCH  17  22
HETATM   22  O   UNL     1       8.699  22.743  53.394  1.00  0.00    -0.348 OA
BRANCH  22  23
HETATM   23  C   UNL     1       7.773  21.787  52.881  1.00  0.00     0.175 C 
BRANCH  23  24
HETATM   24  C   UNL     1       8.337  20.396  53.160  1.00  0.00     0.022 C 
HETATM   25  C   UNL     1       8.492  20.138  54.648  1.00  0.00     0.007 C 
ENDBRANCH  23  24
ENDBRANCH  22  23
ENDBRANCH  17  22
ENDBRANCH  13  14
ENDBRANCH  11  13
ENDBRANCH   1  11
BRANCH   8  26
HETATM   26  C   UNL     1       6.762  32.174  60.193  1.00  0.00     0.270 C 
HETATM   27  N   UNL     1       6.692  31.649  61.455  1.00  0.00    -0.365 N 
HETATM   28  H   UNL     1       7.448  31.056  61.775  1.00  0.00     0.159 HD
HETATM   29  H   UNL     1       5.901  31.859  62.042  1.00  0.00     0.159 HD
HETATM   30  O   UNL     1       5.877  32.902  59.756  1.00  0.00    -0.266 OA
ENDBRANCH   8  26
TORSDOF 8
ENDMDL
MODEL 6
REMARK VINA RESULT:      -7.8      4.516      9.938
REMARK  8 active torsions:
REMARK  status: ('A' for Active; 'I' for Inactive)
REMARK    1  A    between atoms: C_2  and  C_3 
REMARK    2  A    between atoms: C_3  and  O_4 
REMARK    3  A    between atoms: O_4  and  C_5 
REMARK    4  A    between atoms: C_6  and  O_7 
REMARK    5  A    between atoms: C_10  and  C_11 
REMARK    6  A    between atoms: C_11  and  N_12 
REMARK    7  A    between atoms: N_12  and  C_13 
REMARK    8  A    between atoms: C_20  and  C_21 
REMARK       I    between atoms: C_21  and  N_22 
ROOT
HETATM    1  C   UNL     1       8.414  29.728  58.635  1.00  0.00     0.009 A 
HETATM    2  C   UNL     1       7.207  29.309  58.046  1.00  0.00     0.039 A 
HETATM    3  C   UNL     1       7.156  28.969  56.678  1.00  0.00     0.030 A 
HETATM    4  C   UNL     1       8.310  29.092  55.918  1.00  0.00     0.063 A 
HETATM    5  N   UNL     1       7.955  28.711  54.655  1.00  0.00    -0.277 N 
HETATM    6  H   UNL     1       8.549  28.682  53.834  1.00  0.00     0.189 HD
HETATM    7  N   UNL     1       6.668  28.344  54.524  1.00  0.00    -0.168 NA
HETATM    8  C   UNL     1       6.162  28.502  55.768  1.00  0.00     0.156 A 
HETATM    9  C   UNL     1       9.521  29.540  56.447  1.00  0.00     0.034 A 
HETATM   10  C   UNL     1       9.541  29.865  57.813  1.00  0.00     0.026 A 
ENDROOT
BRANCH   1  11
HETATM   11  N   UNL     1       8.391  30.124  59.977  1.00  0.00    -0.289 NA
HETATM   12  H   UNL     1       8.935  29.502  60.570  1.00  0.00     0.128 HD
BRANCH  11  13
HETATM   13  C   UNL     1       8.584  31.525  60.321  1.00  0.00     0.131 C 
BRANCH  13  14
HETATM   14  C   UNL     1       7.636  31.903  61.436  1.00  0.00    -0.042 A 
HETATM   15  C   UNL     1       6.255  32.004  61.208  1.00  0.00     0.048 A 
HETATM   16  C   UNL     1       5.382  32.339  62.252  1.00  0.00     0.102 A 
HETATM   17  C   UNL     1       5.885  32.551  63.549  1.00  0.00     0.102 A 
HETATM   18  C   UNL     1       7.262  32.475  63.771  1.00  0.00     0.040 A 
HETATM   19  C   UNL     1       8.130  32.157  62.722  1.00  0.00     0.011 A 
BRANCH  16  20
HETATM   20  O   UNL     1       4.020  32.426  62.098  1.00  0.00    -0.353 OA
HETATM   21  C   UNL     1       3.517  32.133  60.801  1.00  0.00     0.210 C 
ENDBRANCH  16  20
BRANCH  17  22
HETATM   22  O   UNL     1       4.958  32.849  64.517  1.00  0.00    -0.348 OA
BRANCH  22  23
HETATM   23  C   UNL     1       5.309  33.835  65.486  1.00  0.00     0.175 C 
BRANCH  23  24
HETATM   24  C   UNL     1       4.020  34.489  65.974  1.00  0.00     0.022 C 
HETATM   25  C   UNL     1       4.258  35.905  66.468  1.00  0.00     0.007 C 
ENDBRANCH  23  24
ENDBRANCH  22  23
ENDBRANCH  17  22
ENDBRANCH  13  14
ENDBRANCH  11  13
ENDBRANCH   1  11
BRANCH   8  26
HETATM   26  C   UNL     1       4.753  28.203  56.063  1.00  0.00     0.270 C 
HETATM   27  N   UNL     1       4.549  26.969  56.620  1.00  0.00    -0.365 N 
HETATM   28  H   UNL     1       5.351  26.373  56.784  1.00  0.00     0.159 HD
HETATM   29  H   UNL     1       3.616  26.675  56.859  1.00  0.00     0.159 HD
HETATM   30  O   UNL     1       3.818  28.967  55.847  1.00  0.00    -0.266 OA
ENDBRANCH   8  26
TORSDOF 8
ENDMDL
MODEL 7
REMARK VINA RESULT:      -7.5      5.353      9.100
REMARK  8 active torsions:
REMARK  status: ('A' for Active; 'I' for Inactive)
REMARK    1  A    between atoms: C_2  and  C_3 
REMARK    2  A    between atoms: C_3  and  O_4 
REMARK    3  A    between atoms: O_4  and  C_5 
REMARK    4  A    between atoms: C_6  and  O_7 
REMARK    5  A    between atoms: C_10  and  C_11 
REMARK    6  A    between atoms: C_11  and  N_12 
REMARK    7  A    between atoms: N_12  and  C_13 
REMARK    8  A    between atoms: C_20  and  C_21 
REMARK       I    between atoms: C_21  and  N_22 
ROOT
HETATM    1  C   UNL     1       6.633  24.995  54.109  1.00  0.00     0.009 A 
HETATM    2  C   UNL     1       7.086  23.664  54.072  1.00  0.00     0.039 A 
HETATM    3  C   UNL     1       7.591  23.044  55.234  1.00  0.00     0.030 A 
HETATM    4  C   UNL     1       7.667  23.786  56.404  1.00  0.00     0.063 A 
HETATM    5  N   UNL     1       8.198  22.940  57.335  1.00  0.00    -0.277 N 
HETATM    6  H   UNL     1       8.401  23.147  58.307  1.00  0.00     0.189 HD
HETATM    7  N   UNL     1       8.471  21.706  56.877  1.00  0.00    -0.168 NA
HETATM    8  C   UNL     1       8.103  21.758  55.576  1.00  0.00     0.156 A 
HETATM    9  C   UNL     1       7.268  25.120  56.481  1.00  0.00     0.034 A 
HETATM   10  C   UNL     1       6.764  25.706  55.309  1.00  0.00     0.026 A 
ENDROOT
BRANCH   1  11
HETATM   11  N   UNL     1       6.212  25.583  52.910  1.00  0.00    -0.289 NA
HETATM   12  H   UNL     1       5.828  24.899  52.263  1.00  0.00     0.128 HD
BRANCH  11  13
HETATM   13  C   UNL     1       5.434  26.812  52.942  1.00  0.00     0.131 C 
BRANCH  13  14
HETATM   14  C   UNL     1       4.868  27.082  51.566  1.00  0.00    -0.042 A 
HETATM   15  C   UNL     1       4.144  28.254  51.299  1.00  0.00     0.048 A 
HETATM   16  C   UNL     1       3.637  28.502  50.016  1.00  0.00     0.102 A 
HETATM   17  C   UNL     1       3.875  27.586  48.976  1.00  0.00     0.102 A 
HETATM   18  C   UNL     1       4.574  26.407  49.248  1.00  0.00     0.040 A 
HETATM   19  C   UNL     1       5.063  26.157  50.533  1.00  0.00     0.011 A 
BRANCH  16  20
HETATM   20  O   UNL     1       2.946  29.643  49.686  1.00  0.00    -0.353 OA
HETATM   21  C   UNL     1       1.630  29.752  50.212  1.00  0.00     0.210 C 
ENDBRANCH  16  20
BRANCH  17  22
HETATM   22  O   UNL     1       3.365  27.920  47.746  1.00  0.00    -0.348 OA
BRANCH  22  23
HETATM   23  C   UNL     1       2.577  26.942  47.071  1.00  0.00     0.175 C 
BRANCH  23  24
HETATM   24  C   UNL     1       1.164  27.003  47.647  1.00  0.00     0.022 C 
HETATM   25  C   UNL     1       0.184  27.632  46.673  1.00  0.00     0.007 C 
ENDBRANCH  23  24
ENDBRANCH  22  23
ENDBRANCH  17  22
ENDBRANCH  13  14
ENDBRANCH  11  13
ENDBRANCH   1  11
BRANCH   8  26
HETATM   26  C   UNL     1       8.241  20.589  54.696  1.00  0.00     0.270 C 
HETATM   27  N   UNL     1       9.067  19.614  55.186  1.00  0.00    -0.365 N 
HETATM   28  H   UNL     1       9.507  19.761  56.087  1.00  0.00     0.159 HD
HETATM   29  H   UNL     1       9.222  18.774  54.654  1.00  0.00     0.159 HD
HETATM   30  O   UNL     1       7.679  20.463  53.612  1.00  0.00    -0.266 OA
ENDBRANCH   8  26
TORSDOF 8
ENDMDL
MODEL 8
REMARK VINA RESULT:      -7.5      2.023      2.702
REMARK  8 active torsions:
REMARK  status: ('A' for Active; 'I' for Inactive)
REMARK    1  A    between atoms: C_2  and  C_3 
REMARK    2  A    between atoms: C_3  and  O_4 
REMARK    3  A    between atoms: O_4  and  C_5 
REMARK    4  A    between atoms: C_6  and  O_7 
REMARK    5  A    between atoms: C_10  and  C_11 
REMARK    6  A    between atoms: C_11  and  N_12 
REMARK    7  A    between atoms: N_12  and  C_13 
REMARK    8  A    between atoms: C_20  and  C_21 
REMARK       I    between atoms: C_21  and  N_22 
ROOT
HETATM    1  C   UNL     1       8.276  30.002  58.038  1.00  0.00     0.009 A 
HETATM    2  C   UNL     1       6.910  30.337  58.071  1.00  0.00     0.039 A 
HETATM    3  C   UNL     1       6.438  31.341  58.942  1.00  0.00     0.030 A 
HETATM    4  C   UNL     1       7.342  31.965  59.790  1.00  0.00     0.063 A 
HETATM    5  N   UNL     1       6.605  32.863  60.508  1.00  0.00    -0.277 N 
HETATM    6  H   UNL     1       6.939  33.492  61.230  1.00  0.00     0.189 HD
HETATM    7  N   UNL     1       5.297  32.885  60.199  1.00  0.00    -0.168 NA
HETATM    8  C   UNL     1       5.180  31.946  59.233  1.00  0.00     0.156 A 
HETATM    9  C   UNL     1       8.698  31.640  59.822  1.00  0.00     0.034 A 
HETATM   10  C   UNL     1       9.138  30.641  58.939  1.00  0.00     0.026 A 
ENDROOT
BRANCH   1  11
HETATM   11  N   UNL     1       8.676  28.947  57.209  1.00  0.00    -0.289 NA
HETATM   12  H   UNL     1       8.795  28.079  57.725  1.00  0.00     0.128 HD
BRANCH  11  13
HETATM   13  C   UNL     1       8.016  28.743  55.928  1.00  0.00     0.131 C 
BRANCH  13  14
HETATM   14  C   UNL     1       7.740  27.270  55.736  1.00  0.00    -0.042 A 
HETATM   15  C   UNL     1       7.346  26.765  54.488  1.00  0.00     0.048 A 
HETATM   16  C   UNL     1       7.106  25.394  54.316  1.00  0.00     0.102 A 
HETATM   17  C   UNL     1       7.287  24.508  55.394  1.00  0.00     0.102 A 
HETATM   18  C   UNL     1       7.655  25.014  56.642  1.00  0.00     0.040 A 
HETATM   19  C   UNL     1       7.876  26.383  56.812  1.00  0.00     0.011 A 
BRANCH  16  20
HETATM   20  O   UNL     1       6.747  24.836  53.113  1.00  0.00    -0.353 OA
HETATM   21  C   UNL     1       7.644  25.049  52.031  1.00  0.00     0.210 C 
ENDBRANCH  16  20
BRANCH  17  22
HETATM   22  O   UNL     1       7.057  23.180  55.130  1.00  0.00    -0.348 OA
BRANCH  22  23
HETATM   23  C   UNL     1       8.164  22.287  55.230  1.00  0.00     0.175 C 
BRANCH  23  24
HETATM   24  C   UNL     1       8.614  21.941  53.813  1.00  0.00     0.022 C 
HETATM   25  C   UNL     1       7.915  20.701  53.286  1.00  0.00     0.007 C 
ENDBRANCH  23  24
ENDBRANCH  22  23
ENDBRANCH  17  22
ENDBRANCH  13  14
ENDBRANCH  11  13
ENDBRANCH   1  11
BRANCH   8  26
HETATM   26  C   UNL     1       3.883  31.649  58.609  1.00  0.00     0.270 C 
HETATM   27  N   UNL     1       3.370  30.425  58.942  1.00  0.00    -0.365 N 
HETATM   28  H   UNL     1       3.899  29.833  59.571  1.00  0.00     0.159 HD
HETATM   29  H   UNL     1       2.483  30.133  58.564  1.00  0.00     0.159 HD
HETATM   30  O   UNL     1       3.282  32.408  57.854  1.00  0.00    -0.266 OA
ENDBRANCH   8  26
TORSDOF 8
ENDMDL
MODEL 9
REMARK VINA RESULT:      -7.4      5.362      8.486
REMARK  8 active torsions:
REMARK  status: ('A' for Active; 'I' for Inactive)
REMARK    1  A    between atoms: C_2  and  C_3 
REMARK    2  A    between atoms: C_3  and  O_4 
REMARK    3  A    between atoms: O_4  and  C_5 
REMARK    4  A    between atoms: C_6  and  O_7 
REMARK    5  A    between atoms: C_10  and  C_11 
REMARK    6  A    between atoms: C_11  and  N_12 
REMARK    7  A    between atoms: N_12  and  C_13 
REMARK    8  A    between atoms: C_20  and  C_21 
REMARK       I    between atoms: C_21  and  N_22 
ROOT
HETATM    1  C   UNL     1       7.492  24.621  52.710  1.00  0.00     0.009 A 
HETATM    2  C   UNL     1       7.435  25.057  54.047  1.00  0.00     0.039 A 
HETATM    3  C   UNL     1       7.868  24.217  55.094  1.00  0.00     0.030 A 
HETATM    4  C   UNL     1       8.315  22.941  54.783  1.00  0.00     0.063 A 
HETATM    5  N   UNL     1       8.648  22.372  55.979  1.00  0.00    -0.277 N 
HETATM    6  H   UNL     1       9.007  21.436  56.134  1.00  0.00     0.189 HD
HETATM    7  N   UNL     1       8.462  23.168  57.047  1.00  0.00    -0.168 NA
HETATM    8  C   UNL     1       7.978  24.312  56.513  1.00  0.00     0.156 A 
HETATM    9  C   UNL     1       8.352  22.450  53.478  1.00  0.00     0.034 A 
HETATM   10  C   UNL     1       7.921  23.311  52.457  1.00  0.00     0.026 A 
ENDROOT
BRANCH   1  11
HETATM   11  N   UNL     1       6.980  25.467  51.719  1.00  0.00    -0.289 NA
HETATM   12  H   UNL     1       6.542  24.947  50.962  1.00  0.00     0.128 HD
BRANCH  11  13
HETATM   13  C   UNL     1       6.213  26.644  52.098  1.00  0.00     0.131 C 
BRANCH  13  14
HETATM   14  C   UNL     1       5.223  26.971  51.003  1.00  0.00    -0.042 A 
HETATM   15  C   UNL     1       4.662  28.252  50.894  1.00  0.00     0.048 A 
HETATM   16  C   UNL     1       3.757  28.550  49.866  1.00  0.00     0.102 A 
HETATM   17  C   UNL     1       3.424  27.567  48.915  1.00  0.00     0.102 A 
HETATM   18  C   UNL     1       3.963  26.284  49.039  1.00  0.00     0.040 A 
HETATM   19  C   UNL     1       4.852  25.988  50.076  1.00  0.00     0.011 A 
BRANCH  16  20
HETATM   20  O   UNL     1       3.197  29.792  49.690  1.00  0.00    -0.353 OA
HETATM   21  C   UNL     1       2.254  30.198  50.673  1.00  0.00     0.210 C 
ENDBRANCH  16  20
BRANCH  17  22
HETATM   22  O   UNL     1       2.551  27.951  47.928  1.00  0.00    -0.348 OA
BRANCH  22  23
HETATM   23  C   UNL     1       1.235  27.401  47.961  1.00  0.00     0.175 C 
BRANCH  23  24
HETATM   24  C   UNL     1       0.775  27.209  46.518  1.00  0.00     0.022 C 
HETATM   25  C   UNL     1      -0.565  27.875  46.260  1.00  0.00     0.007 C 
ENDBRANCH  23  24
ENDBRANCH  22  23
ENDBRANCH  17  22
ENDBRANCH  13  14
ENDBRANCH  11  13
ENDBRANCH   1  11
BRANCH   8  26
HETATM   26  C   UNL     1       7.635  25.464  57.359  1.00  0.00     0.270 C 
HETATM   27  N   UNL     1       6.313  25.528  57.707  1.00  0.00    -0.365 N 
HETATM   28  H   UNL     1       5.688  24.805  57.371  1.00  0.00     0.159 HD
HETATM   29  H   UNL     1       5.983  26.282  58.287  1.00  0.00     0.159 HD
HETATM   30  O   UNL     1       8.436  26.311  57.741  1.00  0.00    -0.266 OA
ENDBRANCH   8  26
TORSDOF 8
ENDMDL
MODEL 10
REMARK VINA RESULT:      -7.4      2.643      9.702
REMARK  8 active torsions:
REMARK  status: ('A' for Active; 'I' for Inactive)
REMARK    1  A    between atoms: C_2  and  C_3 
REMARK    2  A    between atoms: C_3  and  O_4 
REMARK    3  A    between atoms: O_4  and  C_5 
REMARK    4  A    between atoms: C_6  and  O_7 
REMARK    5  A    between atoms: C_10  and  C_11 
REMARK    6  A    between atoms: C_11  and  N_12 
REMARK    7  A    between atoms: N_12  and  C_13 
REMARK    8  A    between atoms: C_20  and  C_21 
REMARK       I    between atoms: C_21  and  N_22 
ROOT
HETATM    1  C   UNL     1       7.038  28.127  57.441  1.00  0.00     0.009 A 
HETATM    2  C   UNL     1       7.287  26.880  56.841  1.00  0.00     0.039 A 
HETATM    3  C   UNL     1       6.431  26.383  55.836  1.00  0.00     0.030 A 
HETATM    4  C   UNL     1       5.319  27.131  55.479  1.00  0.00     0.063 A 
HETATM    5  N   UNL     1       4.688  26.403  54.511  1.00  0.00    -0.277 N 
HETATM    6  H   UNL     1       3.832  26.644  54.023  1.00  0.00     0.189 HD
HETATM    7  N   UNL     1       5.294  25.245  54.200  1.00  0.00    -0.168 NA
HETATM    8  C   UNL     1       6.374  25.218  55.014  1.00  0.00     0.156 A 
HETATM    9  C   UNL     1       5.008  28.354  56.073  1.00  0.00     0.034 A 
HETATM   10  C   UNL     1       5.882  28.825  57.066  1.00  0.00     0.026 A 
ENDROOT
BRANCH   1  11
HETATM   11  N   UNL     1       7.877  28.537  58.485  1.00  0.00    -0.289 NA
HETATM   12  H   UNL     1       8.405  27.761  58.878  1.00  0.00     0.128 HD
BRANCH  11  13
HETATM   13  C   UNL     1       8.686  29.737  58.334  1.00  0.00     0.131 C 
BRANCH  13  14
HETATM   14  C   UNL     1       8.398  30.683  59.477  1.00  0.00    -0.042 A 
HETATM   15  C   UNL     1       7.208  31.424  59.520  1.00  0.00     0.048 A 
HETATM   16  C   UNL     1       6.942  32.287  60.592  1.00  0.00     0.102 A 
HETATM   17  C   UNL     1       7.861  32.394  61.653  1.00  0.00     0.102 A 
HETATM   18  C   UNL     1       9.058  31.675  61.598  1.00  0.00     0.040 A 
HETATM   19  C   UNL     1       9.324  30.829  60.518  1.00  0.00     0.011 A 
BRANCH  16  20
HETATM   20  O   UNL     1       5.784  33.016  60.705  1.00  0.00    -0.353 OA
HETATM   21  C   UNL     1       4.633  32.464  60.079  1.00  0.00     0.210 C 
ENDBRANCH  16  20
BRANCH  17  22
HETATM   22  O   UNL     1       7.510  33.241  62.674  1.00  0.00    -0.348 OA
BRANCH  22  23
HETATM   23  C   UNL     1       7.497  32.709  63.997  1.00  0.00     0.175 C 
BRANCH  23  24
HETATM   24  C   UNL     1       7.423  33.881  64.971  1.00  0.00     0.022 C 
HETATM   25  C   UNL     1       6.117  33.888  65.747  1.00  0.00     0.007 C 
ENDBRANCH  23  24
ENDBRANCH  22  23
ENDBRANCH  17  22
ENDBRANCH  13  14
ENDBRANCH  11  13
ENDBRANCH   1  11
BRANCH   8  26
HETATM   26  C   UNL     1       7.322  24.095  54.991  1.00  0.00     0.270 C 
HETATM   27  N   UNL     1       8.218  24.143  53.958  1.00  0.00    -0.365 N 
HETATM   28  H   UNL     1       8.168  24.919  53.309  1.00  0.00     0.159 HD
HETATM   29  H   UNL     1       8.910  23.417  53.860  1.00  0.00     0.159 HD
HETATM   30  O   UNL     1       7.340  23.181  55.809  1.00  0.00    -0.266 OA
ENDBRANCH   8  26
TORSDOF 8
ENDMDL
