MODEL 1
REMARK VINA RESULT:      -9.5      0.000      0.000
REMARK  5 active torsions:
REMARK  status: ('A' for Active; 'I' for Inactive)
REMARK    1  A    between atoms: C_5  and  C_6 
REMARK    2  A    between atoms: C_9  and  O_10 
REMARK    3  A    between atoms: N_14  and  C_15 
REMARK    4  A    between atoms: C_15  and  C_16 
REMARK       I    between atoms: C_16  and  N_17 
REMARK    5  A    between atoms: N_17  and  C_18 
ROOT
HETATM    1  C   UNL     1       4.619  26.967  50.601  1.00  0.00     0.156 C 
HETATM    2  N   UNL     1       4.633  27.686  51.853  1.00  0.00    -0.346 N 
HETATM    3  C   UNL     1       4.888  27.153  53.069  1.00  0.00     0.113 A 
HETATM    4  C   UNL     1       4.778  28.119  54.032  1.00  0.00     0.014 A 
HETATM    5  C   UNL     1       5.023  27.537  55.376  1.00  0.00     0.158 A 
HETATM    6  N   UNL     1       5.390  26.153  54.986  1.00  0.00    -0.325 N 
HETATM    7  C   UNL     1       5.243  25.890  53.622  1.00  0.00     0.272 A 
HETATM    8  O   UNL     1       5.400  24.829  53.045  1.00  0.00    -0.266 OA
HETATM    9  C   UNL     1       4.475  29.335  53.394  1.00  0.00     0.002 A 
HETATM   10  C   UNL     1       4.400  29.047  52.015  1.00  0.00     0.045 A 
HETATM   11  C   UNL     1       4.278  30.659  53.829  1.00  0.00     0.014 A 
HETATM   12  C   UNL     1       4.020  31.659  52.886  1.00  0.00     0.001 A 
HETATM   13  C   UNL     1       3.951  31.357  51.529  1.00  0.00     0.002 A 
HETATM   14  C   UNL     1       4.137  30.049  51.069  1.00  0.00     0.030 A 
ENDROOT
BRANCH   6  15
HETATM   15  C   UNL     1       5.584  25.087  55.960  1.00  0.00     0.229 C 
BRANCH  15  16
HETATM   16  C   UNL     1       7.024  24.555  56.050  1.00  0.00     0.235 C 
HETATM   17  N   UNL     1       7.320  23.561  55.151  1.00  0.00    -0.355 N 
HETATM   18  H   UNL     1       6.517  23.196  54.655  1.00  0.00     0.162 HD
HETATM   19  O   UNL     1       7.831  25.059  56.823  1.00  0.00    -0.272 OA
BRANCH  17  20
HETATM   20  C   UNL     1       8.552  22.795  55.010  1.00  0.00     0.084 C 
HETATM   21  C   UNL     1       8.774  21.701  56.066  1.00  0.00     0.025 C 
HETATM   22  C   UNL     1       8.309  20.296  55.680  1.00  0.00     0.002 C 
HETATM   23  C   UNL     1       8.674  19.922  54.250  1.00  0.00     0.000 C 
HETATM   24  C   UNL     1       8.190  20.969  53.255  1.00  0.00     0.002 C 
HETATM   25  C   UNL     1       8.787  22.334  53.569  1.00  0.00     0.025 C 
ENDBRANCH  17  20
ENDBRANCH  15  16
ENDBRANCH   6  15
BRANCH   5  26
HETATM   26  C   UNL     1       6.129  28.290  56.078  1.00  0.00    -0.030 A 
HETATM   27  C   UNL     1       7.391  28.342  55.464  1.00  0.00     0.012 A 
HETATM   28  C   UNL     1       8.443  29.061  56.040  1.00  0.00     0.037 A 
HETATM   29  C   UNL     1       8.262  29.752  57.237  1.00  0.00     0.068 A 
HETATM   30  C   UNL     1       7.015  29.717  57.857  1.00  0.00     0.037 A 
HETATM   31  C   UNL     1       5.960  28.999  57.280  1.00  0.00     0.012 A 
BRANCH  29  32
HETATM   32  O   UNL     1       9.369  30.414  57.688  1.00  0.00    -0.356 OA
HETATM   33  C   UNL     1      10.621  30.022  57.140  1.00  0.00     0.210 C 
ENDBRANCH  29  32
ENDBRANCH   5  26
TORSDOF 5
ENDMDL
MODEL 2
REMARK VINA RESULT:      -9.4      1.519      2.155
REMARK  5 active torsions:
REMARK  status: ('A' for Active; 'I' for Inactive)
REMARK    1  A    between atoms: C_5  and  C_6 
REMARK    2  A    between atoms: C_9  and  O_10 
REMARK    3  A    between atoms: N_14  and  C_15 
REMARK    4  A    between atoms: C_15  and  C_16 
REMARK       I    between atoms: C_16  and  N_17 
REMARK    5  A    between atoms: N_17  and  C_18 
ROOT
HETATM    1  C   UNL     1       4.128  29.726  49.674  1.00  0.00     0.156 C 
HETATM    2  N   UNL     1       4.101  29.431  51.087  1.00  0.00    -0.346 N 
HETATM    3  C   UNL     1       4.414  28.245  51.655  1.00  0.00     0.113 A 
HETATM    4  C   UNL     1       4.239  28.318  53.010  1.00  0.00     0.014 A 
HETATM    5  C   UNL     1       4.548  27.009  53.641  1.00  0.00     0.158 A 
HETATM    6  N   UNL     1       5.020  26.262  52.448  1.00  0.00    -0.325 N 
HETATM    7  C   UNL     1       4.876  26.962  51.247  1.00  0.00     0.272 A 
HETATM    8  O   UNL     1       5.111  26.566  50.120  1.00  0.00    -0.266 OA
HETATM    9  C   UNL     1       3.831  29.626  53.326  1.00  0.00     0.002 A 
HETATM   10  C   UNL     1       3.761  30.322  52.100  1.00  0.00     0.045 A 
HETATM   11  C   UNL     1       3.534  30.310  54.519  1.00  0.00     0.014 A 
HETATM   12  C   UNL     1       3.184  31.663  54.465  1.00  0.00     0.001 A 
HETATM   13  C   UNL     1       3.121  32.334  53.247  1.00  0.00     0.002 A 
HETATM   14  C   UNL     1       3.406  31.678  52.045  1.00  0.00     0.030 A 
ENDROOT
BRANCH   6  15
HETATM   15  C   UNL     1       5.312  24.835  52.479  1.00  0.00     0.229 C 
BRANCH  15  16
HETATM   16  C   UNL     1       6.773  24.487  52.806  1.00  0.00     0.235 C 
HETATM   17  N   UNL     1       6.926  23.458  53.701  1.00  0.00    -0.355 N 
HETATM   18  H   UNL     1       6.067  23.165  54.148  1.00  0.00     0.162 HD
HETATM   19  O   UNL     1       7.696  25.057  52.235  1.00  0.00    -0.272 OA
BRANCH  17  20
HETATM   20  C   UNL     1       8.153  22.924  54.278  1.00  0.00     0.084 C 
HETATM   21  C   UNL     1       8.042  22.430  55.728  1.00  0.00     0.025 C 
HETATM   22  C   UNL     1       7.763  20.937  55.906  1.00  0.00     0.002 C 
HETATM   23  C   UNL     1       8.587  20.064  54.969  1.00  0.00     0.000 C 
HETATM   24  C   UNL     1       8.433  20.498  53.517  1.00  0.00     0.002 C 
HETATM   25  C   UNL     1       8.861  21.947  53.334  1.00  0.00     0.025 C 
ENDBRANCH  17  20
ENDBRANCH  15  16
ENDBRANCH   6  15
BRANCH   5  26
HETATM   26  C   UNL     1       5.600  27.181  54.712  1.00  0.00    -0.030 A 
HETATM   27  C   UNL     1       6.783  27.860  54.380  1.00  0.00     0.012 A 
HETATM   28  C   UNL     1       7.773  28.092  55.339  1.00  0.00     0.037 A 
HETATM   29  C   UNL     1       7.608  27.658  56.654  1.00  0.00     0.068 A 
HETATM   30  C   UNL     1       6.438  26.988  57.003  1.00  0.00     0.037 A 
HETATM   31  C   UNL     1       5.443  26.758  56.044  1.00  0.00     0.012 A 
BRANCH  29  32
HETATM   32  O   UNL     1       8.651  27.950  57.488  1.00  0.00    -0.356 OA
HETATM   33  C   UNL     1       9.137  29.286  57.466  1.00  0.00     0.210 C 
ENDBRANCH  29  32
ENDBRANCH   5  26
TORSDOF 5
ENDMDL
MODEL 3
REMARK VINA RESULT:      -9.2      2.462      7.712
REMARK  5 active torsions:
REMARK  status: ('A' for Active; 'I' for Inactive)
REMARK    1  A    between atoms: C_5  and  C_6 
REMARK    2  A    between atoms: C_9  and  O_10 
REMARK    3  A    between atoms: N_14  and  C_15 
REMARK    4  A    between atoms: C_15  and  C_16 
REMARK       I    between atoms: C_16  and  N_17 
REMARK    5  A    between atoms: N_17  and  C_18 
ROOT
HETATM    1  C   UNL     1       9.497  24.475  57.419  1.00  0.00     0.156 C 
HETATM    2  N   UNL     1       8.434  24.641  56.456  1.00  0.00    -0.346 N 
HETATM    3  C   UNL     1       7.480  25.597  56.487  1.00  0.00     0.113 A 
HETATM    4  C   UNL     1       6.616  25.426  55.439  1.00  0.00     0.014 A 
HETATM    5  C   UNL     1       5.543  26.452  55.482  1.00  0.00     0.158 A 
HETATM    6  N   UNL     1       6.018  27.261  56.632  1.00  0.00    -0.325 N 
HETATM    7  C   UNL     1       7.129  26.722  57.286  1.00  0.00     0.272 A 
HETATM    8  O   UNL     1       7.675  27.134  58.293  1.00  0.00    -0.266 OA
HETATM    9  C   UNL     1       7.064  24.329  54.682  1.00  0.00     0.002 A 
HETATM   10  C   UNL     1       8.223  23.852  55.331  1.00  0.00     0.045 A 
HETATM   11  C   UNL     1       6.631  23.697  53.502  1.00  0.00     0.014 A 
HETATM   12  C   UNL     1       7.361  22.618  52.994  1.00  0.00     0.001 A 
HETATM   13  C   UNL     1       8.503  22.161  53.647  1.00  0.00     0.002 A 
HETATM   14  C   UNL     1       8.953  22.765  54.825  1.00  0.00     0.030 A 
ENDROOT
BRANCH   6  15
HETATM   15  C   UNL     1       5.228  28.338  57.215  1.00  0.00     0.229 C 
BRANCH  15  16
HETATM   16  C   UNL     1       5.894  29.723  57.162  1.00  0.00     0.235 C 
HETATM   17  N   UNL     1       6.625  30.045  58.279  1.00  0.00    -0.355 N 
HETATM   18  H   UNL     1       6.505  29.405  59.053  1.00  0.00     0.162 HD
HETATM   19  O   UNL     1       5.816  30.418  56.156  1.00  0.00    -0.272 OA
BRANCH  17  20
HETATM   20  C   UNL     1       7.319  31.289  58.587  1.00  0.00     0.084 C 
HETATM   21  C   UNL     1       6.626  32.195  59.616  1.00  0.00     0.025 C 
HETATM   22  C   UNL     1       7.081  32.029  61.066  1.00  0.00     0.002 C 
HETATM   23  C   UNL     1       8.593  31.905  61.203  1.00  0.00     0.000 C 
HETATM   24  C   UNL     1       9.149  30.805  60.308  1.00  0.00     0.002 C 
HETATM   25  C   UNL     1       8.813  31.070  58.847  1.00  0.00     0.025 C 
ENDBRANCH  17  20
ENDBRANCH  15  16
ENDBRANCH   6  15
BRANCH   5  26
HETATM   26  C   UNL     1       5.493  27.211  54.177  1.00  0.00    -0.030 A 
HETATM   27  C   UNL     1       4.292  27.205  53.449  1.00  0.00     0.012 A 
HETATM   28  C   UNL     1       4.169  27.926  52.257  1.00  0.00     0.037 A 
HETATM   29  C   UNL     1       5.236  28.676  51.765  1.00  0.00     0.068 A 
HETATM   30  C   UNL     1       6.433  28.699  52.476  1.00  0.00     0.037 A 
HETATM   31  C   UNL     1       6.557  27.979  53.672  1.00  0.00     0.012 A 
BRANCH  29  32
HETATM   32  O   UNL     1       4.980  29.332  50.593  1.00  0.00    -0.356 OA
HETATM   33  C   UNL     1       5.195  28.607  49.390  1.00  0.00     0.210 C 
ENDBRANCH  29  32
ENDBRANCH   5  26
TORSDOF 5
ENDMDL
MODEL 4
REMARK VINA RESULT:      -8.4      2.339      8.134
REMARK  5 active torsions:
REMARK  status: ('A' for Active; 'I' for Inactive)
REMARK    1  A    between atoms: C_5  and  C_6 
REMARK    2  A    between atoms: C_9  and  O_10 
REMARK    3  A    between atoms: N_14  and  C_15 
REMARK    4  A    between atoms: C_15  and  C_16 
REMARK       I    between atoms: C_16  and  N_17 
REMARK    5  A    between atoms: N_17  and  C_18 
ROOT
HETATM    1  C   UNL     1       9.171  24.477  57.414  1.00  0.00     0.156 C 
HETATM    2  N   UNL     1       8.259  24.441  56.295  1.00  0.00    -0.346 N 
HETATM    3  C   UNL     1       7.224  25.285  56.089  1.00  0.00     0.113 A 
HETATM    4  C   UNL     1       6.554  24.930  54.949  1.00  0.00     0.014 A 
HETATM    5  C   UNL     1       5.394  25.832  54.731  1.00  0.00     0.158 A 
HETATM    6  N   UNL     1       5.605  26.785  55.849  1.00  0.00    -0.325 N 
HETATM    7  C   UNL     1       6.648  26.430  56.709  1.00  0.00     0.272 A 
HETATM    8  O   UNL     1       6.989  26.985  57.738  1.00  0.00    -0.266 OA
HETATM    9  C   UNL     1       7.218  23.828  54.381  1.00  0.00     0.002 A 
HETATM   10  C   UNL     1       8.302  23.539  55.237  1.00  0.00     0.045 A 
HETATM   11  C   UNL     1       7.036  23.054  53.221  1.00  0.00     0.014 A 
HETATM   12  C   UNL     1       7.937  22.021  52.937  1.00  0.00     0.001 A 
HETATM   13  C   UNL     1       9.001  21.751  53.793  1.00  0.00     0.002 A 
HETATM   14  C   UNL     1       9.203  22.500  54.956  1.00  0.00     0.030 A 
ENDROOT
BRANCH   6  15
HETATM   15  C   UNL     1       4.635  27.814  56.199  1.00  0.00     0.229 C 
BRANCH  15  16
HETATM   16  C   UNL     1       5.080  29.250  55.878  1.00  0.00     0.235 C 
HETATM   17  N   UNL     1       4.066  30.084  55.478  1.00  0.00    -0.355 N 
HETATM   18  H   UNL     1       3.189  29.614  55.295  1.00  0.00     0.162 HD
HETATM   19  O   UNL     1       6.243  29.599  56.051  1.00  0.00    -0.272 OA
BRANCH  17  20
HETATM   20  C   UNL     1       4.145  31.471  55.036  1.00  0.00     0.084 C 
HETATM   21  C   UNL     1       4.178  31.678  53.514  1.00  0.00     0.025 C 
HETATM   22  C   UNL     1       2.827  31.945  52.848  1.00  0.00     0.002 C 
HETATM   23  C   UNL     1       1.960  32.920  53.633  1.00  0.00     0.000 C 
HETATM   24  C   UNL     1       1.797  32.485  55.083  1.00  0.00     0.002 C 
HETATM   25  C   UNL     1       3.150  32.372  55.772  1.00  0.00     0.025 C 
ENDBRANCH  17  20
ENDBRANCH  15  16
ENDBRANCH   6  15
BRANCH   5  26
HETATM   26  C   UNL     1       5.476  26.465  53.362  1.00  0.00    -0.030 A 
HETATM   27  C   UNL     1       4.979  25.743  52.264  1.00  0.00     0.012 A 
HETATM   28  C   UNL     1       4.984  26.294  50.979  1.00  0.00     0.037 A 
HETATM   29  C   UNL     1       5.477  27.579  50.756  1.00  0.00     0.068 A 
HETATM   30  C   UNL     1       5.967  28.313  51.834  1.00  0.00     0.037 A 
HETATM   31  C   UNL     1       5.961  27.763  53.123  1.00  0.00     0.012 A 
BRANCH  29  32
HETATM   32  O   UNL     1       5.421  27.995  49.455  1.00  0.00    -0.356 OA
HETATM   33  C   UNL     1       4.199  27.781  48.763  1.00  0.00     0.210 C 
ENDBRANCH  29  32
ENDBRANCH   5  26
TORSDOF 5
ENDMDL
MODEL 5
REMARK VINA RESULT:      -8.4      2.939      6.086
REMARK  5 active torsions:
REMARK  status: ('A' for Active; 'I' for Inactive)
REMARK    1  A    between atoms: C_5  and  C_6 
REMARK    2  A    between atoms: C_9  and  O_10 
REMARK    3  A    between atoms: N_14  and  C_15 
REMARK    4  A    between atoms: C_15  and  C_16 
REMARK       I    between atoms: C_16  and  N_17 
REMARK    5  A    between atoms: N_17  and  C_18 
ROOT
HETATM    1  C   UNL     1       4.199  30.328  54.479  1.00  0.00     0.156 C 
HETATM    2  N   UNL     1       4.443  29.998  53.096  1.00  0.00    -0.346 N 
HETATM    3  C   UNL     1       4.660  28.757  52.604  1.00  0.00     0.113 A 
HETATM    4  C   UNL     1       4.893  28.825  51.257  1.00  0.00     0.014 A 
HETATM    5  C   UNL     1       5.166  27.471  50.712  1.00  0.00     0.158 A 
HETATM    6  N   UNL     1       4.935  26.659  51.933  1.00  0.00    -0.325 N 
HETATM    7  C   UNL     1       4.706  27.418  53.084  1.00  0.00     0.272 A 
HETATM    8  O   UNL     1       4.561  27.018  54.225  1.00  0.00    -0.266 OA
HETATM    9  C   UNL     1       4.781  30.171  50.864  1.00  0.00     0.002 A 
HETATM   10  C   UNL     1       4.483  30.898  52.036  1.00  0.00     0.045 A 
HETATM   11  C   UNL     1       4.876  30.856  49.639  1.00  0.00     0.014 A 
HETATM   12  C   UNL     1       4.665  32.239  49.608  1.00  0.00     0.001 A 
HETATM   13  C   UNL     1       4.371  32.940  50.774  1.00  0.00     0.002 A 
HETATM   14  C   UNL     1       4.277  32.286  52.007  1.00  0.00     0.030 A 
ENDROOT
BRANCH   6  15
HETATM   15  C   UNL     1       5.226  25.233  51.996  1.00  0.00     0.229 C 
BRANCH  15  16
HETATM   16  C   UNL     1       6.663  24.890  52.419  1.00  0.00     0.235 C 
HETATM   17  N   UNL     1       6.779  23.740  53.160  1.00  0.00    -0.355 N 
HETATM   18  H   UNL     1       5.895  23.352  53.465  1.00  0.00     0.162 HD
HETATM   19  O   UNL     1       7.608  25.573  52.041  1.00  0.00    -0.272 OA
BRANCH  17  20
HETATM   20  C   UNL     1       7.968  23.166  53.775  1.00  0.00     0.084 C 
HETATM   21  C   UNL     1       7.820  22.763  55.250  1.00  0.00     0.025 C 
HETATM   22  C   UNL     1       7.450  21.302  55.509  1.00  0.00     0.002 C 
HETATM   23  C   UNL     1       8.224  20.329  54.629  1.00  0.00     0.000 C 
HETATM   24  C   UNL     1       8.103  20.688  53.154  1.00  0.00     0.002 C 
HETATM   25  C   UNL     1       8.620  22.097  52.894  1.00  0.00     0.025 C 
ENDBRANCH  17  20
ENDBRANCH  15  16
ENDBRANCH   6  15
BRANCH   5  26
HETATM   26  C   UNL     1       4.213  27.161  49.581  1.00  0.00    -0.030 A 
HETATM   27  C   UNL     1       2.978  27.829  49.550  1.00  0.00     0.012 A 
HETATM   28  C   UNL     1       2.073  27.620  48.505  1.00  0.00     0.037 A 
HETATM   29  C   UNL     1       2.377  26.746  47.462  1.00  0.00     0.068 A 
HETATM   30  C   UNL     1       3.600  26.079  47.473  1.00  0.00     0.037 A 
HETATM   31  C   UNL     1       4.509  26.289  48.518  1.00  0.00     0.012 A 
BRANCH  29  32
HETATM   32  O   UNL     1       1.407  26.636  46.507  1.00  0.00    -0.356 OA
HETATM   33  C   UNL     1       0.361  27.599  46.538  1.00  0.00     0.210 C 
ENDBRANCH  29  32
ENDBRANCH   5  26
TORSDOF 5
ENDMDL
MODEL 6
REMARK VINA RESULT:      -8.4      2.629      7.699
REMARK  5 active torsions:
REMARK  status: ('A' for Active; 'I' for Inactive)
REMARK    1  A    between atoms: C_5  and  C_6 
REMARK    2  A    between atoms: C_9  and  O_10 
REMARK    3  A    between atoms: N_14  and  C_15 
REMARK    4  A    between atoms: C_15  and  C_16 
REMARK       I    between atoms: C_16  and  N_17 
REMARK    5  A    between atoms: N_17  and  C_18 
ROOT
HETATM    1  C   UNL     1       9.241  25.274  57.103  1.00  0.00     0.156 C 
HETATM    2  N   UNL     1       8.077  25.412  56.260  1.00  0.00    -0.346 N 
HETATM    3  C   UNL     1       7.131  26.372  56.365  1.00  0.00     0.113 A 
HETATM    4  C   UNL     1       6.157  26.170  55.426  1.00  0.00     0.014 A 
HETATM    5  C   UNL     1       5.094  27.199  55.556  1.00  0.00     0.158 A 
HETATM    6  N   UNL     1       5.693  28.043  56.620  1.00  0.00    -0.325 N 
HETATM    7  C   UNL     1       6.870  27.522  57.163  1.00  0.00     0.272 A 
HETATM    8  O   UNL     1       7.524  27.964  58.090  1.00  0.00    -0.266 OA
HETATM    9  C   UNL     1       6.519  25.048  54.658  1.00  0.00     0.002 A 
HETATM   10  C   UNL     1       7.743  24.589  55.189  1.00  0.00     0.045 A 
HETATM   11  C   UNL     1       5.959  24.382  53.553  1.00  0.00     0.014 A 
HETATM   12  C   UNL     1       6.629  23.285  53.002  1.00  0.00     0.001 A 
HETATM   13  C   UNL     1       7.836  22.846  53.538  1.00  0.00     0.002 A 
HETATM   14  C   UNL     1       8.414  23.485  54.640  1.00  0.00     0.030 A 
ENDROOT
BRANCH   6  15
HETATM   15  C   UNL     1       4.972  29.139  57.253  1.00  0.00     0.229 C 
BRANCH  15  16
HETATM   16  C   UNL     1       5.751  30.463  57.324  1.00  0.00     0.235 C 
HETATM   17  N   UNL     1       6.408  30.672  58.512  1.00  0.00    -0.355 N 
HETATM   18  H   UNL     1       6.170  30.012  59.240  1.00  0.00     0.162 HD
HETATM   19  O   UNL     1       5.816  31.205  56.351  1.00  0.00    -0.272 OA
BRANCH  17  20
HETATM   20  C   UNL     1       7.173  31.837  58.938  1.00  0.00     0.084 C 
HETATM   21  C   UNL     1       6.639  32.558  60.185  1.00  0.00     0.025 C 
HETATM   22  C   UNL     1       7.263  32.139  61.517  1.00  0.00     0.002 C 
HETATM   23  C   UNL     1       8.775  31.978  61.439  1.00  0.00     0.000 C 
HETATM   24  C   UNL     1       9.183  31.045  60.307  1.00  0.00     0.002 C 
HETATM   25  C   UNL     1       8.679  31.563  58.967  1.00  0.00     0.025 C 
ENDBRANCH  17  20
ENDBRANCH  15  16
ENDBRANCH   6  15
BRANCH   5  26
HETATM   26  C   UNL     1       4.899  27.917  54.240  1.00  0.00    -0.030 A 
HETATM   27  C   UNL     1       6.037  28.226  53.477  1.00  0.00     0.012 A 
HETATM   28  C   UNL     1       5.919  28.848  52.230  1.00  0.00     0.037 A 
HETATM   29  C   UNL     1       4.667  29.173  51.710  1.00  0.00     0.068 A 
HETATM   30  C   UNL     1       3.527  28.868  52.451  1.00  0.00     0.037 A 
HETATM   31  C   UNL     1       3.643  28.243  53.699  1.00  0.00     0.012 A 
BRANCH  29  32
HETATM   32  O   UNL     1       4.695  29.775  50.484  1.00  0.00    -0.356 OA
HETATM   33  C   UNL     1       3.723  29.352  49.537  1.00  0.00     0.210 C 
ENDBRANCH  29  32
ENDBRANCH   5  26
TORSDOF 5
ENDMDL
MODEL 7
REMARK VINA RESULT:      -8.1      2.673      6.671
REMARK  5 active torsions:
REMARK  status: ('A' for Active; 'I' for Inactive)
REMARK    1  A    between atoms: C_5  and  C_6 
REMARK    2  A    between atoms: C_9  and  O_10 
REMARK    3  A    between atoms: N_14  and  C_15 
REMARK    4  A    between atoms: C_15  and  C_16 
REMARK       I    between atoms: C_16  and  N_17 
REMARK    5  A    between atoms: N_17  and  C_18 
ROOT
HETATM    1  C   UNL     1       6.224  23.966  53.006  1.00  0.00     0.156 C 
HETATM    2  N   UNL     1       6.499  25.125  53.821  1.00  0.00    -0.346 N 
HETATM    3  C   UNL     1       6.094  26.389  53.563  1.00  0.00     0.113 A 
HETATM    4  C   UNL     1       6.569  27.235  54.528  1.00  0.00     0.014 A 
HETATM    5  C   UNL     1       6.158  28.632  54.236  1.00  0.00     0.158 A 
HETATM    6  N   UNL     1       5.306  28.398  53.044  1.00  0.00    -0.325 N 
HETATM    7  C   UNL     1       5.318  27.077  52.588  1.00  0.00     0.272 A 
HETATM    8  O   UNL     1       4.773  26.624  51.598  1.00  0.00    -0.266 OA
HETATM    9  C   UNL     1       7.279  26.467  55.469  1.00  0.00     0.002 A 
HETATM   10  C   UNL     1       7.214  25.133  55.014  1.00  0.00     0.045 A 
HETATM   11  C   UNL     1       7.952  26.749  56.671  1.00  0.00     0.014 A 
HETATM   12  C   UNL     1       8.535  25.702  57.393  1.00  0.00     0.001 A 
HETATM   13  C   UNL     1       8.460  24.391  56.930  1.00  0.00     0.002 A 
HETATM   14  C   UNL     1       7.802  24.082  55.735  1.00  0.00     0.030 A 
ENDROOT
BRANCH   6  15
HETATM   15  C   UNL     1       4.759  29.485  52.243  1.00  0.00     0.229 C 
BRANCH  15  16
HETATM   16  C   UNL     1       5.129  29.429  50.751  1.00  0.00     0.235 C 
HETATM   17  N   UNL     1       4.140  28.933  49.938  1.00  0.00    -0.355 N 
HETATM   18  H   UNL     1       3.360  28.524  50.436  1.00  0.00     0.162 HD
HETATM   19  O   UNL     1       6.201  29.872  50.355  1.00  0.00    -0.272 OA
BRANCH  17  20
HETATM   20  C   UNL     1       4.179  28.681  48.504  1.00  0.00     0.084 C 
HETATM   21  C   UNL     1       4.972  27.437  48.073  1.00  0.00     0.025 C 
HETATM   22  C   UNL     1       4.157  26.157  47.888  1.00  0.00     0.002 C 
HETATM   23  C   UNL     1       2.841  26.391  47.157  1.00  0.00     0.000 C 
HETATM   24  C   UNL     1       2.021  27.492  47.818  1.00  0.00     0.002 C 
HETATM   25  C   UNL     1       2.797  28.801  47.855  1.00  0.00     0.025 C 
ENDBRANCH  17  20
ENDBRANCH  15  16
ENDBRANCH   6  15
BRANCH   5  26
HETATM   26  C   UNL     1       5.416  29.216  55.416  1.00  0.00    -0.030 A 
HETATM   27  C   UNL     1       6.133  30.010  56.326  1.00  0.00     0.012 A 
HETATM   28  C   UNL     1       5.493  30.616  57.412  1.00  0.00     0.037 A 
HETATM   29  C   UNL     1       4.123  30.452  57.614  1.00  0.00     0.068 A 
HETATM   30  C   UNL     1       3.395  29.674  56.718  1.00  0.00     0.037 A 
HETATM   31  C   UNL     1       4.034  29.068  55.628  1.00  0.00     0.012 A 
BRANCH  29  32
HETATM   32  O   UNL     1       3.626  31.099  58.711  1.00  0.00    -0.356 OA
HETATM   33  C   UNL     1       4.339  32.243  59.161  1.00  0.00     0.210 C 
ENDBRANCH  29  32
ENDBRANCH   5  26
TORSDOF 5
ENDMDL
MODEL 8
REMARK VINA RESULT:      -8.0      3.108      5.357
REMARK  5 active torsions:
REMARK  status: ('A' for Active; 'I' for Inactive)
REMARK    1  A    between atoms: C_5  and  C_6 
REMARK    2  A    between atoms: C_9  and  O_10 
REMARK    3  A    between atoms: N_14  and  C_15 
REMARK    4  A    between atoms: C_15  and  C_16 
REMARK       I    between atoms: C_16  and  N_17 
REMARK    5  A    between atoms: N_17  and  C_18 
ROOT
HETATM    1  C   UNL     1       3.461  25.629  47.852  1.00  0.00     0.156 C 
HETATM    2  N   UNL     1       3.229  26.900  48.496  1.00  0.00    -0.346 N 
HETATM    3  C   UNL     1       3.878  27.366  49.587  1.00  0.00     0.113 A 
HETATM    4  C   UNL     1       3.372  28.586  49.944  1.00  0.00     0.014 A 
HETATM    5  C   UNL     1       4.055  29.092  51.162  1.00  0.00     0.158 A 
HETATM    6  N   UNL     1       5.071  28.025  51.339  1.00  0.00    -0.325 N 
HETATM    7  C   UNL     1       4.931  26.953  50.453  1.00  0.00     0.272 A 
HETATM    8  O   UNL     1       5.573  25.920  50.423  1.00  0.00    -0.266 OA
HETATM    9  C   UNL     1       2.377  28.933  49.012  1.00  0.00     0.002 A 
HETATM   10  C   UNL     1       2.309  27.862  48.095  1.00  0.00     0.045 A 
HETATM   11  C   UNL     1       1.540  30.048  48.826  1.00  0.00     0.014 A 
HETATM   12  C   UNL     1       0.665  30.075  47.735  1.00  0.00     0.001 A 
HETATM   13  C   UNL     1       0.612  29.010  46.840  1.00  0.00     0.002 A 
HETATM   14  C   UNL     1       1.428  27.886  47.003  1.00  0.00     0.030 A 
ENDROOT
BRANCH   6  15
HETATM   15  C   UNL     1       5.933  27.947  52.511  1.00  0.00     0.229 C 
BRANCH  15  16
HETATM   16  C   UNL     1       5.607  26.791  53.471  1.00  0.00     0.235 C 
HETATM   17  N   UNL     1       6.447  25.711  53.367  1.00  0.00    -0.355 N 
HETATM   18  H   UNL     1       7.072  25.746  52.572  1.00  0.00     0.162 HD
HETATM   19  O   UNL     1       4.707  26.898  54.297  1.00  0.00    -0.272 OA
BRANCH  17  20
HETATM   20  C   UNL     1       6.383  24.434  54.067  1.00  0.00     0.084 C 
HETATM   21  C   UNL     1       6.952  23.231  53.300  1.00  0.00     0.025 C 
HETATM   22  C   UNL     1       8.412  22.882  53.593  1.00  0.00     0.002 C 
HETATM   23  C   UNL     1       8.751  22.945  55.077  1.00  0.00     0.000 C 
HETATM   24  C   UNL     1       8.358  24.284  55.686  1.00  0.00     0.002 C 
HETATM   25  C   UNL     1       6.867  24.542  55.516  1.00  0.00     0.025 C 
ENDBRANCH  17  20
ENDBRANCH  15  16
ENDBRANCH   6  15
BRANCH   5  26
HETATM   26  C   UNL     1       4.641  30.460  50.902  1.00  0.00    -0.030 A 
HETATM   27  C   UNL     1       5.578  30.596  49.864  1.00  0.00     0.012 A 
HETATM   28  C   UNL     1       6.121  31.844  49.545  1.00  0.00     0.037 A 
HETATM   29  C   UNL     1       5.742  32.987  50.245  1.00  0.00     0.068 A 
HETATM   30  C   UNL     1       4.809  32.873  51.274  1.00  0.00     0.037 A 
HETATM   31  C   UNL     1       4.262  31.624  51.594  1.00  0.00     0.012 A 
BRANCH  29  32
HETATM   32  O   UNL     1       6.348  34.140  49.831  1.00  0.00    -0.356 OA
HETATM   33  C   UNL     1       6.864  34.154  48.506  1.00  0.00     0.210 C 
ENDBRANCH  29  32
ENDBRANCH   5  26
TORSDOF 5
ENDMDL
MODEL 9
REMARK VINA RESULT:      -7.5      2.754      8.340
REMARK  5 active torsions:
REMARK  status: ('A' for Active; 'I' for Inactive)
REMARK    1  A    between atoms: C_5  and  C_6 
REMARK    2  A    between atoms: C_9  and  O_10 
REMARK    3  A    between atoms: N_14  and  C_15 
REMARK    4  A    between atoms: C_15  and  C_16 
REMARK       I    between atoms: C_16  and  N_17 
REMARK    5  A    between atoms: N_17  and  C_18 
ROOT
HETATM    1  C   UNL     1       7.975  27.626  56.699  1.00  0.00     0.156 C 
HETATM    2  N   UNL     1       6.959  27.358  55.709  1.00  0.00    -0.346 N 
HETATM    3  C   UNL     1       5.983  28.211  55.325  1.00  0.00     0.113 A 
HETATM    4  C   UNL     1       5.178  27.609  54.397  1.00  0.00     0.014 A 
HETATM    5  C   UNL     1       4.081  28.525  53.993  1.00  0.00     0.158 A 
HETATM    6  N   UNL     1       4.478  29.738  54.751  1.00  0.00    -0.325 N 
HETATM    7  C   UNL     1       5.567  29.544  55.605  1.00  0.00     0.272 A 
HETATM    8  O   UNL     1       6.051  30.338  56.390  1.00  0.00    -0.266 OA
HETATM    9  C   UNL     1       5.689  26.322  54.148  1.00  0.00     0.002 A 
HETATM   10  C   UNL     1       6.823  26.184  54.976  1.00  0.00     0.045 A 
HETATM   11  C   UNL     1       5.332  25.263  53.295  1.00  0.00     0.014 A 
HETATM   12  C   UNL     1       6.111  24.101  53.279  1.00  0.00     0.001 A 
HETATM   13  C   UNL     1       7.227  23.983  54.102  1.00  0.00     0.002 A 
HETATM   14  C   UNL     1       7.603  25.018  54.965  1.00  0.00     0.030 A 
ENDROOT
BRANCH   6  15
HETATM   15  C   UNL     1       3.636  30.924  54.834  1.00  0.00     0.229 C 
BRANCH  15  16
HETATM   16  C   UNL     1       4.183  32.153  54.089  1.00  0.00     0.235 C 
HETATM   17  N   UNL     1       3.757  32.266  52.789  1.00  0.00    -0.355 N 
HETATM   18  H   UNL     1       3.269  31.451  52.440  1.00  0.00     0.162 HD
HETATM   19  O   UNL     1       4.878  32.979  54.669  1.00  0.00    -0.272 OA
BRANCH  17  20
HETATM   20  C   UNL     1       4.132  33.257  51.789  1.00  0.00     0.084 C 
HETATM   21  C   UNL     1       5.568  33.146  51.256  1.00  0.00     0.025 C 
HETATM   22  C   UNL     1       5.742  32.341  49.967  1.00  0.00     0.002 C 
HETATM   23  C   UNL     1       4.670  32.645  48.929  1.00  0.00     0.000 C 
HETATM   24  C   UNL     1       3.270  32.489  49.506  1.00  0.00     0.002 C 
HETATM   25  C   UNL     1       3.067  33.413  50.699  1.00  0.00     0.025 C 
ENDBRANCH  17  20
ENDBRANCH  15  16
ENDBRANCH   6  15
BRANCH   5  26
HETATM   26  C   UNL     1       4.081  28.711  52.494  1.00  0.00    -0.030 A 
HETATM   27  C   UNL     1       5.315  28.705  51.823  1.00  0.00     0.012 A 
HETATM   28  C   UNL     1       5.378  28.826  50.431  1.00  0.00     0.037 A 
HETATM   29  C   UNL     1       4.215  28.950  49.673  1.00  0.00     0.068 A 
HETATM   30  C   UNL     1       2.981  28.951  50.321  1.00  0.00     0.037 A 
HETATM   31  C   UNL     1       2.916  28.828  51.715  1.00  0.00     0.012 A 
BRANCH  29  32
HETATM   32  O   UNL     1       4.419  29.058  48.326  1.00  0.00    -0.356 OA
HETATM   33  C   UNL     1       4.350  27.859  47.566  1.00  0.00     0.210 C 
ENDBRANCH  29  32
ENDBRANCH   5  26
TORSDOF 5
ENDMDL
MODEL 10
REMARK VINA RESULT:      -7.4      1.915      2.873
REMARK  5 active torsions:
REMARK  status: ('A' for Active; 'I' for Inactive)
REMARK    1  A    between atoms: C_5  and  C_6 
REMARK    2  A    between atoms: C_9  and  O_10 
REMARK    3  A    between atoms: N_14  and  C_15 
REMARK    4  A    between atoms: C_15  and  C_16 
REMARK       I    between atoms: C_16  and  N_17 
REMARK    5  A    between atoms: N_17  and  C_18 
ROOT
HETATM    1  C   UNL     1       5.522  28.570  48.799  1.00  0.00     0.156 C 
HETATM    2  N   UNL     1       5.071  28.927  50.123  1.00  0.00    -0.346 N 
HETATM    3  C   UNL     1       4.958  28.085  51.175  1.00  0.00     0.113 A 
HETATM    4  C   UNL     1       4.463  28.759  52.258  1.00  0.00     0.014 A 
HETATM    5  C   UNL     1       4.303  27.836  53.411  1.00  0.00     0.158 A 
HETATM    6  N   UNL     1       4.888  26.603  52.826  1.00  0.00    -0.325 N 
HETATM    7  C   UNL     1       5.214  26.716  51.472  1.00  0.00     0.272 A 
HETATM    8  O   UNL     1       5.635  25.848  50.730  1.00  0.00    -0.266 OA
HETATM    9  C   UNL     1       4.287  30.105  51.890  1.00  0.00     0.002 A 
HETATM   10  C   UNL     1       4.689  30.197  50.540  1.00  0.00     0.045 A 
HETATM   11  C   UNL     1       3.854  31.265  52.556  1.00  0.00     0.014 A 
HETATM   12  C   UNL     1       3.837  32.485  51.871  1.00  0.00     0.001 A 
HETATM   13  C   UNL     1       4.238  32.557  50.540  1.00  0.00     0.002 A 
HETATM   14  C   UNL     1       4.668  31.419  49.850  1.00  0.00     0.030 A 
ENDROOT
BRANCH   6  15
HETATM   15  C   UNL     1       4.840  25.313  53.501  1.00  0.00     0.229 C 
BRANCH  15  16
HETATM   16  C   UNL     1       6.016  25.044  54.454  1.00  0.00     0.235 C 
HETATM   17  N   UNL     1       5.648  24.609  55.703  1.00  0.00    -0.355 N 
HETATM   18  H   UNL     1       4.655  24.670  55.888  1.00  0.00     0.162 HD
HETATM   19  O   UNL     1       7.174  25.151  54.066  1.00  0.00    -0.272 OA
BRANCH  17  20
HETATM   20  C   UNL     1       6.492  24.332  56.858  1.00  0.00     0.084 C 
HETATM   21  C   UNL     1       7.546  23.232  56.658  1.00  0.00     0.025 C 
HETATM   22  C   UNL     1       8.937  23.709  56.238  1.00  0.00     0.002 C 
HETATM   23  C   UNL     1       9.399  24.939  57.007  1.00  0.00     0.000 C 
HETATM   24  C   UNL     1       8.373  26.062  56.937  1.00  0.00     0.002 C 
HETATM   25  C   UNL     1       7.033  25.611  57.502  1.00  0.00     0.025 C 
ENDBRANCH  17  20
ENDBRANCH  15  16
ENDBRANCH   6  15
BRANCH   5  26
HETATM   26  C   UNL     1       5.057  28.362  54.610  1.00  0.00    -0.030 A 
HETATM   27  C   UNL     1       4.371  28.476  55.830  1.00  0.00     0.012 A 
HETATM   28  C   UNL     1       5.025  28.912  56.986  1.00  0.00     0.037 A 
HETATM   29  C   UNL     1       6.380  29.239  56.958  1.00  0.00     0.068 A 
HETATM   30  C   UNL     1       7.079  29.126  55.758  1.00  0.00     0.037 A 
HETATM   31  C   UNL     1       6.425  28.687  54.599  1.00  0.00     0.012 A 
BRANCH  29  32
HETATM   32  O   UNL     1       6.894  29.650  58.155  1.00  0.00    -0.356 OA
HETATM   33  C   UNL     1       8.297  29.508  58.336  1.00  0.00     0.210 C 
ENDBRANCH  29  32
ENDBRANCH   5  26
TORSDOF 5
ENDMDL
