MODEL 1
REMARK VINA RESULT:     -11.1      0.000      0.000
REMARK  8 active torsions:
REMARK  status: ('A' for Active; 'I' for Inactive)
REMARK    1  A    between atoms: C_2  and  N_3 
REMARK    2  A    between atoms: C_2  and  C_34 
REMARK       I    between atoms: N_3  and  C_4 
REMARK    3  A    between atoms: C_4  and  C_5 
REMARK    4  A    between atoms: C_5  and  N_6 
REMARK       I    between atoms: N_12  and  C_13 
REMARK    5  A    between atoms: C_13  and  C_14 
REMARK    6  A    between atoms: C_14  and  O_15 
REMARK    7  A    between atoms: O_15  and  C_16 
REMARK    8  A    between atoms: N_25  and  C_26 
ROOT
HETATM    1  N   UNL     1       4.627  30.343  57.349  1.00  0.00    -0.325 N 
HETATM    2  C   UNL     1       4.565  29.192  56.592  1.00  0.00     0.250 C 
HETATM    3  O   UNL     1       3.535  28.590  56.319  1.00  0.00    -0.270 OA
HETATM    4  C   UNL     1       5.999  28.807  56.170  1.00  0.00     0.118 C 
HETATM    5  C   UNL     1       6.121  29.054  54.661  1.00  0.00     0.061 C 
HETATM    6  C   UNL     1       5.449  27.961  53.836  1.00  0.00     0.129 C 
HETATM    7  N   UNL     1       5.836  26.625  54.280  1.00  0.00    -0.350 N 
HETATM    8  C   UNL     1       6.006  25.635  53.309  1.00  0.00     0.244 C 
HETATM    9  O   UNL     1       5.905  25.876  52.103  1.00  0.00    -0.271 OA
HETATM   10  C   UNL     1       5.585  26.338  55.690  1.00  0.00     0.129 C 
HETATM   11  C   UNL     1       6.246  27.358  56.610  1.00  0.00     0.061 C 
HETATM   12  N   UNL     1       6.818  29.774  56.957  1.00  0.00    -0.346 N 
HETATM   13  C   UNL     1       5.969  30.694  57.705  1.00  0.00     0.254 C 
ENDROOT
BRANCH  12  14
HETATM   14  C   UNL     1       8.194  29.862  57.061  1.00  0.00     0.032 A 
HETATM   15  C   UNL     1       9.075  29.386  56.077  1.00  0.00     0.029 A 
HETATM   16  C   UNL     1      10.470  29.469  56.204  1.00  0.00     0.002 A 
HETATM   17  C   UNL     1      11.038  30.041  57.332  1.00  0.00     0.000 A 
HETATM   18  C   UNL     1      10.207  30.532  58.326  1.00  0.00     0.002 A 
HETATM   19  C   UNL     1       8.815  30.445  58.185  1.00  0.00     0.029 A 
ENDBRANCH  12  14
BRANCH   1  20
HETATM   20  C   UNL     1       3.478  30.811  58.108  1.00  0.00     0.230 C 
BRANCH  20  21
HETATM   21  C   UNL     1       3.672  32.062  58.979  1.00  0.00     0.236 C 
HETATM   22  N   UNL     1       4.317  31.817  60.172  1.00  0.00    -0.351 N 
HETATM   23  H   UNL     1       4.559  30.869  60.430  1.00  0.00     0.163 HD
HETATM   24  O   UNL     1       3.352  33.193  58.621  1.00  0.00    -0.272 OA
BRANCH  22  25
HETATM   25  C   UNL     1       4.584  32.879  61.131  1.00  0.00     0.113 C 
HETATM   26  C   UNL     1       3.483  32.964  62.191  1.00  0.00     0.037 C 
BRANCH  25  27
HETATM   27  C   UNL     1       5.952  32.694  61.761  1.00  0.00    -0.036 A 
HETATM   28  C   UNL     1       6.187  33.151  63.068  1.00  0.00     0.009 A 
HETATM   29  C   UNL     1       7.433  32.978  63.672  1.00  0.00     0.001 A 
HETATM   30  C   UNL     1       8.465  32.350  62.977  1.00  0.00     0.000 A 
HETATM   31  C   UNL     1       8.251  31.897  61.677  1.00  0.00     0.001 A 
HETATM   32  C   UNL     1       7.003  32.065  61.072  1.00  0.00     0.009 A 
ENDBRANCH  25  27
ENDBRANCH  22  25
ENDBRANCH  20  21
ENDBRANCH   1  20
BRANCH   8  33
HETATM   33  C   UNL     1       6.317  24.210  53.773  1.00  0.00     0.278 C 
BRANCH  33  34
HETATM   34  O   UNL     1       7.727  24.003  53.762  1.00  0.00    -0.342 OA
BRANCH  34  35
HETATM   35  C   UNL     1       8.119  22.725  54.049  1.00  0.00     0.069 A 
HETATM   36  C   UNL     1       8.749  22.338  55.232  1.00  0.00     0.037 A 
HETATM   37  C   UNL     1       9.134  21.006  55.414  1.00  0.00     0.003 A 
HETATM   38  C   UNL     1       8.897  20.065  54.413  1.00  0.00     0.000 A 
HETATM   39  C   UNL     1       8.283  20.454  53.224  1.00  0.00     0.003 A 
HETATM   40  C   UNL     1       7.905  21.785  53.040  1.00  0.00     0.037 A 
ENDBRANCH  34  35
ENDBRANCH  33  34
ENDBRANCH   8  33
TORSDOF 8
ENDMDL
MODEL 2
REMARK VINA RESULT:     -10.5      2.369      9.792
REMARK  8 active torsions:
REMARK  status: ('A' for Active; 'I' for Inactive)
REMARK    1  A    between atoms: C_2  and  N_3 
REMARK    2  A    between atoms: C_2  and  C_34 
REMARK       I    between atoms: N_3  and  C_4 
REMARK    3  A    between atoms: C_4  and  C_5 
REMARK    4  A    between atoms: C_5  and  N_6 
REMARK       I    between atoms: N_12  and  C_13 
REMARK    5  A    between atoms: C_13  and  C_14 
REMARK    6  A    between atoms: C_14  and  O_15 
REMARK    7  A    between atoms: O_15  and  C_16 
REMARK    8  A    between atoms: N_25  and  C_26 
ROOT
HETATM    1  N   UNL     1       5.478  27.214  55.635  1.00  0.00    -0.325 N 
HETATM    2  C   UNL     1       6.526  27.666  56.409  1.00  0.00     0.250 C 
HETATM    3  O   UNL     1       7.335  26.947  56.978  1.00  0.00    -0.270 OA
HETATM    4  C   UNL     1       6.485  29.209  56.432  1.00  0.00     0.118 C 
HETATM    5  C   UNL     1       7.681  29.717  55.616  1.00  0.00     0.061 C 
HETATM    6  C   UNL     1       8.995  29.614  56.384  1.00  0.00     0.129 C 
HETATM    7  N   UNL     1       8.885  30.162  57.732  1.00  0.00    -0.350 N 
HETATM    8  C   UNL     1       9.984  30.854  58.250  1.00  0.00     0.244 C 
HETATM    9  O   UNL     1      10.998  31.066  57.581  1.00  0.00    -0.271 OA
HETATM   10  C   UNL     1       7.837  29.575  58.562  1.00  0.00     0.129 C 
HETATM   11  C   UNL     1       6.467  29.658  57.900  1.00  0.00     0.061 C 
HETATM   12  N   UNL     1       5.189  29.490  55.749  1.00  0.00    -0.346 N 
HETATM   13  C   UNL     1       4.560  28.257  55.290  1.00  0.00     0.254 C 
ENDROOT
BRANCH  12  14
HETATM   14  C   UNL     1       4.561  30.706  55.545  1.00  0.00     0.032 A 
HETATM   15  C   UNL     1       3.293  30.830  54.957  1.00  0.00     0.029 A 
HETATM   16  C   UNL     1       2.675  32.072  54.743  1.00  0.00     0.002 A 
HETATM   17  C   UNL     1       3.312  33.245  55.117  1.00  0.00     0.000 A 
HETATM   18  C   UNL     1       4.563  33.170  55.709  1.00  0.00     0.002 A 
HETATM   19  C   UNL     1       5.168  31.923  55.919  1.00  0.00     0.029 A 
ENDBRANCH  12  14
BRANCH   1  20
HETATM   20  C   UNL     1       5.092  25.812  55.630  1.00  0.00     0.230 C 
BRANCH  20  21
HETATM   21  C   UNL     1       5.392  25.003  54.359  1.00  0.00     0.236 C 
HETATM   22  N   UNL     1       6.606  24.351  54.386  1.00  0.00    -0.351 N 
HETATM   23  H   UNL     1       7.232  24.482  55.170  1.00  0.00     0.163 HD
HETATM   24  O   UNL     1       4.598  24.883  53.430  1.00  0.00    -0.272 OA
BRANCH  22  25
HETATM   25  C   UNL     1       7.065  23.540  53.267  1.00  0.00     0.113 C 
HETATM   26  C   UNL     1       8.019  24.326  52.364  1.00  0.00     0.037 C 
BRANCH  25  27
HETATM   27  C   UNL     1       7.700  22.256  53.768  1.00  0.00    -0.036 A 
HETATM   28  C   UNL     1       7.824  22.030  55.148  1.00  0.00     0.009 A 
HETATM   29  C   UNL     1       8.392  20.850  55.629  1.00  0.00     0.001 A 
HETATM   30  C   UNL     1       8.851  19.881  54.739  1.00  0.00     0.000 A 
HETATM   31  C   UNL     1       8.742  20.093  53.367  1.00  0.00     0.001 A 
HETATM   32  C   UNL     1       8.170  21.271  52.883  1.00  0.00     0.009 A 
ENDBRANCH  25  27
ENDBRANCH  22  25
ENDBRANCH  20  21
ENDBRANCH   1  20
BRANCH   8  33
HETATM   33  C   UNL     1       9.912  31.348  59.696  1.00  0.00     0.278 C 
BRANCH  33  34
HETATM   34  O   UNL     1       9.044  32.476  59.772  1.00  0.00    -0.342 OA
BRANCH  34  35
HETATM   35  C   UNL     1       8.266  32.523  60.895  1.00  0.00     0.069 A 
HETATM   36  C   UNL     1       8.749  32.406  62.198  1.00  0.00     0.037 A 
HETATM   37  C   UNL     1       7.862  32.440  63.278  1.00  0.00     0.003 A 
HETATM   38  C   UNL     1       6.493  32.585  63.056  1.00  0.00     0.000 A 
HETATM   39  C   UNL     1       6.007  32.686  61.754  1.00  0.00     0.003 A 
HETATM   40  C   UNL     1       6.892  32.644  60.676  1.00  0.00     0.037 A 
ENDBRANCH  34  35
ENDBRANCH  33  34
ENDBRANCH   8  33
TORSDOF 8
ENDMDL
MODEL 3
REMARK VINA RESULT:     -10.3      3.605      6.754
REMARK  8 active torsions:
REMARK  status: ('A' for Active; 'I' for Inactive)
REMARK    1  A    between atoms: C_2  and  N_3 
REMARK    2  A    between atoms: C_2  and  C_34 
REMARK       I    between atoms: N_3  and  C_4 
REMARK    3  A    between atoms: C_4  and  C_5 
REMARK    4  A    between atoms: C_5  and  N_6 
REMARK       I    between atoms: N_12  and  C_13 
REMARK    5  A    between atoms: C_13  and  C_14 
REMARK    6  A    between atoms: C_14  and  O_15 
REMARK    7  A    between atoms: O_15  and  C_16 
REMARK    8  A    between atoms: N_25  and  C_26 
ROOT
HETATM    1  N   UNL     1       7.358  26.535  56.437  1.00  0.00    -0.325 N 
HETATM    2  C   UNL     1       6.661  26.984  55.335  1.00  0.00     0.250 C 
HETATM    3  O   UNL     1       6.110  28.074  55.254  1.00  0.00    -0.270 OA
HETATM    4  C   UNL     1       6.693  25.882  54.255  1.00  0.00     0.118 C 
HETATM    5  C   UNL     1       7.592  26.377  53.114  1.00  0.00     0.061 C 
HETATM    6  C   UNL     1       6.895  27.404  52.227  1.00  0.00     0.129 C 
HETATM    7  N   UNL     1       5.563  26.962  51.822  1.00  0.00    -0.350 N 
HETATM    8  C   UNL     1       5.134  27.277  50.530  1.00  0.00     0.244 C 
HETATM    9  O   UNL     1       5.864  27.849  49.718  1.00  0.00    -0.271 OA
HETATM   10  C   UNL     1       4.656  26.628  52.915  1.00  0.00     0.129 C 
HETATM   11  C   UNL     1       5.245  25.577  53.850  1.00  0.00     0.061 C 
HETATM   12  N   UNL     1       7.314  24.747  54.996  1.00  0.00    -0.346 N 
HETATM   13  C   UNL     1       7.691  25.145  56.347  1.00  0.00     0.254 C 
ENDROOT
BRANCH  12  14
HETATM   14  C   UNL     1       7.528  23.448  54.572  1.00  0.00     0.032 A 
HETATM   15  C   UNL     1       7.714  23.095  53.226  1.00  0.00     0.029 A 
HETATM   16  C   UNL     1       7.915  21.770  52.810  1.00  0.00     0.002 A 
HETATM   17  C   UNL     1       7.941  20.741  53.738  1.00  0.00     0.000 A 
HETATM   18  C   UNL     1       7.771  21.043  55.080  1.00  0.00     0.002 A 
HETATM   19  C   UNL     1       7.573  22.371  55.482  1.00  0.00     0.029 A 
ENDBRANCH  12  14
BRANCH   1  20
HETATM   20  C   UNL     1       7.289  27.233  57.711  1.00  0.00     0.230 C 
BRANCH  20  21
HETATM   21  C   UNL     1       7.822  28.673  57.755  1.00  0.00     0.236 C 
HETATM   22  N   UNL     1       6.969  29.566  58.370  1.00  0.00    -0.351 N 
HETATM   23  H   UNL     1       6.059  29.258  58.686  1.00  0.00     0.163 HD
HETATM   24  O   UNL     1       8.935  28.996  57.348  1.00  0.00    -0.272 OA
BRANCH  22  25
HETATM   25  C   UNL     1       7.302  30.977  58.500  1.00  0.00     0.113 C 
HETATM   26  C   UNL     1       6.136  31.867  58.064  1.00  0.00     0.037 C 
BRANCH  25  27
HETATM   27  C   UNL     1       7.742  31.289  59.919  1.00  0.00    -0.036 A 
HETATM   28  C   UNL     1       7.031  32.232  60.679  1.00  0.00     0.009 A 
HETATM   29  C   UNL     1       7.410  32.524  61.990  1.00  0.00     0.001 A 
HETATM   30  C   UNL     1       8.508  31.883  62.559  1.00  0.00     0.000 A 
HETATM   31  C   UNL     1       9.229  30.950  61.816  1.00  0.00     0.001 A 
HETATM   32  C   UNL     1       8.849  30.653  60.506  1.00  0.00     0.009 A 
ENDBRANCH  25  27
ENDBRANCH  22  25
ENDBRANCH  20  21
ENDBRANCH   1  20
BRANCH   8  33
HETATM   33  C   UNL     1       3.704  26.901  50.130  1.00  0.00     0.278 C 
BRANCH  33  34
HETATM   34  O   UNL     1       3.660  26.612  48.736  1.00  0.00    -0.342 OA
BRANCH  34  35
HETATM   35  C   UNL     1       2.703  27.296  48.040  1.00  0.00     0.069 A 
HETATM   36  C   UNL     1       1.436  26.796  47.738  1.00  0.00     0.037 A 
HETATM   37  C   UNL     1       0.540  27.570  46.995  1.00  0.00     0.003 A 
HETATM   38  C   UNL     1       0.911  28.838  46.549  1.00  0.00     0.000 A 
HETATM   39  C   UNL     1       2.182  29.331  46.835  1.00  0.00     0.003 A 
HETATM   40  C   UNL     1       3.079  28.555  47.571  1.00  0.00     0.037 A 
ENDBRANCH  34  35
ENDBRANCH  33  34
ENDBRANCH   8  33
TORSDOF 8
ENDMDL
MODEL 4
REMARK VINA RESULT:      -9.8      1.752      2.587
REMARK  8 active torsions:
REMARK  status: ('A' for Active; 'I' for Inactive)
REMARK    1  A    between atoms: C_2  and  N_3 
REMARK    2  A    between atoms: C_2  and  C_34 
REMARK       I    between atoms: N_3  and  C_4 
REMARK    3  A    between atoms: C_4  and  C_5 
REMARK    4  A    between atoms: C_5  and  N_6 
REMARK       I    between atoms: N_12  and  C_13 
REMARK    5  A    between atoms: C_13  and  C_14 
REMARK    6  A    between atoms: C_14  and  O_15 
REMARK    7  A    between atoms: O_15  and  C_16 
REMARK    8  A    between atoms: N_25  and  C_26 
ROOT
HETATM    1  N   UNL     1       4.190  31.590  58.909  1.00  0.00    -0.325 N 
HETATM    2  C   UNL     1       3.885  30.825  57.803  1.00  0.00     0.250 C 
HETATM    3  O   UNL     1       2.752  30.524  57.453  1.00  0.00    -0.270 OA
HETATM    4  C   UNL     1       5.205  30.419  57.112  1.00  0.00     0.118 C 
HETATM    5  C   UNL     1       5.289  31.187  55.786  1.00  0.00     0.061 C 
HETATM    6  C   UNL     1       4.392  30.588  54.708  1.00  0.00     0.129 C 
HETATM    7  N   UNL     1       4.558  29.141  54.600  1.00  0.00    -0.350 N 
HETATM    8  C   UNL     1       4.499  28.569  53.326  1.00  0.00     0.244 C 
HETATM    9  O   UNL     1       4.379  29.251  52.306  1.00  0.00    -0.271 OA
HETATM   10  C   UNL     1       4.334  28.392  55.832  1.00  0.00     0.129 C 
HETATM   11  C   UNL     1       5.213  28.890  56.974  1.00  0.00     0.061 C 
HETATM   12  N   UNL     1       6.221  30.895  58.093  1.00  0.00    -0.346 N 
HETATM   13  C   UNL     1       5.590  31.585  59.211  1.00  0.00     0.254 C 
ENDROOT
BRANCH  12  14
HETATM   14  C   UNL     1       7.595  30.736  58.065  1.00  0.00     0.032 A 
HETATM   15  C   UNL     1       8.248  29.795  57.252  1.00  0.00     0.029 A 
HETATM   16  C   UNL     1       9.642  29.636  57.245  1.00  0.00     0.002 A 
HETATM   17  C   UNL     1      10.441  30.425  58.059  1.00  0.00     0.000 A 
HETATM   18  C   UNL     1       9.841  31.373  58.872  1.00  0.00     0.002 A 
HETATM   19  C   UNL     1       8.447  31.524  58.867  1.00  0.00     0.029 A 
ENDBRANCH  12  14
BRANCH   1  20
HETATM   20  C   UNL     1       3.184  31.906  59.910  1.00  0.00     0.230 C 
BRANCH  20  21
HETATM   21  C   UNL     1       3.660  32.612  61.189  1.00  0.00     0.236 C 
HETATM   22  N   UNL     1       4.108  33.899  60.982  1.00  0.00    -0.351 N 
HETATM   23  H   UNL     1       4.159  34.271  60.042  1.00  0.00     0.163 HD
HETATM   24  O   UNL     1       3.583  32.111  62.308  1.00  0.00    -0.272 OA
BRANCH  22  25
HETATM   25  C   UNL     1       4.604  34.722  62.075  1.00  0.00     0.113 C 
HETATM   26  C   UNL     1       3.502  35.015  63.097  1.00  0.00     0.037 C 
BRANCH  25  27
HETATM   27  C   UNL     1       5.810  34.068  62.727  1.00  0.00    -0.036 A 
HETATM   28  C   UNL     1       5.939  34.080  64.125  1.00  0.00     0.009 A 
HETATM   29  C   UNL     1       7.032  33.472  64.745  1.00  0.00     0.001 A 
HETATM   30  C   UNL     1       8.014  32.850  63.977  1.00  0.00     0.000 A 
HETATM   31  C   UNL     1       7.904  32.835  62.589  1.00  0.00     0.001 A 
HETATM   32  C   UNL     1       6.809  33.439  61.966  1.00  0.00     0.009 A 
ENDBRANCH  25  27
ENDBRANCH  22  25
ENDBRANCH  20  21
ENDBRANCH   1  20
BRANCH   8  33
HETATM   33  C   UNL     1       4.577  27.044  53.213  1.00  0.00     0.278 C 
BRANCH  33  34
HETATM   34  O   UNL     1       5.708  26.682  52.427  1.00  0.00    -0.342 OA
BRANCH  34  35
HETATM   35  C   UNL     1       6.397  25.593  52.884  1.00  0.00     0.069 A 
HETATM   36  C   UNL     1       7.336  24.881  52.138  1.00  0.00     0.037 A 
HETATM   37  C   UNL     1       7.964  23.762  52.693  1.00  0.00     0.003 A 
HETATM   38  C   UNL     1       7.649  23.350  53.987  1.00  0.00     0.000 A 
HETATM   39  C   UNL     1       6.698  24.051  54.727  1.00  0.00     0.003 A 
HETATM   40  C   UNL     1       6.066  25.163  54.170  1.00  0.00     0.037 A 
ENDBRANCH  34  35
ENDBRANCH  33  34
ENDBRANCH   8  33
TORSDOF 8
ENDMDL
MODEL 5
REMARK VINA RESULT:      -9.8      4.085     10.314
REMARK  8 active torsions:
REMARK  status: ('A' for Active; 'I' for Inactive)
REMARK    1  A    between atoms: C_2  and  N_3 
REMARK    2  A    between atoms: C_2  and  C_34 
REMARK       I    between atoms: N_3  and  C_4 
REMARK    3  A    between atoms: C_4  and  C_5 
REMARK    4  A    between atoms: C_5  and  N_6 
REMARK       I    between atoms: N_12  and  C_13 
REMARK    5  A    between atoms: C_13  and  C_14 
REMARK    6  A    between atoms: C_14  and  O_15 
REMARK    7  A    between atoms: O_15  and  C_16 
REMARK    8  A    between atoms: N_25  and  C_26 
ROOT
HETATM    1  N   UNL     1       5.677  26.648  51.300  1.00  0.00    -0.325 N 
HETATM    2  C   UNL     1       5.829  27.507  52.368  1.00  0.00     0.250 C 
HETATM    3  O   UNL     1       5.643  28.715  52.325  1.00  0.00    -0.270 OA
HETATM    4  C   UNL     1       6.277  26.684  53.596  1.00  0.00     0.118 C 
HETATM    5  C   UNL     1       5.105  26.653  54.585  1.00  0.00     0.061 C 
HETATM    6  C   UNL     1       4.959  27.961  55.357  1.00  0.00     0.129 C 
HETATM    7  N   UNL     1       6.231  28.413  55.913  1.00  0.00    -0.350 N 
HETATM    8  C   UNL     1       6.216  29.023  57.170  1.00  0.00     0.244 C 
HETATM    9  O   UNL     1       5.183  29.126  57.836  1.00  0.00    -0.271 OA
HETATM   10  C   UNL     1       7.311  28.583  54.946  1.00  0.00     0.129 C 
HETATM   11  C   UNL     1       7.566  27.315  54.140  1.00  0.00     0.061 C 
HETATM   12  N   UNL     1       6.526  25.344  52.990  1.00  0.00    -0.346 N 
HETATM   13  C   UNL     1       6.185  25.337  51.573  1.00  0.00     0.254 C 
ENDROOT
BRANCH  12  14
HETATM   14  C   UNL     1       7.032  24.203  53.587  1.00  0.00     0.032 A 
HETATM   15  C   UNL     1       7.641  23.162  52.869  1.00  0.00     0.029 A 
HETATM   16  C   UNL     1       8.136  22.003  53.486  1.00  0.00     0.002 A 
HETATM   17  C   UNL     1       8.039  21.847  54.860  1.00  0.00     0.000 A 
HETATM   18  C   UNL     1       7.453  22.853  55.611  1.00  0.00     0.002 A 
HETATM   19  C   UNL     1       6.964  24.006  54.982  1.00  0.00     0.029 A 
ENDBRANCH  12  14
BRANCH   1  20
HETATM   20  C   UNL     1       5.516  27.149  49.944  1.00  0.00     0.230 C 
BRANCH  20  21
HETATM   21  C   UNL     1       4.083  27.278  49.407  1.00  0.00     0.236 C 
HETATM   22  N   UNL     1       3.507  28.508  49.643  1.00  0.00    -0.351 N 
HETATM   23  H   UNL     1       4.004  29.203  50.186  1.00  0.00     0.163 HD
HETATM   24  O   UNL     1       3.520  26.398  48.759  1.00  0.00    -0.272 OA
BRANCH  22  25
HETATM   25  C   UNL     1       2.151  28.814  49.212  1.00  0.00     0.113 C 
HETATM   26  C   UNL     1       1.363  29.529  50.313  1.00  0.00     0.037 C 
BRANCH  25  27
HETATM   27  C   UNL     1       2.172  29.622  47.927  1.00  0.00    -0.036 A 
HETATM   28  C   UNL     1       0.991  29.784  47.185  1.00  0.00     0.009 A 
HETATM   29  C   UNL     1       0.986  30.535  46.008  1.00  0.00     0.001 A 
HETATM   30  C   UNL     1       2.161  31.129  45.553  1.00  0.00     0.000 A 
HETATM   31  C   UNL     1       3.343  30.972  46.274  1.00  0.00     0.001 A 
HETATM   32  C   UNL     1       3.350  30.225  47.454  1.00  0.00     0.009 A 
ENDBRANCH  25  27
ENDBRANCH  22  25
ENDBRANCH  20  21
ENDBRANCH   1  20
BRANCH   8  33
HETATM   33  C   UNL     1       7.530  29.585  57.718  1.00  0.00     0.278 C 
BRANCH  33  34
HETATM   34  O   UNL     1       7.321  30.914  58.188  1.00  0.00    -0.342 OA
BRANCH  34  35
HETATM   35  C   UNL     1       7.828  31.167  59.432  1.00  0.00     0.069 A 
HETATM   36  C   UNL     1       8.799  30.390  60.063  1.00  0.00     0.037 A 
HETATM   37  C   UNL     1       9.230  30.721  61.351  1.00  0.00     0.003 A 
HETATM   38  C   UNL     1       8.685  31.823  62.010  1.00  0.00     0.000 A 
HETATM   39  C   UNL     1       7.703  32.590  61.387  1.00  0.00     0.003 A 
HETATM   40  C   UNL     1       7.268  32.254  60.104  1.00  0.00     0.037 A 
ENDBRANCH  34  35
ENDBRANCH  33  34
ENDBRANCH   8  33
TORSDOF 8
ENDMDL
MODEL 6
REMARK VINA RESULT:      -9.7      2.992      9.659
REMARK  8 active torsions:
REMARK  status: ('A' for Active; 'I' for Inactive)
REMARK    1  A    between atoms: C_2  and  N_3 
REMARK    2  A    between atoms: C_2  and  C_34 
REMARK       I    between atoms: N_3  and  C_4 
REMARK    3  A    between atoms: C_4  and  C_5 
REMARK    4  A    between atoms: C_5  and  N_6 
REMARK       I    between atoms: N_12  and  C_13 
REMARK    5  A    between atoms: C_13  and  C_14 
REMARK    6  A    between atoms: C_14  and  O_15 
REMARK    7  A    between atoms: O_15  and  C_16 
REMARK    8  A    between atoms: N_25  and  C_26 
ROOT
HETATM    1  N   UNL     1       5.687  27.155  56.965  1.00  0.00    -0.325 N 
HETATM    2  C   UNL     1       4.937  28.241  56.565  1.00  0.00     0.250 C 
HETATM    3  O   UNL     1       3.809  28.176  56.096  1.00  0.00    -0.270 OA
HETATM    4  C   UNL     1       5.767  29.521  56.804  1.00  0.00     0.118 C 
HETATM    5  C   UNL     1       5.117  30.284  57.966  1.00  0.00     0.061 C 
HETATM    6  C   UNL     1       3.855  31.029  57.541  1.00  0.00     0.129 C 
HETATM    7  N   UNL     1       4.064  31.809  56.324  1.00  0.00    -0.350 N 
HETATM    8  C   UNL     1       3.427  33.048  56.223  1.00  0.00     0.244 C 
HETATM    9  O   UNL     1       2.761  33.519  57.148  1.00  0.00    -0.271 OA
HETATM   10  C   UNL     1       4.546  31.053  55.172  1.00  0.00     0.129 C 
HETATM   11  C   UNL     1       5.831  30.293  55.479  1.00  0.00     0.061 C 
HETATM   12  N   UNL     1       7.094  28.957  57.185  1.00  0.00    -0.346 N 
HETATM   13  C   UNL     1       7.047  27.502  57.250  1.00  0.00     0.254 C 
ENDROOT
BRANCH  12  14
HETATM   14  C   UNL     1       8.279  29.624  57.437  1.00  0.00     0.032 A 
HETATM   15  C   UNL     1       8.407  30.633  58.405  1.00  0.00     0.029 A 
HETATM   16  C   UNL     1       9.613  31.311  58.639  1.00  0.00     0.002 A 
HETATM   17  C   UNL     1      10.747  30.997  57.906  1.00  0.00     0.000 A 
HETATM   18  C   UNL     1      10.670  30.000  56.946  1.00  0.00     0.002 A 
HETATM   19  C   UNL     1       9.460  29.329  56.723  1.00  0.00     0.029 A 
ENDBRANCH  12  14
BRANCH   1  20
HETATM   20  C   UNL     1       5.290  25.797  56.628  1.00  0.00     0.230 C 
BRANCH  20  21
HETATM   21  C   UNL     1       5.595  25.306  55.205  1.00  0.00     0.236 C 
HETATM   22  N   UNL     1       6.598  24.361  55.144  1.00  0.00    -0.351 N 
HETATM   23  H   UNL     1       7.098  24.101  55.984  1.00  0.00     0.163 HD
HETATM   24  O   UNL     1       4.961  25.661  54.215  1.00  0.00    -0.272 OA
BRANCH  22  25
HETATM   25  C   UNL     1       7.029  23.783  53.879  1.00  0.00     0.113 C 
HETATM   26  C   UNL     1       7.994  24.715  53.141  1.00  0.00     0.037 C 
BRANCH  25  27
HETATM   27  C   UNL     1       7.640  22.412  54.103  1.00  0.00    -0.036 A 
HETATM   28  C   UNL     1       8.087  21.659  53.005  1.00  0.00     0.009 A 
HETATM   29  C   UNL     1       8.664  20.402  53.190  1.00  0.00     0.001 A 
HETATM   30  C   UNL     1       8.797  19.876  54.473  1.00  0.00     0.000 A 
HETATM   31  C   UNL     1       8.352  20.607  55.573  1.00  0.00     0.001 A 
HETATM   32  C   UNL     1       7.779  21.867  55.391  1.00  0.00     0.009 A 
ENDBRANCH  25  27
ENDBRANCH  22  25
ENDBRANCH  20  21
ENDBRANCH   1  20
BRANCH   8  33
HETATM   33  C   UNL     1       3.564  33.828  54.914  1.00  0.00     0.278 C 
BRANCH  33  34
HETATM   34  O   UNL     1       4.867  33.628  54.374  1.00  0.00    -0.342 OA
BRANCH  34  35
HETATM   35  C   UNL     1       5.606  34.768  54.225  1.00  0.00     0.069 A 
HETATM   36  C   UNL     1       6.489  35.007  53.172  1.00  0.00     0.037 A 
HETATM   37  C   UNL     1       7.218  36.199  53.129  1.00  0.00     0.003 A 
HETATM   38  C   UNL     1       7.071  37.147  54.141  1.00  0.00     0.000 A 
HETATM   39  C   UNL     1       6.202  36.902  55.202  1.00  0.00     0.003 A 
HETATM   40  C   UNL     1       5.479  35.710  55.248  1.00  0.00     0.037 A 
ENDBRANCH  34  35
ENDBRANCH  33  34
ENDBRANCH   8  33
TORSDOF 8
ENDMDL
MODEL 7
REMARK VINA RESULT:      -9.7      2.013      3.737
REMARK  8 active torsions:
REMARK  status: ('A' for Active; 'I' for Inactive)
REMARK    1  A    between atoms: C_2  and  N_3 
REMARK    2  A    between atoms: C_2  and  C_34 
REMARK       I    between atoms: N_3  and  C_4 
REMARK    3  A    between atoms: C_4  and  C_5 
REMARK    4  A    between atoms: C_5  and  N_6 
REMARK       I    between atoms: N_12  and  C_13 
REMARK    5  A    between atoms: C_13  and  C_14 
REMARK    6  A    between atoms: C_14  and  O_15 
REMARK    7  A    between atoms: O_15  and  C_16 
REMARK    8  A    between atoms: N_25  and  C_26 
ROOT
HETATM    1  N   UNL     1       5.356  31.347  57.041  1.00  0.00    -0.325 N 
HETATM    2  C   UNL     1       5.915  30.086  57.044  1.00  0.00     0.250 C 
HETATM    3  O   UNL     1       6.707  29.676  57.881  1.00  0.00    -0.270 OA
HETATM    4  C   UNL     1       5.381  29.312  55.820  1.00  0.00     0.118 C 
HETATM    5  C   UNL     1       4.438  28.219  56.338  1.00  0.00     0.061 C 
HETATM    6  C   UNL     1       5.192  27.028  56.921  1.00  0.00     0.129 C 
HETATM    7  N   UNL     1       6.253  26.564  56.031  1.00  0.00    -0.350 N 
HETATM    8  C   UNL     1       6.487  25.188  55.954  1.00  0.00     0.244 C 
HETATM    9  O   UNL     1       5.788  24.369  56.556  1.00  0.00    -0.271 OA
HETATM   10  C   UNL     1       7.237  27.573  55.652  1.00  0.00     0.129 C 
HETATM   11  C   UNL     1       6.588  28.800  55.023  1.00  0.00     0.061 C 
HETATM   12  N   UNL     1       4.641  30.378  55.085  1.00  0.00    -0.346 N 
HETATM   13  C   UNL     1       4.656  31.634  55.825  1.00  0.00     0.254 C 
ENDROOT
BRANCH  12  14
HETATM   14  C   UNL     1       4.012  30.307  53.855  1.00  0.00     0.032 A 
HETATM   15  C   UNL     1       3.716  29.097  53.207  1.00  0.00     0.029 A 
HETATM   16  C   UNL     1       3.091  29.042  51.952  1.00  0.00     0.002 A 
HETATM   17  C   UNL     1       2.734  30.210  51.295  1.00  0.00     0.000 A 
HETATM   18  C   UNL     1       2.999  31.428  51.901  1.00  0.00     0.002 A 
HETATM   19  C   UNL     1       3.621  31.469  53.156  1.00  0.00     0.029 A 
ENDBRANCH  12  14
BRANCH   1  20
HETATM   20  C   UNL     1       5.856  32.398  57.913  1.00  0.00     0.230 C 
BRANCH  20  21
HETATM   21  C   UNL     1       4.941  32.858  59.058  1.00  0.00     0.236 C 
HETATM   22  N   UNL     1       5.484  32.680  60.312  1.00  0.00    -0.351 N 
HETATM   23  H   UNL     1       6.380  32.221  60.414  1.00  0.00     0.163 HD
HETATM   24  O   UNL     1       3.855  33.404  58.879  1.00  0.00    -0.272 OA
BRANCH  22  25
HETATM   25  C   UNL     1       4.760  33.052  61.519  1.00  0.00     0.113 C 
HETATM   26  C   UNL     1       3.677  32.025  61.859  1.00  0.00     0.037 C 
BRANCH  25  27
HETATM   27  C   UNL     1       5.724  33.249  62.676  1.00  0.00    -0.036 A 
HETATM   28  C   UNL     1       6.991  32.645  62.639  1.00  0.00     0.009 A 
HETATM   29  C   UNL     1       7.897  32.826  63.686  1.00  0.00     0.001 A 
HETATM   30  C   UNL     1       7.548  33.607  64.786  1.00  0.00     0.000 A 
HETATM   31  C   UNL     1       6.292  34.207  64.840  1.00  0.00     0.001 A 
HETATM   32  C   UNL     1       5.386  34.032  63.793  1.00  0.00     0.009 A 
ENDBRANCH  25  27
ENDBRANCH  22  25
ENDBRANCH  20  21
ENDBRANCH   1  20
BRANCH   8  33
HETATM   33  C   UNL     1       7.658  24.700  55.098  1.00  0.00     0.278 C 
BRANCH  33  34
HETATM   34  O   UNL     1       7.177  23.807  54.097  1.00  0.00    -0.342 OA
BRANCH  34  35
HETATM   35  C   UNL     1       7.649  22.528  54.199  1.00  0.00     0.069 A 
HETATM   36  C   UNL     1       7.906  21.873  55.403  1.00  0.00     0.037 A 
HETATM   37  C   UNL     1       8.414  20.571  55.395  1.00  0.00     0.003 A 
HETATM   38  C   UNL     1       8.672  19.927  54.186  1.00  0.00     0.000 A 
HETATM   39  C   UNL     1       8.432  20.586  52.982  1.00  0.00     0.003 A 
HETATM   40  C   UNL     1       7.931  21.888  52.990  1.00  0.00     0.037 A 
ENDBRANCH  34  35
ENDBRANCH  33  34
ENDBRANCH   8  33
TORSDOF 8
ENDMDL
MODEL 8
REMARK VINA RESULT:      -9.6      4.079     10.010
REMARK  8 active torsions:
REMARK  status: ('A' for Active; 'I' for Inactive)
REMARK    1  A    between atoms: C_2  and  N_3 
REMARK    2  A    between atoms: C_2  and  C_34 
REMARK       I    between atoms: N_3  and  C_4 
REMARK    3  A    between atoms: C_4  and  C_5 
REMARK    4  A    between atoms: C_5  and  N_6 
REMARK       I    between atoms: N_12  and  C_13 
REMARK    5  A    between atoms: C_13  and  C_14 
REMARK    6  A    between atoms: C_14  and  O_15 
REMARK    7  A    between atoms: O_15  and  C_16 
REMARK    8  A    between atoms: N_25  and  C_26 
ROOT
HETATM    1  N   UNL     1       5.580  26.875  51.419  1.00  0.00    -0.325 N 
HETATM    2  C   UNL     1       5.826  27.718  52.481  1.00  0.00     0.250 C 
HETATM    3  O   UNL     1       5.695  28.934  52.452  1.00  0.00    -0.270 OA
HETATM    4  C   UNL     1       6.295  26.868  53.681  1.00  0.00     0.118 C 
HETATM    5  C   UNL     1       5.174  26.886  54.729  1.00  0.00     0.061 C 
HETATM    6  C   UNL     1       5.129  28.194  55.511  1.00  0.00     0.129 C 
HETATM    7  N   UNL     1       6.447  28.582  56.005  1.00  0.00    -0.350 N 
HETATM    8  C   UNL     1       6.523  29.184  57.264  1.00  0.00     0.244 C 
HETATM    9  O   UNL     1       5.531  29.331  57.981  1.00  0.00    -0.271 OA
HETATM   10  C   UNL     1       7.484  28.708  54.986  1.00  0.00     0.129 C 
HETATM   11  C   UNL     1       7.638  27.434  54.163  1.00  0.00     0.061 C 
HETATM   12  N   UNL     1       6.450  25.522  53.059  1.00  0.00    -0.346 N 
HETATM   13  C   UNL     1       6.039  25.540  51.660  1.00  0.00     0.254 C 
ENDROOT
BRANCH  12  14
HETATM   14  C   UNL     1       6.930  24.354  53.624  1.00  0.00     0.032 A 
HETATM   15  C   UNL     1       6.855  24.073  54.998  1.00  0.00     0.029 A 
HETATM   16  C   UNL     1       7.361  22.891  55.559  1.00  0.00     0.002 A 
HETATM   17  C   UNL     1       7.965  21.937  54.754  1.00  0.00     0.000 A 
HETATM   18  C   UNL     1       8.054  22.168  53.391  1.00  0.00     0.002 A 
HETATM   19  C   UNL     1       7.542  23.352  52.843  1.00  0.00     0.029 A 
ENDBRANCH  12  14
BRANCH   1  20
HETATM   20  C   UNL     1       5.375  27.391  50.075  1.00  0.00     0.230 C 
BRANCH  20  21
HETATM   21  C   UNL     1       4.596  28.708  49.937  1.00  0.00     0.236 C 
HETATM   22  N   UNL     1       5.387  29.794  49.625  1.00  0.00    -0.351 N 
HETATM   23  H   UNL     1       6.391  29.688  49.569  1.00  0.00     0.163 HD
HETATM   24  O   UNL     1       3.373  28.784  50.023  1.00  0.00    -0.272 OA
BRANCH  22  25
HETATM   25  C   UNL     1       4.825  31.127  49.461  1.00  0.00     0.113 C 
HETATM   26  C   UNL     1       5.386  32.100  50.501  1.00  0.00     0.037 C 
BRANCH  25  27
HETATM   27  C   UNL     1       5.055  31.629  48.046  1.00  0.00    -0.036 A 
HETATM   28  C   UNL     1       4.531  30.912  46.958  1.00  0.00     0.009 A 
HETATM   29  C   UNL     1       4.718  31.364  45.651  1.00  0.00     0.001 A 
HETATM   30  C   UNL     1       5.437  32.533  45.411  1.00  0.00     0.000 A 
HETATM   31  C   UNL     1       5.969  33.252  46.480  1.00  0.00     0.001 A 
HETATM   32  C   UNL     1       5.779  32.805  47.789  1.00  0.00     0.009 A 
ENDBRANCH  25  27
ENDBRANCH  22  25
ENDBRANCH  20  21
ENDBRANCH   1  20
BRANCH   8  33
HETATM   33  C   UNL     1       7.888  29.680  57.747  1.00  0.00     0.278 C 
BRANCH  33  34
HETATM   34  O   UNL     1       7.787  31.046  58.141  1.00  0.00    -0.342 OA
BRANCH  34  35
HETATM   35  C   UNL     1       8.117  31.291  59.444  1.00  0.00     0.069 A 
HETATM   36  C   UNL     1       9.125  30.627  60.144  1.00  0.00     0.037 A 
HETATM   37  C   UNL     1       9.363  30.936  61.486  1.00  0.00     0.003 A 
HETATM   38  C   UNL     1       8.590  31.901  62.131  1.00  0.00     0.000 A 
HETATM   39  C   UNL     1       7.572  32.553  61.438  1.00  0.00     0.003 A 
HETATM   40  C   UNL     1       7.330  32.239  60.100  1.00  0.00     0.037 A 
ENDBRANCH  34  35
ENDBRANCH  33  34
ENDBRANCH   8  33
TORSDOF 8
ENDMDL
MODEL 9
REMARK VINA RESULT:      -9.5      2.901      9.324
REMARK  8 active torsions:
REMARK  status: ('A' for Active; 'I' for Inactive)
REMARK    1  A    between atoms: C_2  and  N_3 
REMARK    2  A    between atoms: C_2  and  C_34 
REMARK       I    between atoms: N_3  and  C_4 
REMARK    3  A    between atoms: C_4  and  C_5 
REMARK    4  A    between atoms: C_5  and  N_6 
REMARK       I    between atoms: N_12  and  C_13 
REMARK    5  A    between atoms: C_13  and  C_14 
REMARK    6  A    between atoms: C_14  and  O_15 
REMARK    7  A    between atoms: O_15  and  C_16 
REMARK    8  A    between atoms: N_25  and  C_26 
ROOT
HETATM    1  N   UNL     1       5.659  27.201  56.964  1.00  0.00    -0.325 N 
HETATM    2  C   UNL     1       4.898  28.288  56.587  1.00  0.00     0.250 C 
HETATM    3  O   UNL     1       3.765  28.222  56.133  1.00  0.00    -0.270 OA
HETATM    4  C   UNL     1       5.724  29.569  56.830  1.00  0.00     0.118 C 
HETATM    5  C   UNL     1       5.087  30.315  58.009  1.00  0.00     0.061 C 
HETATM    6  C   UNL     1       3.815  31.058  57.610  1.00  0.00     0.129 C 
HETATM    7  N   UNL     1       4.004  31.853  56.400  1.00  0.00    -0.350 N 
HETATM    8  C   UNL     1       3.359  33.090  56.322  1.00  0.00     0.244 C 
HETATM    9  O   UNL     1       2.702  33.547  57.261  1.00  0.00    -0.271 OA
HETATM   10  C   UNL     1       4.473  31.113  55.232  1.00  0.00     0.129 C 
HETATM   11  C   UNL     1       5.767  30.357  55.513  1.00  0.00     0.061 C 
HETATM   12  N   UNL     1       7.059  29.009  57.186  1.00  0.00    -0.346 N 
HETATM   13  C   UNL     1       7.021  27.552  57.235  1.00  0.00     0.254 C 
ENDROOT
BRANCH  12  14
HETATM   14  C   UNL     1       8.245  29.679  57.430  1.00  0.00     0.032 A 
HETATM   15  C   UNL     1       8.400  30.624  58.457  1.00  0.00     0.029 A 
HETATM   16  C   UNL     1       9.605  31.307  58.682  1.00  0.00     0.002 A 
HETATM   17  C   UNL     1      10.709  31.062  57.880  1.00  0.00     0.000 A 
HETATM   18  C   UNL     1      10.605  30.131  56.860  1.00  0.00     0.002 A 
HETATM   19  C   UNL     1       9.396  29.454  56.646  1.00  0.00     0.029 A 
ENDBRANCH  12  14
BRANCH   1  20
HETATM   20  C   UNL     1       5.265  25.845  56.617  1.00  0.00     0.230 C 
BRANCH  20  21
HETATM   21  C   UNL     1       5.590  25.358  55.197  1.00  0.00     0.236 C 
HETATM   22  N   UNL     1       6.571  24.390  55.149  1.00  0.00    -0.351 N 
HETATM   23  H   UNL     1       7.046  24.111  55.998  1.00  0.00     0.163 HD
HETATM   24  O   UNL     1       4.987  25.736  54.196  1.00  0.00    -0.272 OA
BRANCH  22  25
HETATM   25  C   UNL     1       7.017  23.813  53.890  1.00  0.00     0.113 C 
HETATM   26  C   UNL     1       7.992  24.743  53.164  1.00  0.00     0.037 C 
BRANCH  25  27
HETATM   27  C   UNL     1       7.622  22.440  54.120  1.00  0.00    -0.036 A 
HETATM   28  C   UNL     1       8.065  21.680  53.026  1.00  0.00     0.009 A 
HETATM   29  C   UNL     1       8.638  20.421  53.217  1.00  0.00     0.001 A 
HETATM   30  C   UNL     1       8.770  19.901  54.502  1.00  0.00     0.000 A 
HETATM   31  C   UNL     1       8.330  20.640  55.598  1.00  0.00     0.001 A 
HETATM   32  C   UNL     1       7.761  21.901  55.410  1.00  0.00     0.009 A 
ENDBRANCH  25  27
ENDBRANCH  22  25
ENDBRANCH  20  21
ENDBRANCH   1  20
BRANCH   8  33
HETATM   33  C   UNL     1       3.473  33.886  55.020  1.00  0.00     0.278 C 
BRANCH  33  34
HETATM   34  O   UNL     1       2.316  33.661  54.220  1.00  0.00    -0.342 OA
BRANCH  34  35
HETATM   35  C   UNL     1       2.575  33.340  52.917  1.00  0.00     0.069 A 
HETATM   36  C   UNL     1       3.837  33.392  52.326  1.00  0.00     0.037 A 
HETATM   37  C   UNL     1       3.989  33.069  50.974  1.00  0.00     0.003 A 
HETATM   38  C   UNL     1       2.880  32.703  50.212  1.00  0.00     0.000 A 
HETATM   39  C   UNL     1       1.616  32.667  50.797  1.00  0.00     0.003 A 
HETATM   40  C   UNL     1       1.464  32.996  52.145  1.00  0.00     0.037 A 
ENDBRANCH  34  35
ENDBRANCH  33  34
ENDBRANCH   8  33
TORSDOF 8
ENDMDL
MODEL 10
REMARK VINA RESULT:      -9.5      5.591     10.443
REMARK  8 active torsions:
REMARK  status: ('A' for Active; 'I' for Inactive)
REMARK    1  A    between atoms: C_2  and  N_3 
REMARK    2  A    between atoms: C_2  and  C_34 
REMARK       I    between atoms: N_3  and  C_4 
REMARK    3  A    between atoms: C_4  and  C_5 
REMARK    4  A    between atoms: C_5  and  N_6 
REMARK       I    between atoms: N_12  and  C_13 
REMARK    5  A    between atoms: C_13  and  C_14 
REMARK    6  A    between atoms: C_14  and  O_15 
REMARK    7  A    between atoms: O_15  and  C_16 
REMARK    8  A    between atoms: N_25  and  C_26 
ROOT
HETATM    1  N   UNL     1       4.653  26.550  51.319  1.00  0.00    -0.325 N 
HETATM    2  C   UNL     1       4.501  27.087  50.058  1.00  0.00     0.250 C 
HETATM    3  O   UNL     1       4.622  26.462  49.014  1.00  0.00    -0.270 OA
HETATM    4  C   UNL     1       4.168  28.587  50.205  1.00  0.00     0.118 C 
HETATM    5  C   UNL     1       2.704  28.780  49.787  1.00  0.00     0.061 C 
HETATM    6  C   UNL     1       2.522  28.757  48.273  1.00  0.00     0.129 C 
HETATM    7  N   UNL     1       3.481  29.624  47.594  1.00  0.00    -0.350 N 
HETATM    8  C   UNL     1       3.046  30.326  46.467  1.00  0.00     0.244 C 
HETATM    9  O   UNL     1       1.875  30.284  46.081  1.00  0.00    -0.271 OA
HETATM   10  C   UNL     1       4.886  29.346  47.878  1.00  0.00     0.129 C 
HETATM   11  C   UNL     1       5.186  29.379  49.372  1.00  0.00     0.061 C 
HETATM   12  N   UNL     1       4.359  28.801  51.668  1.00  0.00    -0.346 N 
HETATM   13  C   UNL     1       4.689  27.551  52.342  1.00  0.00     0.254 C 
ENDROOT
BRANCH  12  14
HETATM   14  C   UNL     1       4.287  29.979  52.390  1.00  0.00     0.032 A 
HETATM   15  C   UNL     1       4.133  30.021  53.785  1.00  0.00     0.029 A 
HETATM   16  C   UNL     1       4.045  31.225  54.501  1.00  0.00     0.002 A 
HETATM   17  C   UNL     1       4.112  32.441  53.839  1.00  0.00     0.000 A 
HETATM   18  C   UNL     1       4.273  32.447  52.462  1.00  0.00     0.002 A 
HETATM   19  C   UNL     1       4.361  31.238  51.759  1.00  0.00     0.029 A 
ENDBRANCH  12  14
BRANCH   1  20
HETATM   20  C   UNL     1       5.222  25.226  51.513  1.00  0.00     0.230 C 
BRANCH  20  21
HETATM   21  C   UNL     1       6.421  25.107  52.467  1.00  0.00     0.236 C 
HETATM   22  N   UNL     1       6.194  24.283  53.549  1.00  0.00    -0.351 N 
HETATM   23  H   UNL     1       5.279  23.872  53.687  1.00  0.00     0.163 HD
HETATM   24  O   UNL     1       7.510  25.635  52.255  1.00  0.00    -0.272 OA
BRANCH  22  25
HETATM   25  C   UNL     1       7.212  24.053  54.563  1.00  0.00     0.113 C 
HETATM   26  C   UNL     1       6.699  24.411  55.960  1.00  0.00     0.037 C 
BRANCH  25  27
HETATM   27  C   UNL     1       7.708  22.619  54.502  1.00  0.00    -0.036 A 
HETATM   28  C   UNL     1       7.717  21.834  55.666  1.00  0.00     0.009 A 
HETATM   29  C   UNL     1       8.155  20.509  55.628  1.00  0.00     0.001 A 
HETATM   30  C   UNL     1       8.597  19.952  54.430  1.00  0.00     0.000 A 
HETATM   31  C   UNL     1       8.600  20.720  53.268  1.00  0.00     0.001 A 
HETATM   32  C   UNL     1       8.158  22.045  53.301  1.00  0.00     0.009 A 
ENDBRANCH  25  27
ENDBRANCH  22  25
ENDBRANCH  20  21
ENDBRANCH   1  20
BRANCH   8  33
HETATM   33  C   UNL     1       4.069  31.161  45.694  1.00  0.00     0.278 C 
BRANCH  33  34
HETATM   34  O   UNL     1       4.038  32.507  46.162  1.00  0.00    -0.342 OA
BRANCH  34  35
HETATM   35  C   UNL     1       5.190  32.929  46.764  1.00  0.00     0.069 A 
HETATM   36  C   UNL     1       5.375  33.017  48.144  1.00  0.00     0.037 A 
HETATM   37  C   UNL     1       6.587  33.489  48.657  1.00  0.00     0.003 A 
HETATM   38  C   UNL     1       7.609  33.881  47.793  1.00  0.00     0.000 A 
HETATM   39  C   UNL     1       7.418  33.810  46.415  1.00  0.00     0.003 A 
HETATM   40  C   UNL     1       6.206  33.345  45.903  1.00  0.00     0.037 A 
ENDBRANCH  34  35
ENDBRANCH  33  34
ENDBRANCH   8  33
TORSDOF 8
ENDMDL
