MODEL 1
REMARK VINA RESULT:      -9.5      0.000      0.000
REMARK  5 active torsions:
REMARK  status: ('A' for Active; 'I' for Inactive)
REMARK    1  A    between atoms: C_8  and  C_9 
REMARK    2  A    between atoms: C_9  and  N_10 
REMARK       I    between atoms: N_10  and  C_11 
REMARK       I    between atoms: C_11  and  N_12 
REMARK    3  A    between atoms: C_13  and  C_14 
REMARK    4  A    between atoms: C_14  and  C_15 
REMARK    5  A    between atoms: C_15  and  C_16 
ROOT
HETATM    1  N   UNL     1       5.760  26.563  54.803  1.00  0.00    -0.339 N 
HETATM    2  C   UNL     1       5.173  27.288  53.806  1.00  0.00     0.318 C 
HETATM    3  N   UNL     1       5.904  27.242  52.615  1.00  0.00    -0.330 N 
HETATM    4  C   UNL     1       6.098  25.974  51.850  1.00  0.00     0.089 C 
HETATM    5  C   UNL     1       4.925  25.789  50.860  1.00  0.00     0.025 C 
HETATM    6  C   UNL     1       4.738  27.015  49.963  1.00  0.00     0.004 C 
HETATM    7  C   UNL     1       4.592  28.285  50.792  1.00  0.00     0.020 C 
HETATM    8  C   UNL     1       5.759  28.421  51.764  1.00  0.00     0.128 C 
HETATM    9  O   UNL     1       4.182  27.988  53.978  1.00  0.00    -0.247 OA
HETATM   10  H   UNL     1       6.755  26.446  54.687  1.00  0.00     0.164 HD
ENDROOT
BRANCH   4  11
HETATM   11  C   UNL     1       6.320  24.706  52.701  1.00  0.00     0.030 C 
BRANCH  11  12
HETATM   12  C   UNL     1       7.755  24.166  52.696  1.00  0.00     0.040 C 
BRANCH  12  13
HETATM   13  C   UNL     1       7.849  22.912  53.534  1.00  0.00    -0.058 A 
HETATM   14  C   UNL     1       8.020  21.663  52.918  1.00  0.00     0.007 A 
HETATM   15  C   UNL     1       8.063  20.497  53.682  1.00  0.00     0.001 A 
HETATM   16  C   UNL     1       7.927  20.565  55.066  1.00  0.00     0.000 A 
HETATM   17  C   UNL     1       7.749  21.799  55.689  1.00  0.00     0.001 A 
HETATM   18  C   UNL     1       7.710  22.969  54.927  1.00  0.00     0.007 A 
ENDBRANCH  12  13
ENDBRANCH  11  12
ENDBRANCH   4  11
BRANCH   1  19
HETATM   19  C   UNL     1       5.256  26.542  56.155  1.00  0.00     0.167 C 
BRANCH  19  20
HETATM   20  C   UNL     1       6.133  27.422  56.974  1.00  0.00     0.009 A 
HETATM   21  C   UNL     1       5.895  28.729  57.365  1.00  0.00     0.034 A 
HETATM   22  C   UNL     1       4.744  29.629  57.124  1.00  0.00     0.070 C 
HETATM   23  N   UNL     1       6.995  29.115  58.075  1.00  0.00    -0.282 N 
HETATM   24  H   UNL     1       7.172  30.010  58.517  1.00  0.00     0.189 HD
HETATM   25  N   UNL     1       7.940  28.169  58.161  1.00  0.00    -0.179 NA
HETATM   26  C   UNL     1       7.426  27.130  57.493  1.00  0.00     0.060 A 
HETATM   27  C   UNL     1       8.206  25.875  57.350  1.00  0.00     0.073 C 
ENDBRANCH  19  20
ENDBRANCH   1  19
TORSDOF 5
ENDMDL
MODEL 2
REMARK VINA RESULT:      -9.2      2.405      6.138
REMARK  5 active torsions:
REMARK  status: ('A' for Active; 'I' for Inactive)
REMARK    1  A    between atoms: C_8  and  C_9 
REMARK    2  A    between atoms: C_9  and  N_10 
REMARK       I    between atoms: N_10  and  C_11 
REMARK       I    between atoms: C_11  and  N_12 
REMARK    3  A    between atoms: C_13  and  C_14 
REMARK    4  A    between atoms: C_14  and  C_15 
REMARK    5  A    between atoms: C_15  and  C_16 
ROOT
HETATM    1  N   UNL     1       4.825  26.465  50.825  1.00  0.00    -0.339 N 
HETATM    2  C   UNL     1       5.084  27.404  51.783  1.00  0.00     0.318 C 
HETATM    3  N   UNL     1       4.800  26.940  53.072  1.00  0.00    -0.330 N 
HETATM    4  C   UNL     1       5.554  25.811  53.693  1.00  0.00     0.089 C 
HETATM    5  C   UNL     1       6.799  26.366  54.422  1.00  0.00     0.025 C 
HETATM    6  C   UNL     1       6.431  27.469  55.417  1.00  0.00     0.004 C 
HETATM    7  C   UNL     1       5.624  28.572  54.743  1.00  0.00     0.020 C 
HETATM    8  C   UNL     1       4.416  27.981  54.023  1.00  0.00     0.128 C 
HETATM    9  O   UNL     1       5.415  28.555  51.523  1.00  0.00    -0.247 OA
HETATM   10  H   UNL     1       4.139  25.781  51.104  1.00  0.00     0.164 HD
ENDROOT
BRANCH   4  11
HETATM   11  C   UNL     1       5.929  24.654  52.744  1.00  0.00     0.030 C 
BRANCH  11  12
HETATM   12  C   UNL     1       7.406  24.245  52.774  1.00  0.00     0.040 C 
BRANCH  12  13
HETATM   13  C   UNL     1       7.575  22.930  53.499  1.00  0.00    -0.058 A 
HETATM   14  C   UNL     1       7.511  22.883  54.899  1.00  0.00     0.007 A 
HETATM   15  C   UNL     1       7.712  21.681  55.578  1.00  0.00     0.001 A 
HETATM   16  C   UNL     1       7.986  20.516  54.865  1.00  0.00     0.000 A 
HETATM   17  C   UNL     1       8.059  20.552  53.473  1.00  0.00     0.001 A 
HETATM   18  C   UNL     1       7.855  21.753  52.792  1.00  0.00     0.007 A 
ENDBRANCH  12  13
ENDBRANCH  11  12
ENDBRANCH   4  11
BRANCH   1  19
HETATM   19  C   UNL     1       4.934  26.739  49.413  1.00  0.00     0.167 C 
BRANCH  19  20
HETATM   20  C   UNL     1       3.552  26.875  48.875  1.00  0.00     0.009 A 
HETATM   21  C   UNL     1       2.782  25.902  48.261  1.00  0.00     0.034 A 
HETATM   22  C   UNL     1       3.057  24.477  47.965  1.00  0.00     0.070 C 
HETATM   23  N   UNL     1       1.608  26.512  47.921  1.00  0.00    -0.282 N 
HETATM   24  H   UNL     1       0.804  26.106  47.455  1.00  0.00     0.189 HD
HETATM   25  N   UNL     1       1.562  27.810  48.248  1.00  0.00    -0.179 NA
HETATM   26  C   UNL     1       2.742  28.045  48.832  1.00  0.00     0.060 A 
HETATM   27  C   UNL     1       3.076  29.407  49.321  1.00  0.00     0.073 C 
ENDBRANCH  19  20
ENDBRANCH   1  19
TORSDOF 5
ENDMDL
MODEL 3
REMARK VINA RESULT:      -8.9      1.453      4.862
REMARK  5 active torsions:
REMARK  status: ('A' for Active; 'I' for Inactive)
REMARK    1  A    between atoms: C_8  and  C_9 
REMARK    2  A    between atoms: C_9  and  N_10 
REMARK       I    between atoms: N_10  and  C_11 
REMARK       I    between atoms: C_11  and  N_12 
REMARK    3  A    between atoms: C_13  and  C_14 
REMARK    4  A    between atoms: C_14  and  C_15 
REMARK    5  A    between atoms: C_15  and  C_16 
ROOT
HETATM    1  N   UNL     1       4.382  27.462  54.578  1.00  0.00    -0.339 N 
HETATM    2  C   UNL     1       5.122  28.376  55.272  1.00  0.00     0.318 C 
HETATM    3  N   UNL     1       5.536  27.890  56.516  1.00  0.00    -0.330 N 
HETATM    4  C   UNL     1       6.477  26.738  56.645  1.00  0.00     0.089 C 
HETATM    5  C   UNL     1       7.932  27.259  56.629  1.00  0.00     0.025 C 
HETATM    6  C   UNL     1       8.158  28.347  57.681  1.00  0.00     0.004 C 
HETATM    7  C   UNL     1       7.145  29.475  57.534  1.00  0.00     0.020 C 
HETATM    8  C   UNL     1       5.725  28.916  57.539  1.00  0.00     0.128 C 
HETATM    9  O   UNL     1       5.297  29.528  54.890  1.00  0.00    -0.247 OA
HETATM   10  H   UNL     1       3.924  26.782  55.166  1.00  0.00     0.164 HD
ENDROOT
BRANCH   4  11
HETATM   11  C   UNL     1       6.278  25.595  55.627  1.00  0.00     0.030 C 
BRANCH  11  12
HETATM   12  C   UNL     1       7.474  25.337  54.703  1.00  0.00     0.040 C 
BRANCH  12  13
HETATM   13  C   UNL     1       7.671  23.852  54.496  1.00  0.00    -0.058 A 
HETATM   14  C   UNL     1       7.857  23.339  53.204  1.00  0.00     0.007 A 
HETATM   15  C   UNL     1       7.994  21.966  53.001  1.00  0.00     0.001 A 
HETATM   16  C   UNL     1       7.938  21.092  54.085  1.00  0.00     0.000 A 
HETATM   17  C   UNL     1       7.746  21.591  55.373  1.00  0.00     0.001 A 
HETATM   18  C   UNL     1       7.613  22.965  55.579  1.00  0.00     0.007 A 
ENDBRANCH  12  13
ENDBRANCH  11  12
ENDBRANCH   4  11
BRANCH   1  19
HETATM   19  C   UNL     1       3.750  27.763  53.317  1.00  0.00     0.167 C 
BRANCH  19  20
HETATM   20  C   UNL     1       4.656  27.286  52.236  1.00  0.00     0.009 A 
HETATM   21  C   UNL     1       5.312  28.046  51.282  1.00  0.00     0.034 A 
HETATM   22  C   UNL     1       5.340  29.507  51.044  1.00  0.00     0.070 C 
HETATM   23  N   UNL     1       5.997  27.159  50.502  1.00  0.00    -0.282 N 
HETATM   24  H   UNL     1       6.590  27.357  49.704  1.00  0.00     0.189 HD
HETATM   25  N   UNL     1       5.823  25.880  50.860  1.00  0.00    -0.179 NA
HETATM   26  C   UNL     1       5.007  25.943  51.919  1.00  0.00     0.060 A 
HETATM   27  C   UNL     1       4.561  24.698  52.594  1.00  0.00     0.073 C 
ENDBRANCH  19  20
ENDBRANCH   1  19
TORSDOF 5
ENDMDL
MODEL 4
REMARK VINA RESULT:      -8.8      2.612      3.660
REMARK  5 active torsions:
REMARK  status: ('A' for Active; 'I' for Inactive)
REMARK    1  A    between atoms: C_8  and  C_9 
REMARK    2  A    between atoms: C_9  and  N_10 
REMARK       I    between atoms: N_10  and  C_11 
REMARK       I    between atoms: C_11  and  N_12 
REMARK    3  A    between atoms: C_13  and  C_14 
REMARK    4  A    between atoms: C_14  and  C_15 
REMARK    5  A    between atoms: C_15  and  C_16 
ROOT
HETATM    1  N   UNL     1       7.546  28.765  56.755  1.00  0.00    -0.339 N 
HETATM    2  C   UNL     1       6.282  29.069  56.335  1.00  0.00     0.318 C 
HETATM    3  N   UNL     1       6.155  29.006  54.944  1.00  0.00    -0.330 N 
HETATM    4  C   UNL     1       6.313  27.728  54.188  1.00  0.00     0.089 C 
HETATM    5  C   UNL     1       4.946  27.009  54.108  1.00  0.00     0.025 C 
HETATM    6  C   UNL     1       3.857  27.919  53.538  1.00  0.00     0.004 C 
HETATM    7  C   UNL     1       3.770  29.227  54.315  1.00  0.00     0.020 C 
HETATM    8  C   UNL     1       5.139  29.895  54.384  1.00  0.00     0.128 C 
HETATM    9  O   UNL     1       5.400  29.462  57.090  1.00  0.00    -0.247 OA
HETATM   10  H   UNL     1       8.255  28.930  56.056  1.00  0.00     0.164 HD
ENDROOT
BRANCH   4  11
HETATM   11  C   UNL     1       7.417  26.780  54.700  1.00  0.00     0.030 C 
BRANCH  11  12
HETATM   12  C   UNL     1       6.911  25.540  55.445  1.00  0.00     0.040 C 
BRANCH  12  13
HETATM   13  C   UNL     1       7.344  24.280  54.730  1.00  0.00    -0.058 A 
HETATM   14  C   UNL     1       7.546  24.292  53.342  1.00  0.00     0.007 A 
HETATM   15  C   UNL     1       7.902  23.123  52.669  1.00  0.00     0.001 A 
HETATM   16  C   UNL     1       8.050  21.931  53.373  1.00  0.00     0.000 A 
HETATM   17  C   UNL     1       7.845  21.906  54.752  1.00  0.00     0.001 A 
HETATM   18  C   UNL     1       7.493  23.075  55.429  1.00  0.00     0.007 A 
ENDBRANCH  12  13
ENDBRANCH  11  12
ENDBRANCH   4  11
BRANCH   1  19
HETATM   19  C   UNL     1       7.956  28.865  58.134  1.00  0.00     0.167 C 
BRANCH  19  20
HETATM   20  C   UNL     1       8.777  30.099  58.270  1.00  0.00     0.009 A 
HETATM   21  C   UNL     1      10.043  30.336  57.761  1.00  0.00     0.034 A 
HETATM   22  C   UNL     1      10.944  29.490  56.945  1.00  0.00     0.070 C 
HETATM   23  N   UNL     1      10.383  31.593  58.171  1.00  0.00    -0.282 N 
HETATM   24  H   UNL     1      11.240  32.101  57.984  1.00  0.00     0.189 HD
HETATM   25  N   UNL     1       9.446  32.186  58.923  1.00  0.00    -0.179 NA
HETATM   26  C   UNL     1       8.460  31.286  58.990  1.00  0.00     0.060 A 
HETATM   27  C   UNL     1       7.232  31.579  59.772  1.00  0.00     0.073 C 
ENDBRANCH  19  20
ENDBRANCH   1  19
TORSDOF 5
ENDMDL
MODEL 5
REMARK VINA RESULT:      -8.5      1.679      5.196
REMARK  5 active torsions:
REMARK  status: ('A' for Active; 'I' for Inactive)
REMARK    1  A    between atoms: C_8  and  C_9 
REMARK    2  A    between atoms: C_9  and  N_10 
REMARK       I    between atoms: N_10  and  C_11 
REMARK       I    between atoms: C_11  and  N_12 
REMARK    3  A    between atoms: C_13  and  C_14 
REMARK    4  A    between atoms: C_14  and  C_15 
REMARK    5  A    between atoms: C_15  and  C_16 
ROOT
HETATM    1  N   UNL     1       5.814  27.113  53.230  1.00  0.00    -0.339 N 
HETATM    2  C   UNL     1       6.256  27.564  54.441  1.00  0.00     0.318 C 
HETATM    3  N   UNL     1       5.861  26.732  55.494  1.00  0.00    -0.330 N 
HETATM    4  C   UNL     1       6.345  25.325  55.619  1.00  0.00     0.089 C 
HETATM    5  C   UNL     1       7.670  25.308  56.415  1.00  0.00     0.025 C 
HETATM    6  C   UNL     1       7.535  26.024  57.761  1.00  0.00     0.004 C 
HETATM    7  C   UNL     1       6.994  27.437  57.580  1.00  0.00     0.020 C 
HETATM    8  C   UNL     1       5.697  27.410  56.778  1.00  0.00     0.128 C 
HETATM    9  O   UNL     1       6.832  28.636  54.590  1.00  0.00    -0.247 OA
HETATM   10  H   UNL     1       4.993  26.531  53.290  1.00  0.00     0.164 HD
ENDROOT
BRANCH   4  11
HETATM   11  C   UNL     1       6.475  24.542  54.295  1.00  0.00     0.030 C 
BRANCH  11  12
HETATM   12  C   UNL     1       7.914  24.268  53.845  1.00  0.00     0.040 C 
BRANCH  12  13
HETATM   13  C   UNL     1       8.228  22.793  53.950  1.00  0.00    -0.058 A 
HETATM   14  C   UNL     1       7.852  21.917  52.920  1.00  0.00     0.007 A 
HETATM   15  C   UNL     1       8.097  20.548  53.031  1.00  0.00     0.001 A 
HETATM   16  C   UNL     1       8.713  20.040  54.173  1.00  0.00     0.000 A 
HETATM   17  C   UNL     1       9.086  20.901  55.204  1.00  0.00     0.001 A 
HETATM   18  C   UNL     1       8.844  22.272  55.095  1.00  0.00     0.007 A 
ENDBRANCH  12  13
ENDBRANCH  11  12
ENDBRANCH   4  11
BRANCH   1  19
HETATM   19  C   UNL     1       6.000  27.853  52.006  1.00  0.00     0.167 C 
BRANCH  19  20
HETATM   20  C   UNL     1       4.651  28.112  51.430  1.00  0.00     0.009 A 
HETATM   21  C   UNL     1       4.090  27.547  50.298  1.00  0.00     0.034 A 
HETATM   22  C   UNL     1       4.611  26.540  49.344  1.00  0.00     0.070 C 
HETATM   23  N   UNL     1       2.857  28.117  50.165  1.00  0.00    -0.282 N 
HETATM   24  H   UNL     1       2.160  27.944  49.449  1.00  0.00     0.189 HD
HETATM   25  N   UNL     1       2.578  29.024  51.111  1.00  0.00    -0.179 NA
HETATM   26  C   UNL     1       3.665  29.030  51.891  1.00  0.00     0.060 A 
HETATM   27  C   UNL     1       3.742  29.943  53.060  1.00  0.00     0.073 C 
ENDBRANCH  19  20
ENDBRANCH   1  19
TORSDOF 5
ENDMDL
MODEL 6
REMARK VINA RESULT:      -8.3      2.715      5.791
REMARK  5 active torsions:
REMARK  status: ('A' for Active; 'I' for Inactive)
REMARK    1  A    between atoms: C_8  and  C_9 
REMARK    2  A    between atoms: C_9  and  N_10 
REMARK       I    between atoms: N_10  and  C_11 
REMARK       I    between atoms: C_11  and  N_12 
REMARK    3  A    between atoms: C_13  and  C_14 
REMARK    4  A    between atoms: C_14  and  C_15 
REMARK    5  A    between atoms: C_15  and  C_16 
ROOT
HETATM    1  N   UNL     1       6.126  29.491  57.872  1.00  0.00    -0.339 N 
HETATM    2  C   UNL     1       7.132  30.399  58.038  1.00  0.00     0.318 C 
HETATM    3  N   UNL     1       8.330  29.798  58.437  1.00  0.00    -0.330 N 
HETATM    4  C   UNL     1       9.069  28.841  57.562  1.00  0.00     0.089 C 
HETATM    5  C   UNL     1      10.042  29.626  56.652  1.00  0.00     0.025 C 
HETATM    6  C   UNL     1      10.963  30.543  57.461  1.00  0.00     0.004 C 
HETATM    7  C   UNL     1      10.160  31.465  58.370  1.00  0.00     0.020 C 
HETATM    8  C   UNL     1       9.204  30.653  59.238  1.00  0.00     0.128 C 
HETATM    9  O   UNL     1       6.964  31.610  57.956  1.00  0.00    -0.247 OA
HETATM   10  H   UNL     1       6.250  28.646  58.410  1.00  0.00     0.164 HD
ENDROOT
BRANCH   4  11
HETATM   11  C   UNL     1       8.194  27.870  56.741  1.00  0.00     0.030 C 
BRANCH  11  12
HETATM   12  C   UNL     1       8.235  26.410  57.207  1.00  0.00     0.040 C 
BRANCH  12  13
HETATM   13  C   UNL     1       7.819  25.487  56.085  1.00  0.00    -0.058 A 
HETATM   14  C   UNL     1       7.766  24.101  56.296  1.00  0.00     0.007 A 
HETATM   15  C   UNL     1       7.427  23.239  55.252  1.00  0.00     0.001 A 
HETATM   16  C   UNL     1       7.146  23.752  53.988  1.00  0.00     0.000 A 
HETATM   17  C   UNL     1       7.202  25.127  53.765  1.00  0.00     0.001 A 
HETATM   18  C   UNL     1       7.537  25.992  54.809  1.00  0.00     0.007 A 
ENDBRANCH  12  13
ENDBRANCH  11  12
ENDBRANCH   4  11
BRANCH   1  19
HETATM   19  C   UNL     1       4.769  29.875  57.568  1.00  0.00     0.167 C 
BRANCH  19  20
HETATM   20  C   UNL     1       4.425  29.293  56.241  1.00  0.00     0.009 A 
HETATM   21  C   UNL     1       4.367  27.954  55.892  1.00  0.00     0.034 A 
HETATM   22  C   UNL     1       4.601  26.725  56.683  1.00  0.00     0.070 C 
HETATM   23  N   UNL     1       4.037  27.926  54.567  1.00  0.00    -0.282 N 
HETATM   24  H   UNL     1       3.905  27.116  53.972  1.00  0.00     0.189 HD
HETATM   25  N   UNL     1       3.894  29.142  54.022  1.00  0.00    -0.179 NA
HETATM   26  C   UNL     1       4.128  29.986  55.034  1.00  0.00     0.060 A 
HETATM   27  C   UNL     1       4.080  31.453  54.809  1.00  0.00     0.073 C 
ENDBRANCH  19  20
ENDBRANCH   1  19
TORSDOF 5
ENDMDL
MODEL 7
REMARK VINA RESULT:      -8.2      1.421      2.488
REMARK  5 active torsions:
REMARK  status: ('A' for Active; 'I' for Inactive)
REMARK    1  A    between atoms: C_8  and  C_9 
REMARK    2  A    between atoms: C_9  and  N_10 
REMARK       I    between atoms: N_10  and  C_11 
REMARK       I    between atoms: C_11  and  N_12 
REMARK    3  A    between atoms: C_13  and  C_14 
REMARK    4  A    between atoms: C_14  and  C_15 
REMARK    5  A    between atoms: C_15  and  C_16 
ROOT
HETATM    1  N   UNL     1       6.282  28.038  55.624  1.00  0.00    -0.339 N 
HETATM    2  C   UNL     1       5.524  28.205  54.501  1.00  0.00     0.318 C 
HETATM    3  N   UNL     1       6.239  27.928  53.331  1.00  0.00    -0.330 N 
HETATM    4  C   UNL     1       6.756  26.562  53.021  1.00  0.00     0.089 C 
HETATM    5  C   UNL     1       5.670  25.764  52.264  1.00  0.00     0.025 C 
HETATM    6  C   UNL     1       5.167  26.516  51.030  1.00  0.00     0.004 C 
HETATM    7  C   UNL     1       4.696  27.918  51.395  1.00  0.00     0.020 C 
HETATM    8  C   UNL     1       5.789  28.665  52.153  1.00  0.00     0.128 C 
HETATM    9  O   UNL     1       4.385  28.656  54.520  1.00  0.00    -0.247 OA
HETATM   10  H   UNL     1       7.273  28.136  55.462  1.00  0.00     0.164 HD
ENDROOT
BRANCH   4  11
HETATM   11  C   UNL     1       7.303  25.764  54.223  1.00  0.00     0.030 C 
BRANCH  11  12
HETATM   12  C   UNL     1       6.423  24.594  54.678  1.00  0.00     0.040 C 
BRANCH  12  13
HETATM   13  C   UNL     1       7.140  23.280  54.465  1.00  0.00    -0.058 A 
HETATM   14  C   UNL     1       7.501  22.488  55.565  1.00  0.00     0.007 A 
HETATM   15  C   UNL     1       8.204  21.297  55.379  1.00  0.00     0.001 A 
HETATM   16  C   UNL     1       8.558  20.890  54.095  1.00  0.00     0.000 A 
HETATM   17  C   UNL     1       8.209  21.672  52.995  1.00  0.00     0.001 A 
HETATM   18  C   UNL     1       7.504  22.863  53.178  1.00  0.00     0.007 A 
ENDBRANCH  12  13
ENDBRANCH  11  12
ENDBRANCH   4  11
BRANCH   1  19
HETATM   19  C   UNL     1       5.804  28.366  56.945  1.00  0.00     0.167 C 
BRANCH  19  20
HETATM   20  C   UNL     1       6.630  29.495  57.455  1.00  0.00     0.009 A 
HETATM   21  C   UNL     1       8.008  29.546  57.583  1.00  0.00     0.034 A 
HETATM   22  C   UNL     1       9.059  28.555  57.259  1.00  0.00     0.070 C 
HETATM   23  N   UNL     1       8.290  30.771  58.116  1.00  0.00    -0.282 N 
HETATM   24  H   UNL     1       9.197  31.159  58.347  1.00  0.00     0.189 HD
HETATM   25  N   UNL     1       7.202  31.514  58.364  1.00  0.00    -0.179 NA
HETATM   26  C   UNL     1       6.182  30.747  57.963  1.00  0.00     0.060 A 
HETATM   27  C   UNL     1       4.785  31.230  58.101  1.00  0.00     0.073 C 
ENDBRANCH  19  20
ENDBRANCH   1  19
TORSDOF 5
ENDMDL
MODEL 8
REMARK VINA RESULT:      -8.2      2.748      7.179
REMARK  5 active torsions:
REMARK  status: ('A' for Active; 'I' for Inactive)
REMARK    1  A    between atoms: C_8  and  C_9 
REMARK    2  A    between atoms: C_9  and  N_10 
REMARK       I    between atoms: N_10  and  C_11 
REMARK       I    between atoms: C_11  and  N_12 
REMARK    3  A    between atoms: C_13  and  C_14 
REMARK    4  A    between atoms: C_14  and  C_15 
REMARK    5  A    between atoms: C_15  and  C_16 
ROOT
HETATM    1  N   UNL     1       5.710  27.140  51.546  1.00  0.00    -0.339 N 
HETATM    2  C   UNL     1       5.911  25.853  51.955  1.00  0.00     0.318 C 
HETATM    3  N   UNL     1       7.217  25.636  52.408  1.00  0.00    -0.330 N 
HETATM    4  C   UNL     1       7.758  26.316  53.622  1.00  0.00     0.089 C 
HETATM    5  C   UNL     1       7.436  25.464  54.872  1.00  0.00     0.025 C 
HETATM    6  C   UNL     1       7.921  24.021  54.718  1.00  0.00     0.004 C 
HETATM    7  C   UNL     1       7.377  23.392  53.441  1.00  0.00     0.020 C 
HETATM    8  C   UNL     1       7.703  24.269  52.237  1.00  0.00     0.128 C 
HETATM    9  O   UNL     1       5.073  24.968  51.826  1.00  0.00    -0.247 OA
HETATM   10  H   UNL     1       6.556  27.610  51.260  1.00  0.00     0.164 HD
ENDROOT
BRANCH   4  11
HETATM   11  C   UNL     1       7.326  27.785  53.817  1.00  0.00     0.030 C 
BRANCH  11  12
HETATM   12  C   UNL     1       6.883  28.146  55.239  1.00  0.00     0.040 C 
BRANCH  12  13
HETATM   13  C   UNL     1       8.028  28.766  56.007  1.00  0.00    -0.058 A 
HETATM   14  C   UNL     1       7.894  29.034  57.378  1.00  0.00     0.007 A 
HETATM   15  C   UNL     1       8.930  29.648  58.083  1.00  0.00     0.001 A 
HETATM   16  C   UNL     1      10.104  30.006  57.425  1.00  0.00     0.000 A 
HETATM   17  C   UNL     1      10.245  29.750  56.062  1.00  0.00     0.001 A 
HETATM   18  C   UNL     1       9.212  29.132  55.355  1.00  0.00     0.007 A 
ENDBRANCH  12  13
ENDBRANCH  11  12
ENDBRANCH   4  11
BRANCH   1  19
HETATM   19  C   UNL     1       4.480  27.584  50.937  1.00  0.00     0.167 C 
BRANCH  19  20
HETATM   20  C   UNL     1       4.725  27.709  49.474  1.00  0.00     0.009 A 
HETATM   21  C   UNL     1       5.335  28.756  48.803  1.00  0.00     0.034 A 
HETATM   22  C   UNL     1       5.927  30.021  49.294  1.00  0.00     0.070 C 
HETATM   23  N   UNL     1       5.301  28.424  47.479  1.00  0.00    -0.282 N 
HETATM   24  H   UNL     1       5.657  28.954  46.691  1.00  0.00     0.189 HD
HETATM   25  N   UNL     1       4.699  27.252  47.233  1.00  0.00    -0.179 NA
HETATM   26  C   UNL     1       4.343  26.805  48.443  1.00  0.00     0.060 A 
HETATM   27  C   UNL     1       3.619  25.516  48.580  1.00  0.00     0.073 C 
ENDBRANCH  19  20
ENDBRANCH   1  19
TORSDOF 5
ENDMDL
MODEL 9
REMARK VINA RESULT:      -8.1      2.477      5.913
REMARK  5 active torsions:
REMARK  status: ('A' for Active; 'I' for Inactive)
REMARK    1  A    between atoms: C_8  and  C_9 
REMARK    2  A    between atoms: C_9  and  N_10 
REMARK       I    between atoms: N_10  and  C_11 
REMARK       I    between atoms: C_11  and  N_12 
REMARK    3  A    between atoms: C_13  and  C_14 
REMARK    4  A    between atoms: C_14  and  C_15 
REMARK    5  A    between atoms: C_15  and  C_16 
ROOT
HETATM    1  N   UNL     1       6.435  26.429  54.401  1.00  0.00    -0.339 N 
HETATM    2  C   UNL     1       5.782  27.330  53.610  1.00  0.00     0.318 C 
HETATM    3  N   UNL     1       4.557  27.727  54.157  1.00  0.00    -0.330 N 
HETATM    4  C   UNL     1       4.469  28.488  55.439  1.00  0.00     0.089 C 
HETATM    5  C   UNL     1       4.558  30.002  55.143  1.00  0.00     0.025 C 
HETATM    6  C   UNL     1       3.523  30.442  54.105  1.00  0.00     0.004 C 
HETATM    7  C   UNL     1       3.626  29.604  52.837  1.00  0.00     0.020 C 
HETATM    8  C   UNL     1       3.549  28.119  53.174  1.00  0.00     0.128 C 
HETATM    9  O   UNL     1       6.177  27.659  52.498  1.00  0.00    -0.247 OA
HETATM   10  H   UNL     1       5.823  25.903  55.006  1.00  0.00     0.164 HD
ENDROOT
BRANCH   4  11
HETATM   11  C   UNL     1       5.471  28.070  56.536  1.00  0.00     0.030 C 
BRANCH  11  12
HETATM   12  C   UNL     1       5.999  29.220  57.402  1.00  0.00     0.040 C 
BRANCH  12  13
HETATM   13  C   UNL     1       7.489  29.382  57.213  1.00  0.00    -0.058 A 
HETATM   14  C   UNL     1       8.294  29.806  58.281  1.00  0.00     0.007 A 
HETATM   15  C   UNL     1       9.663  30.003  58.101  1.00  0.00     0.001 A 
HETATM   16  C   UNL     1      10.240  29.785  56.852  1.00  0.00     0.000 A 
HETATM   17  C   UNL     1       9.449  29.371  55.782  1.00  0.00     0.001 A 
HETATM   18  C   UNL     1       8.079  29.170  55.960  1.00  0.00     0.007 A 
ENDBRANCH  12  13
ENDBRANCH  11  12
ENDBRANCH   4  11
BRANCH   1  19
HETATM   19  C   UNL     1       7.665  25.788  54.004  1.00  0.00     0.167 C 
BRANCH  19  20
HETATM   20  C   UNL     1       7.839  24.582  54.859  1.00  0.00     0.009 A 
HETATM   21  C   UNL     1       7.762  23.253  54.476  1.00  0.00     0.034 A 
HETATM   22  C   UNL     1       7.510  22.627  53.157  1.00  0.00     0.070 C 
HETATM   23  N   UNL     1       7.964  22.522  55.611  1.00  0.00    -0.282 N 
HETATM   24  H   UNL     1       7.978  21.514  55.712  1.00  0.00     0.189 HD
HETATM   25  N   UNL     1       8.147  23.271  56.707  1.00  0.00    -0.179 NA
HETATM   26  C   UNL     1       8.074  24.530  56.262  1.00  0.00     0.060 A 
HETATM   27  C   UNL     1       8.212  25.667  57.207  1.00  0.00     0.073 C 
ENDBRANCH  19  20
ENDBRANCH   1  19
TORSDOF 5
ENDMDL
MODEL 10
REMARK VINA RESULT:      -8.0      2.648      5.540
REMARK  5 active torsions:
REMARK  status: ('A' for Active; 'I' for Inactive)
REMARK    1  A    between atoms: C_8  and  C_9 
REMARK    2  A    between atoms: C_9  and  N_10 
REMARK       I    between atoms: N_10  and  C_11 
REMARK       I    between atoms: C_11  and  N_12 
REMARK    3  A    between atoms: C_13  and  C_14 
REMARK    4  A    between atoms: C_14  and  C_15 
REMARK    5  A    between atoms: C_15  and  C_16 
ROOT
HETATM    1  N   UNL     1       5.498  29.270  57.256  1.00  0.00    -0.339 N 
HETATM    2  C   UNL     1       6.525  30.063  57.680  1.00  0.00     0.318 C 
HETATM    3  N   UNL     1       7.625  29.319  58.119  1.00  0.00    -0.330 N 
HETATM    4  C   UNL     1       8.415  28.450  57.196  1.00  0.00     0.089 C 
HETATM    5  C   UNL     1       9.539  29.286  56.543  1.00  0.00     0.025 C 
HETATM    6  C   UNL     1      10.400  29.998  57.590  1.00  0.00     0.004 C 
HETATM    7  C   UNL     1       9.541  30.832  58.532  1.00  0.00     0.020 C 
HETATM    8  C   UNL     1       8.436  29.975  59.142  1.00  0.00     0.128 C 
HETATM    9  O   UNL     1       6.438  31.282  57.772  1.00  0.00    -0.247 OA
HETATM   10  H   UNL     1       5.503  28.347  57.664  1.00  0.00     0.164 HD
ENDROOT
BRANCH   4  11
HETATM   11  C   UNL     1       7.597  27.684  56.135  1.00  0.00     0.030 C 
BRANCH  11  12
HETATM   12  C   UNL     1       7.497  26.171  56.364  1.00  0.00     0.040 C 
BRANCH  12  13
HETATM   13  C   UNL     1       7.569  25.432  55.047  1.00  0.00    -0.058 A 
HETATM   14  C   UNL     1       7.617  26.146  53.840  1.00  0.00     0.007 A 
HETATM   15  C   UNL     1       7.637  25.470  52.619  1.00  0.00     0.001 A 
HETATM   16  C   UNL     1       7.602  24.078  52.592  1.00  0.00     0.000 A 
HETATM   17  C   UNL     1       7.549  23.359  53.786  1.00  0.00     0.001 A 
HETATM   18  C   UNL     1       7.532  24.032  55.009  1.00  0.00     0.007 A 
ENDBRANCH  12  13
ENDBRANCH  11  12
ENDBRANCH   4  11
BRANCH   1  19
HETATM   19  C   UNL     1       4.215  29.797  56.858  1.00  0.00     0.167 C 
BRANCH  19  20
HETATM   20  C   UNL     1       4.316  30.189  55.425  1.00  0.00     0.009 A 
HETATM   21  C   UNL     1       4.327  31.468  54.894  1.00  0.00     0.034 A 
HETATM   22  C   UNL     1       4.261  32.798  55.543  1.00  0.00     0.070 C 
HETATM   23  N   UNL     1       4.408  31.312  53.541  1.00  0.00    -0.282 N 
HETATM   24  H   UNL     1       4.439  32.032  52.828  1.00  0.00     0.189 HD
HETATM   25  N   UNL     1       4.430  30.031  53.147  1.00  0.00    -0.179 NA
HETATM   26  C   UNL     1       4.376  29.335  54.288  1.00  0.00     0.060 A 
HETATM   27  C   UNL     1       4.360  27.850  54.258  1.00  0.00     0.073 C 
ENDBRANCH  19  20
ENDBRANCH   1  19
TORSDOF 5
ENDMDL
