MODEL 1
REMARK VINA RESULT:      -9.4      0.000      0.000
REMARK  9 active torsions:
REMARK  status: ('A' for Active; 'I' for Inactive)
REMARK    1  A    between atoms: C_2  and  O_3 
REMARK    2  A    between atoms: O_3  and  C_4 
REMARK    3  A    between atoms: C_5  and  C_6 
REMARK    4  A    between atoms: N_7  and  C_9 
REMARK    5  A    between atoms: C_9  and  C_10 
REMARK       I    between atoms: C_10  and  N_11 
REMARK    6  A    between atoms: N_11  and  C_12 
REMARK    7  A    between atoms: C_20  and  C_21 
REMARK    8  A    between atoms: C_21  and  O_22 
REMARK    9  A    between atoms: C_28  and  O_29 
ROOT
HETATM    1  C   UNL     1       5.609  26.439  53.035  1.00  0.00     0.231 C 
HETATM    2  N   UNL     1       6.042  27.547  54.011  1.00  0.00    -0.054 N 
HETATM    3  H   UNL     1       5.800  27.075  54.898  1.00  0.00     0.281 HD
HETATM    4  C   UNL     1       5.202  28.783  53.960  1.00  0.00     0.239 C 
HETATM    5  C   UNL     1       5.140  29.330  52.546  1.00  0.00     0.066 C 
HETATM    6  C   UNL     1       4.543  28.281  51.612  1.00  0.00     0.065 C 
HETATM    7  C   UNL     1       5.427  27.010  51.601  1.00  0.00     0.055 C 
HETATM    8  C   UNL     1       4.372  28.836  50.188  1.00  0.00     0.038 C 
HETATM    9  C   UNL     1       3.769  27.795  49.245  1.00  0.00     0.003 C 
HETATM   10  C   UNL     1       4.575  26.503  49.251  1.00  0.00     0.001 C 
HETATM   11  C   UNL     1       4.785  25.958  50.662  1.00  0.00     0.010 C 
ENDROOT
BRANCH   2  12
HETATM   12  C   UNL     1       7.554  27.818  54.136  1.00  0.00     0.338 C 
BRANCH  12  13
HETATM   13  C   UNL     1       7.966  28.077  55.597  1.00  0.00     0.248 C 
HETATM   14  N   UNL     1       8.292  29.416  55.794  1.00  0.00    -0.319 N 
HETATM   15  H   UNL     1       8.553  29.984  54.993  1.00  0.00     0.169 HD
HETATM   16  O   UNL     1       7.971  27.172  56.419  1.00  0.00    -0.271 OA
BRANCH  14  17
HETATM   17  C   UNL     1       8.325  30.112  56.994  1.00  0.00     0.094 A 
HETATM   18  S   UNL     1       9.801  30.453  57.760  1.00  0.00    -0.075 SA
HETATM   19  C   UNL     1       9.028  31.194  59.072  1.00  0.00    -0.008 A 
HETATM   20  C   UNL     1       7.654  31.220  58.934  1.00  0.00    -0.026 A 
HETATM   21  C   UNL     1       9.792  31.758  60.232  1.00  0.00     0.047 C 
HETATM   22  C   UNL     1       6.767  31.814  59.998  1.00  0.00     0.041 C 
HETATM   23  C   UNL     1       7.223  30.545  57.726  1.00  0.00     0.080 A 
HETATM   24  C   UNL     1       7.554  32.637  61.029  1.00  0.00     0.005 C 
HETATM   25  C   UNL     1       8.860  31.947  61.438  1.00  0.00     0.005 C 
BRANCH  23  26
HETATM   26  C   UNL     1       5.818  30.314  57.369  1.00  0.00     0.296 C 
HETATM   27  O   UNL     1       5.277  29.220  57.440  1.00  0.00    -0.259 OA
BRANCH  26  28
HETATM   28  O   UNL     1       5.190  31.441  56.891  1.00  0.00    -0.322 OA
HETATM   29  C   UNL     1       3.860  31.234  56.389  1.00  0.00     0.213 C 
ENDBRANCH  26  28
ENDBRANCH  23  26
ENDBRANCH  14  17
ENDBRANCH  12  13
ENDBRANCH   2  12
BRANCH   1  30
HETATM   30  C   UNL     1       6.490  25.205  53.209  1.00  0.00     0.006 A 
HETATM   31  C   UNL     1       6.361  24.430  54.382  1.00  0.00     0.077 A 
HETATM   32  C   UNL     1       7.198  23.330  54.596  1.00  0.00     0.037 A 
HETATM   33  C   UNL     1       8.159  22.984  53.647  1.00  0.00     0.003 A 
HETATM   34  C   UNL     1       8.301  23.739  52.490  1.00  0.00     0.001 A 
HETATM   35  C   UNL     1       7.481  24.847  52.275  1.00  0.00     0.012 A 
BRANCH  31  36
HETATM   36  O   UNL     1       5.432  24.879  55.291  1.00  0.00    -0.351 OA
BRANCH  36  37
HETATM   37  C   UNL     1       5.847  24.863  56.664  1.00  0.00     0.171 C 
HETATM   38  C   UNL     1       4.871  25.718  57.452  1.00  0.00     0.034 C 
ENDBRANCH  36  37
ENDBRANCH  31  36
ENDBRANCH   1  30
BRANCH   6  39
HETATM   39  O   UNL     1       3.256  27.941  52.146  1.00  0.00    -0.389 OA
HETATM   40  H   UNL     1       2.967  28.638  52.768  1.00  0.00     0.210 HD
ENDBRANCH   6  39
TORSDOF 9
ENDMDL
MODEL 2
REMARK VINA RESULT:      -9.2      2.333      5.384
REMARK  9 active torsions:
REMARK  status: ('A' for Active; 'I' for Inactive)
REMARK    1  A    between atoms: C_2  and  O_3 
REMARK    2  A    between atoms: O_3  and  C_4 
REMARK    3  A    between atoms: C_5  and  C_6 
REMARK    4  A    between atoms: N_7  and  C_9 
REMARK    5  A    between atoms: C_9  and  C_10 
REMARK       I    between atoms: C_10  and  N_11 
REMARK    6  A    between atoms: N_11  and  C_12 
REMARK    7  A    between atoms: C_20  and  C_21 
REMARK    8  A    between atoms: C_21  and  O_22 
REMARK    9  A    between atoms: C_28  and  O_29 
ROOT
HETATM    1  C   UNL     1       7.483  24.191  54.255  1.00  0.00     0.231 C 
HETATM    2  N   UNL     1       7.111  24.677  55.667  1.00  0.00    -0.054 N 
HETATM    3  H   UNL     1       7.451  25.650  55.590  1.00  0.00     0.281 HD
HETATM    4  C   UNL     1       7.904  24.050  56.769  1.00  0.00     0.239 C 
HETATM    5  C   UNL     1       7.814  22.537  56.700  1.00  0.00     0.066 C 
HETATM    6  C   UNL     1       8.351  22.048  55.357  1.00  0.00     0.065 C 
HETATM    7  C   UNL     1       7.509  22.638  54.198  1.00  0.00     0.055 C 
HETATM    8  C   UNL     1       8.368  20.512  55.289  1.00  0.00     0.038 C 
HETATM    9  C   UNL     1       8.910  20.012  53.951  1.00  0.00     0.003 C 
HETATM   10  C   UNL     1       8.148  20.618  52.779  1.00  0.00     0.001 C 
HETATM   11  C   UNL     1       8.091  22.142  52.851  1.00  0.00     0.010 C 
ENDROOT
BRANCH   2  12
HETATM   12  C   UNL     1       5.610  24.833  55.981  1.00  0.00     0.338 C 
BRANCH  12  13
HETATM   13  C   UNL     1       5.348  26.020  56.927  1.00  0.00     0.248 C 
HETATM   14  N   UNL     1       5.855  27.202  56.397  1.00  0.00    -0.319 N 
HETATM   15  H   UNL     1       6.584  27.155  55.690  1.00  0.00     0.169 HD
HETATM   16  O   UNL     1       4.758  25.861  57.986  1.00  0.00    -0.271 OA
BRANCH  14  17
HETATM   17  C   UNL     1       5.496  28.501  56.727  1.00  0.00     0.094 A 
HETATM   18  S   UNL     1       4.040  29.169  56.165  1.00  0.00    -0.075 SA
HETATM   19  C   UNL     1       4.365  30.664  56.890  1.00  0.00    -0.008 A 
HETATM   20  C   UNL     1       5.558  30.669  57.586  1.00  0.00    -0.026 A 
HETATM   21  C   UNL     1       3.428  31.828  56.771  1.00  0.00     0.047 C 
HETATM   22  C   UNL     1       6.053  31.906  58.291  1.00  0.00     0.041 C 
HETATM   23  C   UNL     1       6.256  29.404  57.463  1.00  0.00     0.080 A 
HETATM   24  C   UNL     1       4.971  32.989  58.411  1.00  0.00     0.005 C 
HETATM   25  C   UNL     1       4.159  33.133  57.120  1.00  0.00     0.005 C 
BRANCH  23  26
HETATM   26  C   UNL     1       7.599  29.150  58.000  1.00  0.00     0.296 C 
HETATM   27  O   UNL     1       7.948  28.072  58.458  1.00  0.00    -0.259 OA
BRANCH  26  28
HETATM   28  O   UNL     1       8.403  30.267  57.991  1.00  0.00    -0.322 OA
HETATM   29  C   UNL     1       9.228  30.436  59.155  1.00  0.00     0.213 C 
ENDBRANCH  26  28
ENDBRANCH  23  26
ENDBRANCH  14  17
ENDBRANCH  12  13
ENDBRANCH   2  12
BRANCH   1  30
HETATM   30  C   UNL     1       6.660  24.932  53.206  1.00  0.00     0.006 A 
HETATM   31  C   UNL     1       6.887  26.311  53.006  1.00  0.00     0.077 A 
HETATM   32  C   UNL     1       6.106  27.030  52.095  1.00  0.00     0.037 A 
HETATM   33  C   UNL     1       5.105  26.387  51.368  1.00  0.00     0.003 A 
HETATM   34  C   UNL     1       4.867  25.032  51.556  1.00  0.00     0.001 A 
HETATM   35  C   UNL     1       5.631  24.310  52.474  1.00  0.00     0.012 A 
BRANCH  31  36
HETATM   36  O   UNL     1       7.849  26.878  53.808  1.00  0.00    -0.351 OA
BRANCH  36  37
HETATM   37  C   UNL     1       7.791  28.305  53.938  1.00  0.00     0.171 C 
HETATM   38  C   UNL     1       8.975  28.742  54.783  1.00  0.00     0.034 C 
ENDBRANCH  36  37
ENDBRANCH  31  36
ENDBRANCH   1  30
BRANCH   6  39
HETATM   39  O   UNL     1       9.692  22.543  55.247  1.00  0.00    -0.389 OA
HETATM   40  H   UNL     1      10.322  21.799  55.328  1.00  0.00     0.210 HD
ENDBRANCH   6  39
TORSDOF 9
ENDMDL
MODEL 3
REMARK VINA RESULT:      -9.0      2.522      7.826
REMARK  9 active torsions:
REMARK  status: ('A' for Active; 'I' for Inactive)
REMARK    1  A    between atoms: C_2  and  O_3 
REMARK    2  A    between atoms: O_3  and  C_4 
REMARK    3  A    between atoms: C_5  and  C_6 
REMARK    4  A    between atoms: N_7  and  C_9 
REMARK    5  A    between atoms: C_9  and  C_10 
REMARK       I    between atoms: C_10  and  N_11 
REMARK    6  A    between atoms: N_11  and  C_12 
REMARK    7  A    between atoms: C_20  and  C_21 
REMARK    8  A    between atoms: C_21  and  O_22 
REMARK    9  A    between atoms: C_28  and  O_29 
ROOT
HETATM    1  C   UNL     1       6.358  30.792  56.858  1.00  0.00     0.231 C 
HETATM    2  N   UNL     1       6.413  29.342  56.348  1.00  0.00    -0.054 N 
HETATM    3  H   UNL     1       7.422  29.293  56.128  1.00  0.00     0.281 HD
HETATM    4  C   UNL     1       5.698  29.110  55.055  1.00  0.00     0.239 C 
HETATM    5  C   UNL     1       4.256  29.573  55.151  1.00  0.00     0.066 C 
HETATM    6  C   UNL     1       4.212  31.061  55.487  1.00  0.00     0.065 C 
HETATM    7  C   UNL     1       4.897  31.321  56.852  1.00  0.00     0.055 C 
HETATM    8  C   UNL     1       2.768  31.589  55.493  1.00  0.00     0.038 C 
HETATM    9  C   UNL     1       2.713  33.080  55.823  1.00  0.00     0.003 C 
HETATM   10  C   UNL     1       3.431  33.389  57.131  1.00  0.00     0.001 C 
HETATM   11  C   UNL     1       4.855  32.840  57.154  1.00  0.00     0.010 C 
ENDROOT
BRANCH   2  12
HETATM   12  C   UNL     1       6.208  28.224  57.390  1.00  0.00     0.338 C 
BRANCH  12  13
HETATM   13  C   UNL     1       5.938  26.864  56.718  1.00  0.00     0.248 C 
HETATM   14  N   UNL     1       7.083  26.381  56.092  1.00  0.00    -0.319 N 
HETATM   15  H   UNL     1       7.821  27.032  55.840  1.00  0.00     0.169 HD
HETATM   16  O   UNL     1       4.834  26.341  56.780  1.00  0.00    -0.271 OA
BRANCH  14  17
HETATM   17  C   UNL     1       7.362  25.070  55.733  1.00  0.00     0.094 A 
HETATM   18  S   UNL     1       7.813  23.925  56.902  1.00  0.00    -0.075 SA
HETATM   19  C   UNL     1       8.023  22.715  55.738  1.00  0.00    -0.008 A 
HETATM   20  C   UNL     1       7.728  23.149  54.460  1.00  0.00    -0.026 A 
HETATM   21  C   UNL     1       8.472  21.331  56.099  1.00  0.00     0.047 C 
HETATM   22  C   UNL     1       7.868  22.239  53.267  1.00  0.00     0.041 C 
HETATM   23  C   UNL     1       7.374  24.554  54.440  1.00  0.00     0.080 A 
HETATM   24  C   UNL     1       8.043  20.766  53.667  1.00  0.00     0.005 C 
HETATM   25  C   UNL     1       9.000  20.604  54.853  1.00  0.00     0.005 C 
BRANCH  23  26
HETATM   26  C   UNL     1       7.121  25.322  53.213  1.00  0.00     0.296 C 
HETATM   27  O   UNL     1       7.948  25.461  52.325  1.00  0.00    -0.259 OA
BRANCH  26  28
HETATM   28  O   UNL     1       5.880  25.917  53.196  1.00  0.00    -0.322 OA
HETATM   29  C   UNL     1       4.773  25.016  53.036  1.00  0.00     0.213 C 
ENDBRANCH  26  28
ENDBRANCH  23  26
ENDBRANCH  14  17
ENDBRANCH  12  13
ENDBRANCH   2  12
BRANCH   1  30
HETATM   30  C   UNL     1       7.164  30.932  58.146  1.00  0.00     0.006 A 
HETATM   31  C   UNL     1       8.532  30.583  58.140  1.00  0.00     0.077 A 
HETATM   32  C   UNL     1       9.281  30.642  59.319  1.00  0.00     0.037 A 
HETATM   33  C   UNL     1       8.685  31.057  60.509  1.00  0.00     0.003 A 
HETATM   34  C   UNL     1       7.339  31.399  60.533  1.00  0.00     0.001 A 
HETATM   35  C   UNL     1       6.581  31.329  59.364  1.00  0.00     0.012 A 
BRANCH  31  36
HETATM   36  O   UNL     1       9.023  30.125  56.939  1.00  0.00    -0.351 OA
BRANCH  36  37
HETATM   37  C   UNL     1       9.945  29.029  57.020  1.00  0.00     0.171 C 
HETATM   38  C   UNL     1      11.350  29.602  56.973  1.00  0.00     0.034 C 
ENDBRANCH  36  37
ENDBRANCH  31  36
ENDBRANCH   1  30
BRANCH   6  39
HETATM   39  O   UNL     1       4.959  31.735  54.464  1.00  0.00    -0.389 OA
HETATM   40  H   UNL     1       4.380  31.898  53.693  1.00  0.00     0.210 HD
ENDBRANCH   6  39
TORSDOF 9
ENDMDL
MODEL 4
REMARK VINA RESULT:      -8.9      2.405      8.188
REMARK  9 active torsions:
REMARK  status: ('A' for Active; 'I' for Inactive)
REMARK    1  A    between atoms: C_2  and  O_3 
REMARK    2  A    between atoms: O_3  and  C_4 
REMARK    3  A    between atoms: C_5  and  C_6 
REMARK    4  A    between atoms: N_7  and  C_9 
REMARK    5  A    between atoms: C_9  and  C_10 
REMARK       I    between atoms: C_10  and  N_11 
REMARK    6  A    between atoms: N_11  and  C_12 
REMARK    7  A    between atoms: C_20  and  C_21 
REMARK    8  A    between atoms: C_21  and  O_22 
REMARK    9  A    between atoms: C_28  and  O_29 
ROOT
HETATM    1  C   UNL     1       7.203  27.483  56.959  1.00  0.00     0.231 C 
HETATM    2  N   UNL     1       6.135  28.026  55.995  1.00  0.00    -0.054 N 
HETATM    3  H   UNL     1       5.708  28.733  56.617  1.00  0.00     0.281 HD
HETATM    4  C   UNL     1       5.045  27.056  55.664  1.00  0.00     0.239 C 
HETATM    5  C   UNL     1       5.625  25.763  55.124  1.00  0.00     0.066 C 
HETATM    6  C   UNL     1       6.553  25.138  56.163  1.00  0.00     0.065 C 
HETATM    7  C   UNL     1       7.724  26.100  56.480  1.00  0.00     0.055 C 
HETATM    8  C   UNL     1       7.081  23.774  55.689  1.00  0.00     0.038 C 
HETATM    9  C   UNL     1       8.007  23.137  56.725  1.00  0.00     0.003 C 
HETATM   10  C   UNL     1       9.142  24.076  57.112  1.00  0.00     0.001 C 
HETATM   11  C   UNL     1       8.634  25.448  57.551  1.00  0.00     0.010 C 
ENDROOT
BRANCH   2  12
HETATM   12  C   UNL     1       6.633  28.848  54.789  1.00  0.00     0.338 C 
BRANCH  12  13
HETATM   13  C   UNL     1       5.545  28.985  53.707  1.00  0.00     0.248 C 
HETATM   14  N   UNL     1       6.056  28.695  52.446  1.00  0.00    -0.319 N 
HETATM   15  H   UNL     1       7.058  28.757  52.292  1.00  0.00     0.169 HD
HETATM   16  O   UNL     1       4.402  29.304  54.003  1.00  0.00    -0.271 OA
BRANCH  14  17
HETATM   17  C   UNL     1       5.349  28.328  51.310  1.00  0.00     0.094 A 
HETATM   18  S   UNL     1       4.551  29.494  50.367  1.00  0.00    -0.075 SA
HETATM   19  C   UNL     1       3.934  28.322  49.313  1.00  0.00    -0.008 A 
HETATM   20  C   UNL     1       4.345  27.044  49.640  1.00  0.00    -0.026 A 
HETATM   21  C   UNL     1       3.050  28.677  48.156  1.00  0.00     0.047 C 
HETATM   22  C   UNL     1       3.894  25.845  48.845  1.00  0.00     0.041 C 
HETATM   23  C   UNL     1       5.150  27.031  50.845  1.00  0.00     0.080 A 
HETATM   24  C   UNL     1       3.238  26.235  47.513  1.00  0.00     0.005 C 
HETATM   25  C   UNL     1       2.295  27.433  47.666  1.00  0.00     0.005 C 
BRANCH  23  26
HETATM   26  C   UNL     1       5.633  25.808  51.499  1.00  0.00     0.296 C 
HETATM   27  O   UNL     1       4.909  24.866  51.783  1.00  0.00    -0.259 OA
BRANCH  26  28
HETATM   28  O   UNL     1       6.972  25.857  51.812  1.00  0.00    -0.322 OA
HETATM   29  C   UNL     1       7.579  24.588  52.101  1.00  0.00     0.213 C 
ENDBRANCH  26  28
ENDBRANCH  23  26
ENDBRANCH  14  17
ENDBRANCH  12  13
ENDBRANCH   2  12
BRANCH   1  30
HETATM   30  C   UNL     1       8.231  28.565  57.275  1.00  0.00     0.006 A 
HETATM   31  C   UNL     1       7.817  29.723  57.970  1.00  0.00     0.077 A 
HETATM   32  C   UNL     1       8.723  30.759  58.219  1.00  0.00     0.037 A 
HETATM   33  C   UNL     1      10.046  30.651  57.794  1.00  0.00     0.003 A 
HETATM   34  C   UNL     1      10.468  29.521  57.105  1.00  0.00     0.001 A 
HETATM   35  C   UNL     1       9.568  28.490  56.839  1.00  0.00     0.012 A 
BRANCH  31  36
HETATM   36  O   UNL     1       6.482  29.774  58.297  1.00  0.00    -0.351 OA
BRANCH  36  37
HETATM   37  C   UNL     1       5.808  30.999  57.980  1.00  0.00     0.171 C 
HETATM   38  C   UNL     1       4.356  30.668  57.689  1.00  0.00     0.034 C 
ENDBRANCH  36  37
ENDBRANCH  31  36
ENDBRANCH   1  30
BRANCH   6  39
HETATM   39  O   UNL     1       5.773  24.957  57.353  1.00  0.00    -0.389 OA
HETATM   40  H   UNL     1       6.272  24.407  57.989  1.00  0.00     0.210 HD
ENDBRANCH   6  39
TORSDOF 9
ENDMDL
MODEL 5
REMARK VINA RESULT:      -8.5      2.496      8.239
REMARK  9 active torsions:
REMARK  status: ('A' for Active; 'I' for Inactive)
REMARK    1  A    between atoms: C_2  and  O_3 
REMARK    2  A    between atoms: O_3  and  C_4 
REMARK    3  A    between atoms: C_5  and  C_6 
REMARK    4  A    between atoms: N_7  and  C_9 
REMARK    5  A    between atoms: C_9  and  C_10 
REMARK       I    between atoms: C_10  and  N_11 
REMARK    6  A    between atoms: N_11  and  C_12 
REMARK    7  A    between atoms: C_20  and  C_21 
REMARK    8  A    between atoms: C_21  and  O_22 
REMARK    9  A    between atoms: C_28  and  O_29 
ROOT
HETATM    1  C   UNL     1       6.895  27.183  56.639  1.00  0.00     0.231 C 
HETATM    2  N   UNL     1       6.010  27.606  55.454  1.00  0.00    -0.054 N 
HETATM    3  H   UNL     1       5.367  28.239  55.959  1.00  0.00     0.281 HD
HETATM    4  C   UNL     1       5.157  26.513  54.894  1.00  0.00     0.239 C 
HETATM    5  C   UNL     1       6.005  25.316  54.508  1.00  0.00     0.066 C 
HETATM    6  C   UNL     1       6.749  24.792  55.734  1.00  0.00     0.065 C 
HETATM    7  C   UNL     1       7.685  25.889  56.300  1.00  0.00     0.055 C 
HETATM    8  C   UNL     1       7.542  23.517  55.402  1.00  0.00     0.038 C 
HETATM    9  C   UNL     1       8.285  22.981  56.625  1.00  0.00     0.003 C 
HETATM   10  C   UNL     1       9.173  24.049  57.251  1.00  0.00     0.001 C 
HETATM   11  C   UNL     1       8.408  25.334  57.553  1.00  0.00     0.010 C 
ENDROOT
BRANCH   2  12
HETATM   12  C   UNL     1       6.655  28.511  54.385  1.00  0.00     0.338 C 
BRANCH  12  13
HETATM   13  C   UNL     1       5.701  28.762  53.203  1.00  0.00     0.248 C 
HETATM   14  N   UNL     1       6.102  28.048  52.077  1.00  0.00    -0.319 N 
HETATM   15  H   UNL     1       7.067  27.738  52.007  1.00  0.00     0.169 HD
HETATM   16  O   UNL     1       4.734  29.501  53.322  1.00  0.00    -0.271 OA
BRANCH  14  17
HETATM   17  C   UNL     1       5.332  27.699  50.977  1.00  0.00     0.094 A 
HETATM   18  S   UNL     1       4.871  26.086  50.715  1.00  0.00    -0.075 SA
HETATM   19  C   UNL     1       4.088  26.472  49.264  1.00  0.00    -0.008 A 
HETATM   20  C   UNL     1       4.139  27.822  48.976  1.00  0.00    -0.026 A 
HETATM   21  C   UNL     1       3.417  25.432  48.420  1.00  0.00     0.047 C 
HETATM   22  C   UNL     1       3.523  28.383  47.719  1.00  0.00     0.041 C 
HETATM   23  C   UNL     1       4.908  28.553  49.963  1.00  0.00     0.080 A 
HETATM   24  C   UNL     1       2.600  27.376  47.017  1.00  0.00     0.005 C 
HETATM   25  C   UNL     1       3.199  25.966  46.996  1.00  0.00     0.005 C 
BRANCH  23  26
HETATM   26  C   UNL     1       5.230  29.983  49.862  1.00  0.00     0.296 C 
HETATM   27  O   UNL     1       6.372  30.413  49.805  1.00  0.00    -0.259 OA
BRANCH  26  28
HETATM   28  O   UNL     1       4.116  30.790  49.899  1.00  0.00    -0.322 OA
HETATM   29  C   UNL     1       4.181  31.878  50.834  1.00  0.00     0.213 C 
ENDBRANCH  26  28
ENDBRANCH  23  26
ENDBRANCH  14  17
ENDBRANCH  12  13
ENDBRANCH   2  12
BRANCH   1  30
HETATM   30  C   UNL     1       7.678  28.380  57.170  1.00  0.00     0.006 A 
HETATM   31  C   UNL     1       6.974  29.446  57.773  1.00  0.00     0.077 A 
HETATM   32  C   UNL     1       7.658  30.584  58.213  1.00  0.00     0.037 A 
HETATM   33  C   UNL     1       9.043  30.669  58.071  1.00  0.00     0.003 A 
HETATM   34  C   UNL     1       9.748  29.631  57.476  1.00  0.00     0.001 A 
HETATM   35  C   UNL     1       9.072  28.500  57.020  1.00  0.00     0.012 A 
BRANCH  31  36
HETATM   36  O   UNL     1       5.606  29.306  57.816  1.00  0.00    -0.351 OA
BRANCH  36  37
HETATM   37  C   UNL     1       4.854  30.527  57.786  1.00  0.00     0.171 C 
HETATM   38  C   UNL     1       4.003  30.515  56.529  1.00  0.00     0.034 C 
ENDBRANCH  36  37
ENDBRANCH  31  36
ENDBRANCH   1  30
BRANCH   6  39
HETATM   39  O   UNL     1       5.752  24.488  56.719  1.00  0.00    -0.389 OA
HETATM   40  H   UNL     1       5.979  24.931  57.560  1.00  0.00     0.210 HD
ENDBRANCH   6  39
TORSDOF 9
ENDMDL
MODEL 6
REMARK VINA RESULT:      -8.4      3.473      7.286
REMARK  9 active torsions:
REMARK  status: ('A' for Active; 'I' for Inactive)
REMARK    1  A    between atoms: C_2  and  O_3 
REMARK    2  A    between atoms: O_3  and  C_4 
REMARK    3  A    between atoms: C_5  and  C_6 
REMARK    4  A    between atoms: N_7  and  C_9 
REMARK    5  A    between atoms: C_9  and  C_10 
REMARK       I    between atoms: C_10  and  N_11 
REMARK    6  A    between atoms: N_11  and  C_12 
REMARK    7  A    between atoms: C_20  and  C_21 
REMARK    8  A    between atoms: C_21  and  O_22 
REMARK    9  A    between atoms: C_28  and  O_29 
ROOT
HETATM    1  C   UNL     1       3.722  28.870  49.135  1.00  0.00     0.231 C 
HETATM    2  N   UNL     1       4.695  28.459  50.254  1.00  0.00    -0.054 N 
HETATM    3  H   UNL     1       5.330  29.274  50.214  1.00  0.00     0.281 HD
HETATM    4  C   UNL     1       5.536  27.264  49.938  1.00  0.00     0.239 C 
HETATM    5  C   UNL     1       4.667  26.085  49.546  1.00  0.00     0.066 C 
HETATM    6  C   UNL     1       3.830  26.445  48.321  1.00  0.00     0.065 C 
HETATM    7  C   UNL     1       2.905  27.645  48.640  1.00  0.00     0.055 C 
HETATM    8  C   UNL     1       3.009  25.239  47.833  1.00  0.00     0.038 C 
HETATM    9  C   UNL     1       2.171  25.587  46.603  1.00  0.00     0.003 C 
HETATM   10  C   UNL     1       1.289  26.804  46.854  1.00  0.00     0.001 C 
HETATM   11  C   UNL     1       2.085  27.999  47.374  1.00  0.00     0.010 C 
ENDROOT
BRANCH   2  12
HETATM   12  C   UNL     1       4.152  28.483  51.697  1.00  0.00     0.338 C 
BRANCH  12  13
HETATM   13  C   UNL     1       5.186  27.939  52.701  1.00  0.00     0.248 C 
HETATM   14  N   UNL     1       4.801  26.694  53.189  1.00  0.00    -0.319 N 
HETATM   15  H   UNL     1       3.823  26.423  53.137  1.00  0.00     0.169 HD
HETATM   16  O   UNL     1       6.192  28.578  52.975  1.00  0.00    -0.271 OA
BRANCH  14  17
HETATM   17  C   UNL     1       5.606  25.730  53.778  1.00  0.00     0.094 A 
HETATM   18  S   UNL     1       6.269  24.468  52.855  1.00  0.00    -0.075 SA
HETATM   19  C   UNL     1       6.992  23.761  54.213  1.00  0.00    -0.008 A 
HETATM   20  C   UNL     1       6.767  24.481  55.370  1.00  0.00    -0.026 A 
HETATM   21  C   UNL     1       7.789  22.495  54.123  1.00  0.00     0.047 C 
HETATM   22  C   UNL     1       7.302  24.019  56.702  1.00  0.00     0.041 C 
HETATM   23  C   UNL     1       5.914  25.628  55.132  1.00  0.00     0.080 A 
HETATM   24  C   UNL     1       8.345  22.900  56.561  1.00  0.00     0.005 C 
HETATM   25  C   UNL     1       7.932  21.860  55.514  1.00  0.00     0.005 C 
BRANCH  23  26
HETATM   26  C   UNL     1       5.410  26.514  56.190  1.00  0.00     0.296 C 
HETATM   27  O   UNL     1       4.649  26.144  57.071  1.00  0.00    -0.259 OA
BRANCH  26  28
HETATM   28  O   UNL     1       5.835  27.815  56.051  1.00  0.00    -0.322 OA
HETATM   29  C   UNL     1       4.838  28.815  56.311  1.00  0.00     0.213 C 
ENDBRANCH  26  28
ENDBRANCH  23  26
ENDBRANCH  14  17
ENDBRANCH  12  13
ENDBRANCH   2  12
BRANCH   1  30
HETATM   30  C   UNL     1       2.957  30.128  49.533  1.00  0.00     0.006 A 
HETATM   31  C   UNL     1       3.627  31.371  49.521  1.00  0.00     0.077 A 
HETATM   32  C   UNL     1       2.968  32.532  49.940  1.00  0.00     0.037 A 
HETATM   33  C   UNL     1       1.641  32.472  50.362  1.00  0.00     0.003 A 
HETATM   34  C   UNL     1       0.969  31.257  50.384  1.00  0.00     0.001 A 
HETATM   35  C   UNL     1       1.623  30.092  49.982  1.00  0.00     0.012 A 
BRANCH  31  36
HETATM   36  O   UNL     1       4.951  31.329  49.151  1.00  0.00    -0.351 OA
BRANCH  36  37
HETATM   37  C   UNL     1       5.811  32.272  49.805  1.00  0.00     0.171 C 
HETATM   38  C   UNL     1       6.524  33.071  48.729  1.00  0.00     0.034 C 
ENDBRANCH  36  37
ENDBRANCH  31  36
ENDBRANCH   1  30
BRANCH   6  39
HETATM   39  O   UNL     1       4.752  26.837  47.295  1.00  0.00    -0.389 OA
HETATM   40  H   UNL     1       5.656  26.561  47.546  1.00  0.00     0.210 HD
ENDBRANCH   6  39
TORSDOF 9
ENDMDL
MODEL 7
REMARK VINA RESULT:      -8.3      3.777      7.254
REMARK  9 active torsions:
REMARK  status: ('A' for Active; 'I' for Inactive)
REMARK    1  A    between atoms: C_2  and  O_3 
REMARK    2  A    between atoms: O_3  and  C_4 
REMARK    3  A    between atoms: C_5  and  C_6 
REMARK    4  A    between atoms: N_7  and  C_9 
REMARK    5  A    between atoms: C_9  and  C_10 
REMARK       I    between atoms: C_10  and  N_11 
REMARK    6  A    between atoms: N_11  and  C_12 
REMARK    7  A    between atoms: C_20  and  C_21 
REMARK    8  A    between atoms: C_21  and  O_22 
REMARK    9  A    between atoms: C_28  and  O_29 
ROOT
HETATM    1  C   UNL     1       3.557  28.916  49.242  1.00  0.00     0.231 C 
HETATM    2  N   UNL     1       4.464  28.569  50.435  1.00  0.00    -0.054 N 
HETATM    3  H   UNL     1       5.051  29.420  50.436  1.00  0.00     0.281 HD
HETATM    4  C   UNL     1       5.396  27.425  50.197  1.00  0.00     0.239 C 
HETATM    5  C   UNL     1       4.629  26.194  49.752  1.00  0.00     0.066 C 
HETATM    6  C   UNL     1       3.868  26.496  48.463  1.00  0.00     0.065 C 
HETATM    7  C   UNL     1       2.853  27.641  48.699  1.00  0.00     0.055 C 
HETATM    8  C   UNL     1       3.159  25.242  47.927  1.00  0.00     0.038 C 
HETATM    9  C   UNL     1       2.399  25.532  46.634  1.00  0.00     0.003 C 
HETATM   10  C   UNL     1       1.431  26.695  46.805  1.00  0.00     0.001 C 
HETATM   11  C   UNL     1       2.113  27.939  47.370  1.00  0.00     0.010 C 
ENDROOT
BRANCH   2  12
HETATM   12  C   UNL     1       3.812  28.570  51.833  1.00  0.00     0.338 C 
BRANCH  12  13
HETATM   13  C   UNL     1       4.857  28.372  52.947  1.00  0.00     0.248 C 
HETATM   14  N   UNL     1       4.512  27.306  53.772  1.00  0.00    -0.319 N 
HETATM   15  H   UNL     1       3.544  26.999  53.804  1.00  0.00     0.169 HD
HETATM   16  O   UNL     1       5.839  29.097  53.022  1.00  0.00    -0.271 OA
BRANCH  14  17
HETATM   17  C   UNL     1       5.345  26.579  54.609  1.00  0.00     0.094 A 
HETATM   18  S   UNL     1       5.844  27.212  56.103  1.00  0.00    -0.075 SA
HETATM   19  C   UNL     1       6.805  25.858  56.436  1.00  0.00    -0.008 A 
HETATM   20  C   UNL     1       6.738  24.902  55.441  1.00  0.00    -0.026 A 
HETATM   21  C   UNL     1       7.615  25.745  57.691  1.00  0.00     0.047 C 
HETATM   22  C   UNL     1       7.532  23.624  55.524  1.00  0.00     0.041 C 
HETATM   23  C   UNL     1       5.908  25.335  54.335  1.00  0.00     0.080 A 
HETATM   24  C   UNL     1       8.123  23.386  56.921  1.00  0.00     0.005 C 
HETATM   25  C   UNL     1       8.700  24.671  57.526  1.00  0.00     0.005 C 
BRANCH  23  26
HETATM   26  C   UNL     1       5.741  24.580  53.086  1.00  0.00     0.296 C 
HETATM   27  O   UNL     1       4.651  24.329  52.593  1.00  0.00    -0.259 OA
BRANCH  26  28
HETATM   28  O   UNL     1       6.932  24.133  52.563  1.00  0.00    -0.322 OA
HETATM   29  C   UNL     1       7.796  25.158  52.047  1.00  0.00     0.213 C 
ENDBRANCH  26  28
ENDBRANCH  23  26
ENDBRANCH  14  17
ENDBRANCH  12  13
ENDBRANCH   2  12
BRANCH   1  30
HETATM   30  C   UNL     1       2.691  30.129  49.568  1.00  0.00     0.006 A 
HETATM   31  C   UNL     1       3.306  31.391  49.712  1.00  0.00     0.077 A 
HETATM   32  C   UNL     1       2.547  32.509  50.071  1.00  0.00     0.037 A 
HETATM   33  C   UNL     1       1.173  32.388  50.278  1.00  0.00     0.003 A 
HETATM   34  C   UNL     1       0.554  31.152  50.144  1.00  0.00     0.001 A 
HETATM   35  C   UNL     1       1.306  30.029  49.801  1.00  0.00     0.012 A 
BRANCH  31  36
HETATM   36  O   UNL     1       4.672  31.409  49.552  1.00  0.00    -0.351 OA
BRANCH  36  37
HETATM   37  C   UNL     1       5.149  31.986  48.329  1.00  0.00     0.171 C 
HETATM   38  C   UNL     1       6.265  32.954  48.677  1.00  0.00     0.034 C 
ENDBRANCH  36  37
ENDBRANCH  31  36
ENDBRANCH   1  30
BRANCH   6  39
HETATM   39  O   UNL     1       4.841  26.936  47.506  1.00  0.00    -0.389 OA
HETATM   40  H   UNL     1       4.829  27.913  47.455  1.00  0.00     0.210 HD
ENDBRANCH   6  39
TORSDOF 9
ENDMDL
MODEL 8
REMARK VINA RESULT:      -8.2      2.125      5.105
REMARK  9 active torsions:
REMARK  status: ('A' for Active; 'I' for Inactive)
REMARK    1  A    between atoms: C_2  and  O_3 
REMARK    2  A    between atoms: O_3  and  C_4 
REMARK    3  A    between atoms: C_5  and  C_6 
REMARK    4  A    between atoms: N_7  and  C_9 
REMARK    5  A    between atoms: C_9  and  C_10 
REMARK       I    between atoms: C_10  and  N_11 
REMARK    6  A    between atoms: N_11  and  C_12 
REMARK    7  A    between atoms: C_20  and  C_21 
REMARK    8  A    between atoms: C_21  and  O_22 
REMARK    9  A    between atoms: C_28  and  O_29 
ROOT
HETATM    1  C   UNL     1       7.525  24.160  54.314  1.00  0.00     0.231 C 
HETATM    2  N   UNL     1       7.232  24.679  55.733  1.00  0.00    -0.054 N 
HETATM    3  H   UNL     1       7.592  25.642  55.623  1.00  0.00     0.281 HD
HETATM    4  C   UNL     1       8.058  24.051  56.808  1.00  0.00     0.239 C 
HETATM    5  C   UNL     1       7.927  22.540  56.770  1.00  0.00     0.066 C 
HETATM    6  C   UNL     1       8.388  22.015  55.413  1.00  0.00     0.065 C 
HETATM    7  C   UNL     1       7.509  22.607  54.284  1.00  0.00     0.055 C 
HETATM    8  C   UNL     1       8.364  20.478  55.372  1.00  0.00     0.038 C 
HETATM    9  C   UNL     1       8.830  19.941  54.020  1.00  0.00     0.003 C 
HETATM   10  C   UNL     1       8.030  20.547  52.873  1.00  0.00     0.001 C 
HETATM   11  C   UNL     1       8.015  22.073  52.920  1.00  0.00     0.010 C 
ENDROOT
BRANCH   2  12
HETATM   12  C   UNL     1       5.751  24.880  56.113  1.00  0.00     0.338 C 
BRANCH  12  13
HETATM   13  C   UNL     1       5.564  26.088  57.050  1.00  0.00     0.248 C 
HETATM   14  N   UNL     1       6.332  27.169  56.629  1.00  0.00    -0.319 N 
HETATM   15  H   UNL     1       7.134  27.002  56.028  1.00  0.00     0.169 HD
HETATM   16  O   UNL     1       4.813  26.026  58.013  1.00  0.00    -0.271 OA
BRANCH  14  17
HETATM   17  C   UNL     1       6.154  28.508  56.946  1.00  0.00     0.094 A 
HETATM   18  S   UNL     1       7.063  29.238  58.181  1.00  0.00    -0.075 SA
HETATM   19  C   UNL     1       6.261  30.717  57.992  1.00  0.00    -0.008 A 
HETATM   20  C   UNL     1       5.323  30.688  56.979  1.00  0.00    -0.026 A 
HETATM   21  C   UNL     1       6.576  31.908  58.846  1.00  0.00     0.047 C 
HETATM   22  C   UNL     1       4.477  31.893  56.654  1.00  0.00     0.041 C 
HETATM   23  C   UNL     1       5.222  29.373  56.379  1.00  0.00     0.080 A 
HETATM   24  C   UNL     1       4.996  33.174  57.323  1.00  0.00     0.005 C 
HETATM   25  C   UNL     1       5.430  32.929  58.772  1.00  0.00     0.005 C 
BRANCH  23  26
HETATM   26  C   UNL     1       4.232  29.008  55.357  1.00  0.00     0.296 C 
HETATM   27  O   UNL     1       4.118  27.879  54.903  1.00  0.00    -0.259 OA
BRANCH  26  28
HETATM   28  O   UNL     1       3.489  30.080  54.920  1.00  0.00    -0.322 OA
HETATM   29  C   UNL     1       3.534  30.319  53.504  1.00  0.00     0.213 C 
ENDBRANCH  26  28
ENDBRANCH  23  26
ENDBRANCH  14  17
ENDBRANCH  12  13
ENDBRANCH   2  12
BRANCH   1  30
HETATM   30  C   UNL     1       6.674  24.905  53.290  1.00  0.00     0.006 A 
HETATM   31  C   UNL     1       6.851  26.297  53.134  1.00  0.00     0.077 A 
HETATM   32  C   UNL     1       6.043  27.017  52.248  1.00  0.00     0.037 A 
HETATM   33  C   UNL     1       5.063  26.362  51.503  1.00  0.00     0.003 A 
HETATM   34  C   UNL     1       4.874  24.994  51.648  1.00  0.00     0.001 A 
HETATM   35  C   UNL     1       5.665  24.271  52.541  1.00  0.00     0.012 A 
BRANCH  31  36
HETATM   36  O   UNL     1       7.795  26.872  53.953  1.00  0.00    -0.351 OA
BRANCH  36  37
HETATM   37  C   UNL     1       7.932  28.295  53.843  1.00  0.00     0.171 C 
HETATM   38  C   UNL     1       9.029  28.730  54.799  1.00  0.00     0.034 C 
ENDBRANCH  36  37
ENDBRANCH  31  36
ENDBRANCH   1  30
BRANCH   6  39
HETATM   39  O   UNL     1       9.736  22.472  55.233  1.00  0.00    -0.389 OA
HETATM   40  H   UNL     1      10.330  21.702  55.129  1.00  0.00     0.210 HD
ENDBRANCH   6  39
TORSDOF 9
ENDMDL
MODEL 9
REMARK VINA RESULT:      -7.8      3.397      7.501
REMARK  9 active torsions:
REMARK  status: ('A' for Active; 'I' for Inactive)
REMARK    1  A    between atoms: C_2  and  O_3 
REMARK    2  A    between atoms: O_3  and  C_4 
REMARK    3  A    between atoms: C_5  and  C_6 
REMARK    4  A    between atoms: N_7  and  C_9 
REMARK    5  A    between atoms: C_9  and  C_10 
REMARK       I    between atoms: C_10  and  N_11 
REMARK    6  A    between atoms: N_11  and  C_12 
REMARK    7  A    between atoms: C_20  and  C_21 
REMARK    8  A    between atoms: C_21  and  O_22 
REMARK    9  A    between atoms: C_28  and  O_29 
ROOT
HETATM    1  C   UNL     1       3.954  30.753  52.333  1.00  0.00     0.231 C 
HETATM    2  N   UNL     1       4.353  29.328  52.753  1.00  0.00    -0.054 N 
HETATM    3  H   UNL     1       3.759  28.799  52.092  1.00  0.00     0.281 HD
HETATM    4  C   UNL     1       3.898  28.933  54.122  1.00  0.00     0.239 C 
HETATM    5  C   UNL     1       4.379  29.934  55.156  1.00  0.00     0.066 C 
HETATM    6  C   UNL     1       3.831  31.320  54.827  1.00  0.00     0.065 C 
HETATM    7  C   UNL     1       4.336  31.778  53.436  1.00  0.00     0.055 C 
HETATM    8  C   UNL     1       4.216  32.343  55.909  1.00  0.00     0.038 C 
HETATM    9  C   UNL     1       3.668  33.733  55.593  1.00  0.00     0.003 C 
HETATM   10  C   UNL     1       4.091  34.198  54.205  1.00  0.00     0.001 C 
HETATM   11  C   UNL     1       3.748  33.177  53.123  1.00  0.00     0.010 C 
ENDROOT
BRANCH   2  12
HETATM   12  C   UNL     1       5.785  28.872  52.410  1.00  0.00     0.338 C 
BRANCH  12  13
HETATM   13  C   UNL     1       5.891  27.336  52.342  1.00  0.00     0.248 C 
HETATM   14  N   UNL     1       7.099  26.895  52.874  1.00  0.00    -0.319 N 
HETATM   15  H   UNL     1       7.880  27.542  52.931  1.00  0.00     0.169 HD
HETATM   16  O   UNL     1       4.983  26.664  51.873  1.00  0.00    -0.271 OA
BRANCH  14  17
HETATM   17  C   UNL     1       7.403  25.626  53.345  1.00  0.00     0.094 A 
HETATM   18  S   UNL     1       7.722  24.352  52.269  1.00  0.00    -0.075 SA
HETATM   19  C   UNL     1       7.913  23.241  53.532  1.00  0.00    -0.008 A 
HETATM   20  C   UNL     1       7.768  23.821  54.777  1.00  0.00    -0.026 A 
HETATM   21  C   UNL     1       8.216  21.795  53.282  1.00  0.00     0.047 C 
HETATM   22  C   UNL     1       7.876  23.008  56.042  1.00  0.00     0.041 C 
HETATM   23  C   UNL     1       7.426  25.226  54.678  1.00  0.00     0.080 A 
HETATM   24  C   UNL     1       8.466  21.612  55.796  1.00  0.00     0.005 C 
HETATM   25  C   UNL     1       7.893  20.962  54.532  1.00  0.00     0.005 C 
BRANCH  23  26
HETATM   26  C   UNL     1       7.098  26.076  55.830  1.00  0.00     0.296 C 
HETATM   27  O   UNL     1       7.930  26.466  56.636  1.00  0.00    -0.259 OA
BRANCH  26  28
HETATM   28  O   UNL     1       5.752  26.339  55.941  1.00  0.00    -0.322 OA
HETATM   29  C   UNL     1       5.065  25.588  56.954  1.00  0.00     0.213 C 
ENDBRANCH  26  28
ENDBRANCH  23  26
ENDBRANCH  14  17
ENDBRANCH  12  13
ENDBRANCH   2  12
BRANCH   1  30
HETATM   30  C   UNL     1       4.414  31.033  50.905  1.00  0.00     0.006 A 
HETATM   31  C   UNL     1       3.753  30.393  49.834  1.00  0.00     0.077 A 
HETATM   32  C   UNL     1       4.192  30.582  48.520  1.00  0.00     0.037 A 
HETATM   33  C   UNL     1       5.279  31.414  48.256  1.00  0.00     0.003 A 
HETATM   34  C   UNL     1       5.942  32.048  49.299  1.00  0.00     0.001 A 
HETATM   35  C   UNL     1       5.521  31.853  50.614  1.00  0.00     0.012 A 
BRANCH  31  36
HETATM   36  O   UNL     1       2.732  29.542  50.189  1.00  0.00    -0.351 OA
BRANCH  36  37
HETATM   37  C   UNL     1       2.772  28.238  49.592  1.00  0.00     0.171 C 
HETATM   38  C   UNL     1       1.493  28.056  48.794  1.00  0.00     0.034 C 
ENDBRANCH  36  37
ENDBRANCH  31  36
ENDBRANCH   1  30
BRANCH   6  39
HETATM   39  O   UNL     1       2.404  31.196  54.778  1.00  0.00    -0.389 OA
HETATM   40  H   UNL     1       2.074  30.879  55.643  1.00  0.00     0.210 HD
ENDBRANCH   6  39
TORSDOF 9
ENDMDL
MODEL 10
REMARK VINA RESULT:      -7.7      3.702      7.066
REMARK  9 active torsions:
REMARK  status: ('A' for Active; 'I' for Inactive)
REMARK    1  A    between atoms: C_2  and  O_3 
REMARK    2  A    between atoms: O_3  and  C_4 
REMARK    3  A    between atoms: C_5  and  C_6 
REMARK    4  A    between atoms: N_7  and  C_9 
REMARK    5  A    between atoms: C_9  and  C_10 
REMARK       I    between atoms: C_10  and  N_11 
REMARK    6  A    between atoms: N_11  and  C_12 
REMARK    7  A    between atoms: C_20  and  C_21 
REMARK    8  A    between atoms: C_21  and  O_22 
REMARK    9  A    between atoms: C_28  and  O_29 
ROOT
HETATM    1  C   UNL     1       3.853  29.511  50.881  1.00  0.00     0.231 C 
HETATM    2  N   UNL     1       4.208  28.636  52.095  1.00  0.00    -0.054 N 
HETATM    3  H   UNL     1       3.644  27.803  51.857  1.00  0.00     0.281 HD
HETATM    4  C   UNL     1       3.675  29.135  53.400  1.00  0.00     0.239 C 
HETATM    5  C   UNL     1       4.114  30.566  53.645  1.00  0.00     0.066 C 
HETATM    6  C   UNL     1       3.604  31.463  52.520  1.00  0.00     0.065 C 
HETATM    7  C   UNL     1       4.190  31.002  51.162  1.00  0.00     0.055 C 
HETATM    8  C   UNL     1       3.945  32.939  52.786  1.00  0.00     0.038 C 
HETATM    9  C   UNL     1       3.434  33.847  51.668  1.00  0.00     0.003 C 
HETATM   10  C   UNL     1       3.937  33.390  50.304  1.00  0.00     0.001 C 
HETATM   11  C   UNL     1       3.638  31.917  50.040  1.00  0.00     0.010 C 
ENDROOT
BRANCH   2  12
HETATM   12  C   UNL     1       5.650  28.095  52.170  1.00  0.00     0.338 C 
BRANCH  12  13
HETATM   13  C   UNL     1       5.674  26.577  52.431  1.00  0.00     0.248 C 
HETATM   14  N   UNL     1       6.956  26.148  52.762  1.00  0.00    -0.319 N 
HETATM   15  H   UNL     1       7.753  26.717  52.493  1.00  0.00     0.169 HD
HETATM   16  O   UNL     1       4.654  25.908  52.345  1.00  0.00    -0.271 OA
BRANCH  14  17
HETATM   17  C   UNL     1       7.314  24.985  53.429  1.00  0.00     0.094 A 
HETATM   18  S   UNL     1       7.634  23.555  52.572  1.00  0.00    -0.075 SA
HETATM   19  C   UNL     1       7.900  22.678  53.996  1.00  0.00    -0.008 A 
HETATM   20  C   UNL     1       7.780  23.458  55.130  1.00  0.00    -0.026 A 
HETATM   21  C   UNL     1       8.238  21.218  53.982  1.00  0.00     0.047 C 
HETATM   22  C   UNL     1       7.956  22.874  56.509  1.00  0.00     0.041 C 
HETATM   23  C   UNL     1       7.393  24.817  54.809  1.00  0.00     0.080 A 
HETATM   24  C   UNL     1       8.578  21.470  56.479  1.00  0.00     0.005 C 
HETATM   25  C   UNL     1       7.982  20.603  55.366  1.00  0.00     0.005 C 
BRANCH  23  26
HETATM   26  C   UNL     1       7.080  25.843  55.812  1.00  0.00     0.296 C 
HETATM   27  O   UNL     1       7.919  26.347  56.544  1.00  0.00    -0.259 OA
BRANCH  26  28
HETATM   28  O   UNL     1       5.737  26.134  55.885  1.00  0.00    -0.322 OA
HETATM   29  C   UNL     1       5.424  27.478  56.281  1.00  0.00     0.213 C 
ENDBRANCH  26  28
ENDBRANCH  23  26
ENDBRANCH  14  17
ENDBRANCH  12  13
ENDBRANCH   2  12
BRANCH   1  30
HETATM   30  C   UNL     1       4.392  28.884  49.599  1.00  0.00     0.006 A 
HETATM   31  C   UNL     1       3.577  27.981  48.882  1.00  0.00     0.077 A 
HETATM   32  C   UNL     1       4.067  27.344  47.738  1.00  0.00     0.037 A 
HETATM   33  C   UNL     1       5.361  27.605  47.289  1.00  0.00     0.003 A 
HETATM   34  C   UNL     1       6.176  28.488  47.985  1.00  0.00     0.001 A 
HETATM   35  C   UNL     1       5.701  29.116  49.136  1.00  0.00     0.012 A 
BRANCH  31  36
HETATM   36  O   UNL     1       2.340  27.734  49.430  1.00  0.00    -0.351 OA
BRANCH  36  37
HETATM   37  C   UNL     1       1.229  27.834  48.528  1.00  0.00     0.171 C 
HETATM   38  C   UNL     1       1.061  29.297  48.161  1.00  0.00     0.034 C 
ENDBRANCH  36  37
ENDBRANCH  31  36
ENDBRANCH   1  30
BRANCH   6  39
HETATM   39  O   UNL     1       2.180  31.305  52.482  1.00  0.00    -0.389 OA
HETATM   40  H   UNL     1       1.790  31.666  53.304  1.00  0.00     0.210 HD
ENDBRANCH   6  39
TORSDOF 9
ENDMDL
