MODEL 1
REMARK VINA RESULT:      -9.9      0.000      0.000
REMARK  6 active torsions:
REMARK  status: ('A' for Active; 'I' for Inactive)
REMARK    1  A    between atoms: O_2  and  C_3 
REMARK    2  A    between atoms: C_6  and  C_7 
REMARK    3  A    between atoms: C_13  and  C_14 
REMARK       I    between atoms: C_14  and  N_15 
REMARK    4  A    between atoms: N_15  and  C_16 
REMARK    5  A    between atoms: C_18  and  O_19 
REMARK    6  A    between atoms: C_24  and  C_25 
ROOT
HETATM    1  C   UNL     1       7.330  25.747  54.016  1.00  0.00     0.118 C 
HETATM    2  N   UNL     1       6.512  26.152  52.862  1.00  0.00    -0.365 N 
HETATM    3  C   UNL     1       5.808  27.322  52.902  1.00  0.00     0.138 A 
HETATM    4  N   UNL     1       5.770  28.083  54.047  1.00  0.00    -0.240 N 
HETATM    5  N   UNL     1       5.030  29.195  53.947  1.00  0.00    -0.181 NA
HETATM    6  C   UNL     1       4.607  29.163  52.681  1.00  0.00     0.160 A 
HETATM    7  C   UNL     1       5.028  28.002  51.982  1.00  0.00     0.096 A 
HETATM    8  C   UNL     1       6.438  27.746  55.288  1.00  0.00     0.221 C 
HETATM    9  C   UNL     1       6.693  26.234  55.327  1.00  0.00     0.066 C 
HETATM   10  H   UNL     1       6.964  25.891  51.981  1.00  0.00     0.161 HD
ENDROOT
BRANCH   7  11
HETATM   11  C   UNL     1       4.657  27.670  50.614  1.00  0.00     0.261 C 
HETATM   12  N   UNL     1       3.319  27.869  50.332  1.00  0.00    -0.323 N 
HETATM   13  H   UNL     1       2.769  28.257  51.088  1.00  0.00     0.169 HD
HETATM   14  O   UNL     1       5.510  27.283  49.825  1.00  0.00    -0.267 OA
BRANCH  12  15
HETATM   15  C   UNL     1       2.657  27.667  49.104  1.00  0.00     0.037 A 
HETATM   16  C   UNL     1       2.941  26.621  48.222  1.00  0.00     0.066 A 
HETATM   17  C   UNL     1       2.244  26.511  47.019  1.00  0.00     0.067 A 
HETATM   18  C   UNL     1       1.250  27.421  46.679  1.00  0.00     0.036 A 
HETATM   19  C   UNL     1       0.955  28.463  47.554  1.00  0.00     0.005 A 
HETATM   20  C   UNL     1       1.658  28.589  48.757  1.00  0.00     0.029 A 
BRANCH  17  21
HETATM   21  O   UNL     1       2.574  25.482  46.186  1.00  0.00    -0.361 OA
HETATM   22  H   UNL     1       2.082  24.690  46.453  1.00  0.00     0.217 HD
ENDBRANCH  17  21
ENDBRANCH  12  15
ENDBRANCH   7  11
BRANCH   1  23
HETATM   23  C   UNL     1       7.487  24.236  54.055  1.00  0.00    -0.035 A 
HETATM   24  C   UNL     1       7.746  23.533  52.867  1.00  0.00     0.012 A 
HETATM   25  C   UNL     1       7.994  22.155  52.886  1.00  0.00     0.037 A 
HETATM   26  C   UNL     1       7.988  21.459  54.093  1.00  0.00     0.068 A 
HETATM   27  C   UNL     1       7.706  22.145  55.275  1.00  0.00     0.037 A 
HETATM   28  C   UNL     1       7.465  23.522  55.261  1.00  0.00     0.012 A 
BRANCH  26  29
HETATM   29  O   UNL     1       8.237  20.124  54.248  1.00  0.00    -0.356 OA
HETATM   30  C   UNL     1       8.786  19.719  55.497  1.00  0.00     0.210 C 
ENDBRANCH  26  29
ENDBRANCH   1  23
BRANCH   8  31
HETATM   31  C   UNL     1       7.712  28.551  55.428  1.00  0.00     0.409 C 
HETATM   32  F   UNL     1       8.384  28.684  54.264  1.00  0.00    -0.169 F 
HETATM   33  F   UNL     1       7.505  29.785  55.930  1.00  0.00    -0.169 F 
HETATM   34  F   UNL     1       8.557  27.922  56.288  1.00  0.00    -0.169 F 
ENDBRANCH   8  31
TORSDOF 6
ENDMDL
MODEL 2
REMARK VINA RESULT:      -9.7      1.541      1.851
REMARK  6 active torsions:
REMARK  status: ('A' for Active; 'I' for Inactive)
REMARK    1  A    between atoms: O_2  and  C_3 
REMARK    2  A    between atoms: C_6  and  C_7 
REMARK    3  A    between atoms: C_13  and  C_14 
REMARK       I    between atoms: C_14  and  N_15 
REMARK    4  A    between atoms: N_15  and  C_16 
REMARK    5  A    between atoms: C_18  and  O_19 
REMARK    6  A    between atoms: C_24  and  C_25 
ROOT
HETATM    1  C   UNL     1       6.909  26.139  55.052  1.00  0.00     0.118 C 
HETATM    2  N   UNL     1       6.279  26.899  53.960  1.00  0.00    -0.365 N 
HETATM    3  C   UNL     1       5.473  27.964  54.248  1.00  0.00     0.138 A 
HETATM    4  N   UNL     1       5.157  28.279  55.549  1.00  0.00    -0.240 N 
HETATM    5  N   UNL     1       4.347  29.337  55.680  1.00  0.00    -0.181 NA
HETATM    6  C   UNL     1       4.165  29.736  54.419  1.00  0.00     0.160 A 
HETATM    7  C   UNL     1       4.813  28.901  53.472  1.00  0.00     0.096 A 
HETATM    8  C   UNL     1       5.619  27.549  56.712  1.00  0.00     0.221 C 
HETATM    9  C   UNL     1       6.002  26.124  56.293  1.00  0.00     0.066 C 
HETATM   10  H   UNL     1       6.905  26.972  53.154  1.00  0.00     0.161 HD
ENDROOT
BRANCH   7  11
HETATM   11  C   UNL     1       4.727  29.055  52.027  1.00  0.00     0.261 C 
HETATM   12  N   UNL     1       4.302  27.919  51.365  1.00  0.00    -0.323 N 
HETATM   13  H   UNL     1       4.062  27.135  51.959  1.00  0.00     0.169 HD
HETATM   14  O   UNL     1       4.993  30.133  51.509  1.00  0.00    -0.267 OA
BRANCH  12  15
HETATM   15  C   UNL     1       4.093  27.754  49.981  1.00  0.00     0.037 A 
HETATM   16  C   UNL     1       5.077  27.329  49.085  1.00  0.00     0.066 A 
HETATM   17  C   UNL     1       4.783  27.210  47.727  1.00  0.00     0.067 A 
HETATM   18  C   UNL     1       3.513  27.495  47.240  1.00  0.00     0.036 A 
HETATM   19  C   UNL     1       2.524  27.912  48.126  1.00  0.00     0.005 A 
HETATM   20  C   UNL     1       2.813  28.046  49.488  1.00  0.00     0.029 A 
BRANCH  17  21
HETATM   21  O   UNL     1       5.786  26.810  46.892  1.00  0.00    -0.361 OA
HETATM   22  H   UNL     1       5.699  25.858  46.728  1.00  0.00     0.217 HD
ENDBRANCH  17  21
ENDBRANCH  12  15
ENDBRANCH   7  11
BRANCH   1  23
HETATM   23  C   UNL     1       7.196  24.714  54.613  1.00  0.00    -0.035 A 
HETATM   24  C   UNL     1       7.508  24.449  53.269  1.00  0.00     0.012 A 
HETATM   25  C   UNL     1       7.874  23.163  52.855  1.00  0.00     0.037 A 
HETATM   26  C   UNL     1       7.938  22.121  53.778  1.00  0.00     0.068 A 
HETATM   27  C   UNL     1       7.605  22.369  55.110  1.00  0.00     0.037 A 
HETATM   28  C   UNL     1       7.246  23.654  55.529  1.00  0.00     0.012 A 
BRANCH  26  29
HETATM   29  O   UNL     1       8.303  20.832  53.506  1.00  0.00    -0.356 OA
HETATM   30  C   UNL     1       8.772  20.059  54.604  1.00  0.00     0.210 C 
ENDBRANCH  26  29
ENDBRANCH   1  23
BRANCH   8  31
HETATM   31  C   UNL     1       6.765  28.287  57.369  1.00  0.00     0.409 C 
HETATM   32  F   UNL     1       7.660  28.770  56.481  1.00  0.00    -0.169 F 
HETATM   33  F   UNL     1       6.359  29.311  58.146  1.00  0.00    -0.169 F 
HETATM   34  F   UNL     1       7.451  27.437  58.179  1.00  0.00    -0.169 F 
ENDBRANCH   8  31
TORSDOF 6
ENDMDL
MODEL 3
REMARK VINA RESULT:      -9.6      1.516      2.218
REMARK  6 active torsions:
REMARK  status: ('A' for Active; 'I' for Inactive)
REMARK    1  A    between atoms: O_2  and  C_3 
REMARK    2  A    between atoms: C_6  and  C_7 
REMARK    3  A    between atoms: C_13  and  C_14 
REMARK       I    between atoms: C_14  and  N_15 
REMARK    4  A    between atoms: N_15  and  C_16 
REMARK    5  A    between atoms: C_18  and  O_19 
REMARK    6  A    between atoms: C_24  and  C_25 
ROOT
HETATM    1  C   UNL     1       7.203  26.156  55.241  1.00  0.00     0.118 C 
HETATM    2  N   UNL     1       6.618  26.790  54.048  1.00  0.00    -0.365 N 
HETATM    3  C   UNL     1       5.794  27.871  54.186  1.00  0.00     0.138 A 
HETATM    4  N   UNL     1       5.419  28.319  55.431  1.00  0.00    -0.240 N 
HETATM    5  N   UNL     1       4.598  29.377  55.413  1.00  0.00    -0.181 NA
HETATM    6  C   UNL     1       4.471  29.638  54.110  1.00  0.00     0.160 A 
HETATM    7  C   UNL     1       5.165  28.715  53.286  1.00  0.00     0.096 A 
HETATM    8  C   UNL     1       5.831  27.720  56.684  1.00  0.00     0.221 C 
HETATM    9  C   UNL     1       6.241  26.263  56.436  1.00  0.00     0.066 C 
HETATM   10  H   UNL     1       7.279  26.784  53.267  1.00  0.00     0.161 HD
ENDROOT
BRANCH   7  11
HETATM   11  C   UNL     1       5.144  28.714  51.831  1.00  0.00     0.261 C 
HETATM   12  N   UNL     1       4.185  27.884  51.283  1.00  0.00    -0.323 N 
HETATM   13  H   UNL     1       3.589  27.410  51.951  1.00  0.00     0.169 HD
HETATM   14  O   UNL     1       5.914  29.435  51.207  1.00  0.00    -0.267 OA
BRANCH  12  15
HETATM   15  C   UNL     1       3.896  27.681  49.918  1.00  0.00     0.037 A 
HETATM   16  C   UNL     1       2.925  28.391  49.209  1.00  0.00     0.066 A 
HETATM   17  C   UNL     1       2.696  28.109  47.862  1.00  0.00     0.067 A 
HETATM   18  C   UNL     1       3.432  27.136  47.197  1.00  0.00     0.036 A 
HETATM   19  C   UNL     1       4.407  26.428  47.894  1.00  0.00     0.005 A 
HETATM   20  C   UNL     1       4.635  26.695  49.248  1.00  0.00     0.029 A 
BRANCH  17  21
HETATM   21  O   UNL     1       1.722  28.819  47.221  1.00  0.00    -0.361 OA
HETATM   22  H   UNL     1       1.804  28.674  46.266  1.00  0.00     0.217 HD
ENDBRANCH  17  21
ENDBRANCH  12  15
ENDBRANCH   7  11
BRANCH   1  23
HETATM   23  C   UNL     1       7.517  24.695  54.969  1.00  0.00    -0.035 A 
HETATM   24  C   UNL     1       7.663  23.803  56.043  1.00  0.00     0.012 A 
HETATM   25  C   UNL     1       7.854  22.434  55.821  1.00  0.00     0.037 A 
HETATM   26  C   UNL     1       7.899  21.935  54.521  1.00  0.00     0.068 A 
HETATM   27  C   UNL     1       7.780  22.818  53.447  1.00  0.00     0.037 A 
HETATM   28  C   UNL     1       7.582  24.184  53.665  1.00  0.00     0.012 A 
BRANCH  26  29
HETATM   29  O   UNL     1       8.055  20.622  54.173  1.00  0.00    -0.356 OA
HETATM   30  C   UNL     1       8.338  20.356  52.804  1.00  0.00     0.210 C 
ENDBRANCH  26  29
ENDBRANCH   1  23
BRANCH   8  31
HETATM   31  C   UNL     1       6.943  28.535  57.309  1.00  0.00     0.409 C 
HETATM   32  F   UNL     1       7.745  27.804  58.114  1.00  0.00    -0.169 F 
HETATM   33  F   UNL     1       7.723  29.153  56.400  1.00  0.00    -0.169 F 
HETATM   34  F   UNL     1       6.410  29.513  58.088  1.00  0.00    -0.169 F 
ENDBRANCH   8  31
TORSDOF 6
ENDMDL
MODEL 4
REMARK VINA RESULT:      -9.5      4.000      8.856
REMARK  6 active torsions:
REMARK  status: ('A' for Active; 'I' for Inactive)
REMARK    1  A    between atoms: O_2  and  C_3 
REMARK    2  A    between atoms: C_6  and  C_7 
REMARK    3  A    between atoms: C_13  and  C_14 
REMARK       I    between atoms: C_14  and  N_15 
REMARK    4  A    between atoms: N_15  and  C_16 
REMARK    5  A    between atoms: C_18  and  O_19 
REMARK    6  A    between atoms: C_24  and  C_25 
ROOT
HETATM    1  C   UNL     1       6.402  25.967  52.614  1.00  0.00     0.118 C 
HETATM    2  N   UNL     1       6.678  26.893  53.724  1.00  0.00    -0.365 N 
HETATM    3  C   UNL     1       6.825  26.410  54.993  1.00  0.00     0.138 A 
HETATM    4  N   UNL     1       6.620  25.079  55.271  1.00  0.00    -0.240 N 
HETATM    5  N   UNL     1       6.785  24.750  56.558  1.00  0.00    -0.181 NA
HETATM    6  C   UNL     1       7.143  25.907  57.121  1.00  0.00     0.160 A 
HETATM    7  C   UNL     1       7.155  26.992  56.206  1.00  0.00     0.096 A 
HETATM    8  C   UNL     1       6.237  24.079  54.293  1.00  0.00     0.221 C 
HETATM    9  C   UNL     1       5.565  24.773  53.101  1.00  0.00     0.066 C 
HETATM   10  H   UNL     1       7.291  27.655  53.424  1.00  0.00     0.161 HD
ENDROOT
BRANCH   7  11
HETATM   11  C   UNL     1       7.436  28.376  56.556  1.00  0.00     0.261 C 
HETATM   12  N   UNL     1       8.151  28.525  57.729  1.00  0.00    -0.323 N 
HETATM   13  H   UNL     1       8.428  27.662  58.181  1.00  0.00     0.169 HD
HETATM   14  O   UNL     1       7.071  29.281  55.815  1.00  0.00    -0.267 OA
BRANCH  12  15
HETATM   15  C   UNL     1       8.599  29.723  58.321  1.00  0.00     0.037 A 
HETATM   16  C   UNL     1       7.892  30.427  59.299  1.00  0.00     0.066 A 
HETATM   17  C   UNL     1       8.407  31.615  59.816  1.00  0.00     0.067 A 
HETATM   18  C   UNL     1       9.630  32.116  59.385  1.00  0.00     0.036 A 
HETATM   19  C   UNL     1      10.345  31.417  58.416  1.00  0.00     0.005 A 
HETATM   20  C   UNL     1       9.831  30.231  57.883  1.00  0.00     0.029 A 
BRANCH  17  21
HETATM   21  O   UNL     1       7.667  32.273  60.755  1.00  0.00    -0.361 OA
HETATM   22  H   UNL     1       7.326  31.628  61.395  1.00  0.00     0.217 HD
ENDBRANCH  17  21
ENDBRANCH  12  15
ENDBRANCH   7  11
BRANCH   1  23
HETATM   23  C   UNL     1       5.666  26.682  51.493  1.00  0.00    -0.035 A 
HETATM   24  C   UNL     1       5.676  28.085  51.439  1.00  0.00     0.012 A 
HETATM   25  C   UNL     1       5.092  28.767  50.365  1.00  0.00     0.037 A 
HETATM   26  C   UNL     1       4.492  28.058  49.328  1.00  0.00     0.068 A 
HETATM   27  C   UNL     1       4.454  26.664  49.386  1.00  0.00     0.037 A 
HETATM   28  C   UNL     1       5.042  25.979  50.453  1.00  0.00     0.012 A 
BRANCH  26  29
HETATM   29  O   UNL     1       3.910  28.604  48.217  1.00  0.00    -0.356 OA
HETATM   30  C   UNL     1       3.397  27.690  47.254  1.00  0.00     0.210 C 
ENDBRANCH  26  29
ENDBRANCH   1  23
BRANCH   8  31
HETATM   31  C   UNL     1       7.444  23.263  53.883  1.00  0.00     0.409 C 
HETATM   32  F   UNL     1       7.412  22.890  52.584  1.00  0.00    -0.169 F 
HETATM   33  F   UNL     1       8.613  23.899  54.101  1.00  0.00    -0.169 F 
HETATM   34  F   UNL     1       7.488  22.115  54.609  1.00  0.00    -0.169 F 
ENDBRANCH   8  31
TORSDOF 6
ENDMDL
MODEL 5
REMARK VINA RESULT:      -9.2      2.292      7.463
REMARK  6 active torsions:
REMARK  status: ('A' for Active; 'I' for Inactive)
REMARK    1  A    between atoms: O_2  and  C_3 
REMARK    2  A    between atoms: C_6  and  C_7 
REMARK    3  A    between atoms: C_13  and  C_14 
REMARK       I    between atoms: C_14  and  N_15 
REMARK    4  A    between atoms: N_15  and  C_16 
REMARK    5  A    between atoms: C_18  and  O_19 
REMARK    6  A    between atoms: C_24  and  C_25 
ROOT
HETATM    1  C   UNL     1       4.914  27.566  53.815  1.00  0.00     0.118 C 
HETATM    2  N   UNL     1       5.870  26.585  54.352  1.00  0.00    -0.365 N 
HETATM    3  C   UNL     1       6.544  26.853  55.510  1.00  0.00     0.138 A 
HETATM    4  N   UNL     1       6.419  28.073  56.133  1.00  0.00    -0.240 N 
HETATM    5  N   UNL     1       7.148  28.201  57.249  1.00  0.00    -0.181 NA
HETATM    6  C   UNL     1       7.734  27.006  57.365  1.00  0.00     0.160 A 
HETATM    7  C   UNL     1       7.427  26.129  56.293  1.00  0.00     0.096 A 
HETATM    8  C   UNL     1       5.598  29.167  55.653  1.00  0.00     0.221 C 
HETATM    9  C   UNL     1       5.365  28.998  54.147  1.00  0.00     0.066 C 
HETATM   10  H   UNL     1       5.543  25.628  54.196  1.00  0.00     0.161 HD
ENDROOT
BRANCH   7  11
HETATM   11  C   UNL     1       7.980  24.793  56.122  1.00  0.00     0.261 C 
HETATM   12  N   UNL     1       7.405  24.074  55.092  1.00  0.00    -0.323 N 
HETATM   13  H   UNL     1       6.702  24.570  54.557  1.00  0.00     0.169 HD
HETATM   14  O   UNL     1       8.897  24.414  56.841  1.00  0.00    -0.267 OA
BRANCH  12  15
HETATM   15  C   UNL     1       7.732  22.773  54.659  1.00  0.00     0.037 A 
HETATM   16  C   UNL     1       8.054  21.719  55.517  1.00  0.00     0.066 A 
HETATM   17  C   UNL     1       8.382  20.468  54.996  1.00  0.00     0.067 A 
HETATM   18  C   UNL     1       8.383  20.239  53.625  1.00  0.00     0.036 A 
HETATM   19  C   UNL     1       8.056  21.282  52.762  1.00  0.00     0.005 A 
HETATM   20  C   UNL     1       7.738  22.543  53.275  1.00  0.00     0.029 A 
BRANCH  17  21
HETATM   21  O   UNL     1       8.708  19.478  55.877  1.00  0.00    -0.361 OA
HETATM   22  H   UNL     1       8.527  19.787  56.779  1.00  0.00     0.217 HD
ENDBRANCH  17  21
ENDBRANCH  12  15
ENDBRANCH   7  11
BRANCH   1  23
HETATM   23  C   UNL     1       4.777  27.409  52.311  1.00  0.00    -0.035 A 
HETATM   24  C   UNL     1       5.237  26.237  51.689  1.00  0.00     0.012 A 
HETATM   25  C   UNL     1       5.035  26.022  50.320  1.00  0.00     0.037 A 
HETATM   26  C   UNL     1       4.369  26.974  49.552  1.00  0.00     0.068 A 
HETATM   27  C   UNL     1       3.932  28.153  50.156  1.00  0.00     0.037 A 
HETATM   28  C   UNL     1       4.125  28.369  51.524  1.00  0.00     0.012 A 
BRANCH  26  29
HETATM   29  O   UNL     1       4.089  26.873  48.217  1.00  0.00    -0.356 OA
HETATM   30  C   UNL     1       2.830  26.306  47.873  1.00  0.00     0.210 C 
ENDBRANCH  26  29
ENDBRANCH   1  23
BRANCH   8  31
HETATM   31  C   UNL     1       4.305  29.229  56.436  1.00  0.00     0.409 C 
HETATM   32  F   UNL     1       4.457  29.766  57.666  1.00  0.00    -0.169 F 
HETATM   33  F   UNL     1       3.335  29.919  55.802  1.00  0.00    -0.169 F 
HETATM   34  F   UNL     1       3.823  27.972  56.624  1.00  0.00    -0.169 F 
ENDBRANCH   8  31
TORSDOF 6
ENDMDL
MODEL 6
REMARK VINA RESULT:      -9.1      3.959      8.051
REMARK  6 active torsions:
REMARK  status: ('A' for Active; 'I' for Inactive)
REMARK    1  A    between atoms: O_2  and  C_3 
REMARK    2  A    between atoms: C_6  and  C_7 
REMARK    3  A    between atoms: C_13  and  C_14 
REMARK       I    between atoms: C_14  and  N_15 
REMARK    4  A    between atoms: N_15  and  C_16 
REMARK    5  A    between atoms: C_18  and  O_19 
REMARK    6  A    between atoms: C_24  and  C_25 
ROOT
HETATM    1  C   UNL     1       6.244  29.221  55.548  1.00  0.00     0.118 C 
HETATM    2  N   UNL     1       6.655  27.821  55.352  1.00  0.00    -0.365 N 
HETATM    3  C   UNL     1       5.918  27.001  54.545  1.00  0.00     0.138 A 
HETATM    4  N   UNL     1       4.737  27.434  53.988  1.00  0.00    -0.240 N 
HETATM    5  N   UNL     1       4.114  26.521  53.232  1.00  0.00    -0.181 NA
HETATM    6  C   UNL     1       4.944  25.476  53.278  1.00  0.00     0.160 A 
HETATM    7  C   UNL     1       6.074  25.696  54.108  1.00  0.00     0.096 A 
HETATM    8  C   UNL     1       4.161  28.749  54.188  1.00  0.00     0.221 C 
HETATM    9  C   UNL     1       4.713  29.348  55.488  1.00  0.00     0.066 C 
HETATM   10  H   UNL     1       7.674  27.737  55.323  1.00  0.00     0.161 HD
ENDROOT
BRANCH   7  11
HETATM   11  C   UNL     1       7.103  24.709  54.399  1.00  0.00     0.261 C 
HETATM   12  N   UNL     1       6.780  23.427  53.997  1.00  0.00    -0.323 N 
HETATM   13  H   UNL     1       5.894  23.333  53.516  1.00  0.00     0.169 HD
HETATM   14  O   UNL     1       8.153  25.055  54.926  1.00  0.00    -0.267 OA
BRANCH  12  15
HETATM   15  C   UNL     1       7.566  22.262  54.111  1.00  0.00     0.037 A 
HETATM   16  C   UNL     1       8.058  21.764  55.319  1.00  0.00     0.066 A 
HETATM   17  C   UNL     1       8.844  20.611  55.333  1.00  0.00     0.067 A 
HETATM   18  C   UNL     1       9.142  19.931  54.158  1.00  0.00     0.036 A 
HETATM   19  C   UNL     1       8.650  20.417  52.949  1.00  0.00     0.005 A 
HETATM   20  C   UNL     1       7.871  21.578  52.924  1.00  0.00     0.029 A 
BRANCH  17  21
HETATM   21  O   UNL     1       9.315  20.178  56.538  1.00  0.00    -0.361 OA
HETATM   22  H   UNL     1       9.562  19.243  56.462  1.00  0.00     0.217 HD
ENDBRANCH  17  21
ENDBRANCH  12  15
ENDBRANCH   7  11
BRANCH   1  23
HETATM   23  C   UNL     1       6.747  29.742  56.883  1.00  0.00    -0.035 A 
HETATM   24  C   UNL     1       7.906  29.191  57.454  1.00  0.00     0.012 A 
HETATM   25  C   UNL     1       8.449  29.717  58.632  1.00  0.00     0.037 A 
HETATM   26  C   UNL     1       7.844  30.805  59.257  1.00  0.00     0.068 A 
HETATM   27  C   UNL     1       6.678  31.343  58.711  1.00  0.00     0.037 A 
HETATM   28  C   UNL     1       6.137  30.824  57.531  1.00  0.00     0.012 A 
BRANCH  26  29
HETATM   29  O   UNL     1       8.288  31.423  60.393  1.00  0.00    -0.356 OA
HETATM   30  C   UNL     1       9.133  30.658  61.245  1.00  0.00     0.210 C 
ENDBRANCH  26  29
ENDBRANCH   1  23
BRANCH   8  31
HETATM   31  C   UNL     1       4.435  29.625  52.985  1.00  0.00     0.409 C 
HETATM   32  F   UNL     1       4.508  30.939  53.294  1.00  0.00    -0.169 F 
HETATM   33  F   UNL     1       5.567  29.291  52.333  1.00  0.00    -0.169 F 
HETATM   34  F   UNL     1       3.422  29.500  52.088  1.00  0.00    -0.169 F 
ENDBRANCH   8  31
TORSDOF 6
ENDMDL
MODEL 7
REMARK VINA RESULT:      -9.0      6.456      9.976
REMARK  6 active torsions:
REMARK  status: ('A' for Active; 'I' for Inactive)
REMARK    1  A    between atoms: O_2  and  C_3 
REMARK    2  A    between atoms: C_6  and  C_7 
REMARK    3  A    between atoms: C_13  and  C_14 
REMARK       I    between atoms: C_14  and  N_15 
REMARK    4  A    between atoms: N_15  and  C_16 
REMARK    5  A    between atoms: C_18  and  O_19 
REMARK    6  A    between atoms: C_24  and  C_25 
ROOT
HETATM    1  C   UNL     1       6.522  32.060  60.683  1.00  0.00     0.118 C 
HETATM    2  N   UNL     1       6.420  31.063  59.605  1.00  0.00    -0.365 N 
HETATM    3  C   UNL     1       7.547  30.641  58.958  1.00  0.00     0.138 A 
HETATM    4  N   UNL     1       8.771  31.207  59.229  1.00  0.00    -0.240 N 
HETATM    5  N   UNL     1       9.783  30.706  58.510  1.00  0.00    -0.181 NA
HETATM    6  C   UNL     1       9.193  29.759  57.777  1.00  0.00     0.160 A 
HETATM    7  C   UNL     1       7.790  29.688  57.983  1.00  0.00     0.096 A 
HETATM    8  C   UNL     1       8.996  32.272  60.185  1.00  0.00     0.221 C 
HETATM    9  C   UNL     1       7.682  33.032  60.411  1.00  0.00     0.066 C 
HETATM   10  H   UNL     1       5.695  30.371  59.812  1.00  0.00     0.161 HD
ENDROOT
BRANCH   7  11
HETATM   11  C   UNL     1       6.885  28.800  57.268  1.00  0.00     0.261 C 
HETATM   12  N   UNL     1       7.517  27.948  56.383  1.00  0.00    -0.323 N 
HETATM   13  H   UNL     1       8.527  28.012  56.365  1.00  0.00     0.169 HD
HETATM   14  O   UNL     1       5.683  28.834  57.502  1.00  0.00    -0.267 OA
BRANCH  12  15
HETATM   15  C   UNL     1       6.929  26.961  55.566  1.00  0.00     0.037 A 
HETATM   16  C   UNL     1       5.811  27.176  54.757  1.00  0.00     0.066 A 
HETATM   17  C   UNL     1       5.287  26.132  53.994  1.00  0.00     0.067 A 
HETATM   18  C   UNL     1       5.868  24.870  54.010  1.00  0.00     0.036 A 
HETATM   19  C   UNL     1       6.987  24.648  54.808  1.00  0.00     0.005 A 
HETATM   20  C   UNL     1       7.512  25.685  55.586  1.00  0.00     0.029 A 
BRANCH  17  21
HETATM   21  O   UNL     1       4.182  26.392  53.237  1.00  0.00    -0.361 OA
HETATM   22  H   UNL     1       3.626  27.036  53.702  1.00  0.00     0.217 HD
ENDBRANCH  17  21
ENDBRANCH  12  15
ENDBRANCH   7  11
BRANCH   1  23
HETATM   23  C   UNL     1       5.225  32.838  60.814  1.00  0.00    -0.035 A 
HETATM   24  C   UNL     1       4.652  33.433  59.678  1.00  0.00     0.012 A 
HETATM   25  C   UNL     1       3.408  34.070  59.749  1.00  0.00     0.037 A 
HETATM   26  C   UNL     1       2.715  34.121  60.956  1.00  0.00     0.068 A 
HETATM   27  C   UNL     1       3.288  33.556  62.096  1.00  0.00     0.037 A 
HETATM   28  C   UNL     1       4.527  32.912  62.027  1.00  0.00     0.012 A 
BRANCH  26  29
HETATM   29  O   UNL     1       1.487  34.691  61.151  1.00  0.00    -0.356 OA
HETATM   30  C   UNL     1       0.871  35.279  60.010  1.00  0.00     0.210 C 
ENDBRANCH  26  29
ENDBRANCH   1  23
BRANCH   8  31
HETATM   31  C   UNL     1       9.566  31.708  61.468  1.00  0.00     0.409 C 
HETATM   32  F   UNL     1       9.385  30.374  61.585  1.00  0.00    -0.169 F 
HETATM   33  F   UNL     1      10.882  31.961  61.619  1.00  0.00    -0.169 F 
HETATM   34  F   UNL     1       8.940  32.274  62.534  1.00  0.00    -0.169 F 
ENDBRANCH   8  31
TORSDOF 6
ENDMDL
MODEL 8
REMARK VINA RESULT:      -8.9      3.176      5.668
REMARK  6 active torsions:
REMARK  status: ('A' for Active; 'I' for Inactive)
REMARK    1  A    between atoms: O_2  and  C_3 
REMARK    2  A    between atoms: C_6  and  C_7 
REMARK    3  A    between atoms: C_13  and  C_14 
REMARK       I    between atoms: C_14  and  N_15 
REMARK    4  A    between atoms: N_15  and  C_16 
REMARK    5  A    between atoms: C_18  and  O_19 
REMARK    6  A    between atoms: C_24  and  C_25 
ROOT
HETATM    1  C   UNL     1       6.830  26.716  56.265  1.00  0.00     0.118 C 
HETATM    2  N   UNL     1       6.318  26.882  54.895  1.00  0.00    -0.365 N 
HETATM    3  C   UNL     1       6.691  26.003  53.918  1.00  0.00     0.138 A 
HETATM    4  N   UNL     1       7.619  25.019  54.169  1.00  0.00    -0.240 N 
HETATM    5  N   UNL     1       7.898  24.241  53.116  1.00  0.00    -0.181 NA
HETATM    6  C   UNL     1       7.094  24.721  52.164  1.00  0.00     0.160 A 
HETATM    7  C   UNL     1       6.337  25.844  52.588  1.00  0.00     0.096 A 
HETATM    8  C   UNL     1       8.283  24.814  55.440  1.00  0.00     0.221 C 
HETATM    9  C   UNL     1       8.247  26.119  56.244  1.00  0.00     0.066 C 
HETATM   10  H   UNL     1       5.351  27.214  54.902  1.00  0.00     0.161 HD
ENDROOT
BRANCH   7  11
HETATM   11  C   UNL     1       5.434  26.611  51.742  1.00  0.00     0.261 C 
HETATM   12  N   UNL     1       5.615  26.396  50.389  1.00  0.00    -0.323 N 
HETATM   13  H   UNL     1       6.317  25.708  50.149  1.00  0.00     0.169 HD
HETATM   14  O   UNL     1       4.591  27.340  52.250  1.00  0.00    -0.267 OA
BRANCH  12  15
HETATM   15  C   UNL     1       4.890  26.963  49.321  1.00  0.00     0.037 A 
HETATM   16  C   UNL     1       4.121  26.227  48.417  1.00  0.00     0.066 A 
HETATM   17  C   UNL     1       3.451  26.873  47.379  1.00  0.00     0.067 A 
HETATM   18  C   UNL     1       3.520  28.253  47.229  1.00  0.00     0.036 A 
HETATM   19  C   UNL     1       4.278  28.996  48.130  1.00  0.00     0.005 A 
HETATM   20  C   UNL     1       4.964  28.355  49.166  1.00  0.00     0.029 A 
BRANCH  17  21
HETATM   21  O   UNL     1       2.729  26.104  46.513  1.00  0.00    -0.361 OA
HETATM   22  H   UNL     1       3.143  26.144  45.636  1.00  0.00     0.217 HD
ENDBRANCH  17  21
ENDBRANCH  12  15
ENDBRANCH   7  11
BRANCH   1  23
HETATM   23  C   UNL     1       6.848  28.050  56.992  1.00  0.00    -0.035 A 
HETATM   24  C   UNL     1       7.967  28.407  57.762  1.00  0.00     0.012 A 
HETATM   25  C   UNL     1       8.056  29.669  58.362  1.00  0.00     0.037 A 
HETATM   26  C   UNL     1       7.028  30.595  58.199  1.00  0.00     0.068 A 
HETATM   27  C   UNL     1       5.901  30.240  57.457  1.00  0.00     0.037 A 
HETATM   28  C   UNL     1       5.812  28.983  56.851  1.00  0.00     0.012 A 
BRANCH  26  29
HETATM   29  O   UNL     1       7.005  31.863  58.710  1.00  0.00    -0.356 OA
HETATM   30  C   UNL     1       7.400  32.007  60.070  1.00  0.00     0.210 C 
ENDBRANCH  26  29
ENDBRANCH   1  23
BRANCH   8  31
HETATM   31  C   UNL     1       7.642  23.660  56.182  1.00  0.00     0.409 C 
HETATM   32  F   UNL     1       6.323  23.532  55.919  1.00  0.00    -0.169 F 
HETATM   33  F   UNL     1       8.231  22.475  55.927  1.00  0.00    -0.169 F 
HETATM   34  F   UNL     1       7.747  23.863  57.522  1.00  0.00    -0.169 F 
ENDBRANCH   8  31
TORSDOF 6
ENDMDL
MODEL 9
REMARK VINA RESULT:      -8.8      5.931      9.716
REMARK  6 active torsions:
REMARK  status: ('A' for Active; 'I' for Inactive)
REMARK    1  A    between atoms: O_2  and  C_3 
REMARK    2  A    between atoms: C_6  and  C_7 
REMARK    3  A    between atoms: C_13  and  C_14 
REMARK       I    between atoms: C_14  and  N_15 
REMARK    4  A    between atoms: N_15  and  C_16 
REMARK    5  A    between atoms: C_18  and  O_19 
REMARK    6  A    between atoms: C_24  and  C_25 
ROOT
HETATM    1  C   UNL     1       5.857  32.127  58.918  1.00  0.00     0.118 C 
HETATM    2  N   UNL     1       6.160  30.755  58.480  1.00  0.00    -0.365 N 
HETATM    3  C   UNL     1       5.330  30.122  57.599  1.00  0.00     0.138 A 
HETATM    4  N   UNL     1       4.156  30.709  57.189  1.00  0.00    -0.240 N 
HETATM    5  N   UNL     1       3.435  29.969  56.336  1.00  0.00    -0.181 NA
HETATM    6  C   UNL     1       4.192  28.882  56.167  1.00  0.00     0.160 A 
HETATM    7  C   UNL     1       5.374  28.898  56.953  1.00  0.00     0.096 A 
HETATM    8  C   UNL     1       3.683  32.007  57.627  1.00  0.00     0.221 C 
HETATM    9  C   UNL     1       4.337  32.355  58.970  1.00  0.00     0.066 C 
HETATM   10  H   UNL     1       7.168  30.616  58.377  1.00  0.00     0.161 HD
ENDROOT
BRANCH   7  11
HETATM   11  C   UNL     1       6.345  27.816  57.023  1.00  0.00     0.261 C 
HETATM   12  N   UNL     1       6.103  26.786  56.133  1.00  0.00    -0.323 N 
HETATM   13  H   UNL     1       5.312  26.923  55.516  1.00  0.00     0.169 HD
HETATM   14  O   UNL     1       7.288  27.889  57.801  1.00  0.00    -0.267 OA
BRANCH  12  15
HETATM   15  C   UNL     1       6.867  25.618  55.938  1.00  0.00     0.037 A 
HETATM   16  C   UNL     1       7.232  24.739  56.960  1.00  0.00     0.066 A 
HETATM   17  C   UNL     1       8.005  23.614  56.674  1.00  0.00     0.067 A 
HETATM   18  C   UNL     1       8.414  23.336  55.375  1.00  0.00     0.036 A 
HETATM   19  C   UNL     1       8.049  24.202  54.348  1.00  0.00     0.005 A 
HETATM   20  C   UNL     1       7.284  25.339  54.628  1.00  0.00     0.029 A 
BRANCH  17  21
HETATM   21  O   UNL     1       8.351  22.800  57.713  1.00  0.00    -0.361 OA
HETATM   22  H   UNL     1       7.733  22.946  58.447  1.00  0.00     0.217 HD
ENDBRANCH  17  21
ENDBRANCH  12  15
ENDBRANCH   7  11
BRANCH   1  23
HETATM   23  C   UNL     1       6.460  32.395  60.287  1.00  0.00    -0.035 A 
HETATM   24  C   UNL     1       5.863  33.340  61.137  1.00  0.00     0.012 A 
HETATM   25  C   UNL     1       6.336  33.536  62.440  1.00  0.00     0.037 A 
HETATM   26  C   UNL     1       7.411  32.789  62.914  1.00  0.00     0.068 A 
HETATM   27  C   UNL     1       8.027  31.866  62.068  1.00  0.00     0.037 A 
HETATM   28  C   UNL     1       7.553  31.662  60.769  1.00  0.00     0.012 A 
BRANCH  26  29
HETATM   29  O   UNL     1       7.950  32.869  64.169  1.00  0.00    -0.356 OA
HETATM   30  C   UNL     1       7.223  33.632  65.126  1.00  0.00     0.210 C 
ENDBRANCH  26  29
ENDBRANCH   1  23
BRANCH   8  31
HETATM   31  C   UNL     1       3.957  33.048  56.563  1.00  0.00     0.409 C 
HETATM   32  F   UNL     1       4.219  34.270  57.076  1.00  0.00    -0.169 F 
HETATM   33  F   UNL     1       4.977  32.715  55.747  1.00  0.00    -0.169 F 
HETATM   34  F   UNL     1       2.862  33.192  55.772  1.00  0.00    -0.169 F 
ENDBRANCH   8  31
TORSDOF 6
ENDMDL
MODEL 10
REMARK VINA RESULT:      -8.4      9.693     13.106
REMARK  6 active torsions:
REMARK  status: ('A' for Active; 'I' for Inactive)
REMARK    1  A    between atoms: O_2  and  C_3 
REMARK    2  A    between atoms: C_6  and  C_7 
REMARK    3  A    between atoms: C_13  and  C_14 
REMARK       I    between atoms: C_14  and  N_15 
REMARK    4  A    between atoms: N_15  and  C_16 
REMARK    5  A    between atoms: C_18  and  O_19 
REMARK    6  A    between atoms: C_24  and  C_25 
ROOT
HETATM    1  C   UNL     1       4.603  34.413  63.149  1.00  0.00     0.118 C 
HETATM    2  N   UNL     1       5.398  33.586  62.227  1.00  0.00    -0.365 N 
HETATM    3  C   UNL     1       4.826  33.094  61.088  1.00  0.00     0.138 A 
HETATM    4  N   UNL     1       3.486  33.274  60.836  1.00  0.00    -0.240 N 
HETATM    5  N   UNL     1       3.060  32.726  59.691  1.00  0.00    -0.181 NA
HETATM    6  C   UNL     1       4.175  32.205  59.173  1.00  0.00     0.160 A 
HETATM    7  C   UNL     1       5.309  32.369  60.010  1.00  0.00     0.096 A 
HETATM    8  C   UNL     1       2.566  33.972  61.711  1.00  0.00     0.221 C 
HETATM    9  C   UNL     1       3.131  33.972  63.138  1.00  0.00     0.066 C 
HETATM   10  H   UNL     1       6.365  33.917  62.176  1.00  0.00     0.161 HD
ENDROOT
BRANCH   7  11
HETATM   11  C   UNL     1       6.636  31.841  59.733  1.00  0.00     0.261 C 
HETATM   12  N   UNL     1       6.676  30.950  58.677  1.00  0.00    -0.323 N 
HETATM   13  H   UNL     1       5.795  30.803  58.200  1.00  0.00     0.169 HD
HETATM   14  O   UNL     1       7.596  32.218  60.394  1.00  0.00    -0.267 OA
BRANCH  12  15
HETATM   15  C   UNL     1       7.803  30.289  58.148  1.00  0.00     0.037 A 
HETATM   16  C   UNL     1       9.068  30.869  58.030  1.00  0.00     0.066 A 
HETATM   17  C   UNL     1      10.123  30.142  57.477  1.00  0.00     0.067 A 
HETATM   18  C   UNL     1       9.945  28.833  57.048  1.00  0.00     0.036 A 
HETATM   19  C   UNL     1       8.689  28.244  57.168  1.00  0.00     0.005 A 
HETATM   20  C   UNL     1       7.623  28.969  57.710  1.00  0.00     0.029 A 
BRANCH  17  21
HETATM   21  O   UNL     1      11.333  30.763  57.367  1.00  0.00    -0.361 OA
HETATM   22  H   UNL     1      11.836  30.621  58.184  1.00  0.00     0.217 HD
ENDBRANCH  17  21
ENDBRANCH  12  15
ENDBRANCH   7  11
BRANCH   1  23
HETATM   23  C   UNL     1       5.154  34.316  64.561  1.00  0.00    -0.035 A 
HETATM   24  C   UNL     1       6.481  33.903  64.764  1.00  0.00     0.012 A 
HETATM   25  C   UNL     1       7.046  33.899  66.044  1.00  0.00     0.037 A 
HETATM   26  C   UNL     1       6.296  34.312  67.143  1.00  0.00     0.068 A 
HETATM   27  C   UNL     1       4.968  34.700  66.954  1.00  0.00     0.037 A 
HETATM   28  C   UNL     1       4.402  34.711  65.676  1.00  0.00     0.012 A 
BRANCH  26  29
HETATM   29  O   UNL     1       6.737  34.377  68.435  1.00  0.00    -0.356 OA
HETATM   30  C   UNL     1       5.763  34.169  69.451  1.00  0.00     0.210 C 
ENDBRANCH  26  29
ENDBRANCH   1  23
BRANCH   8  31
HETATM   31  C   UNL     1       2.311  35.370  61.191  1.00  0.00     0.409 C 
HETATM   32  F   UNL     1       2.338  36.309  62.163  1.00  0.00    -0.169 F 
HETATM   33  F   UNL     1       3.180  35.745  60.231  1.00  0.00    -0.169 F 
HETATM   34  F   UNL     1       1.072  35.432  60.635  1.00  0.00    -0.169 F 
ENDBRANCH   8  31
TORSDOF 6
ENDMDL
