MODEL 1
REMARK VINA RESULT:     -10.9      0.000      0.000
REMARK  2 active torsions:
REMARK  status: ('A' for Active; 'I' for Inactive)
REMARK    1  A    between atoms: C_2  and  C_3 
REMARK    2  A    between atoms: N_9  and  C_10 
ROOT
HETATM    1  C   UNL     1       8.232  31.730  60.561  1.00  0.00     0.047 A 
HETATM    2  N   UNL     1       7.644  30.535  60.189  1.00  0.00    -0.344 N 
HETATM    3  C   UNL     1       8.050  29.852  59.074  1.00  0.00     0.119 A 
HETATM    4  C   UNL     1       9.095  30.274  58.343  1.00  0.00     0.123 A 
HETATM    5  C   UNL     1       9.315  29.274  57.288  1.00  0.00     0.280 A 
HETATM    6  O   UNL     1      10.195  29.324  56.448  1.00  0.00    -0.265 OA
HETATM    7  N   UNL     1       8.322  28.302  57.489  1.00  0.00    -0.236 N 
HETATM    8  N   UNL     1       7.510  28.678  58.582  1.00  0.00    -0.179 NA
HETATM    9  C   UNL     1       9.812  31.498  58.708  1.00  0.00     0.193 A 
HETATM   10  O   UNL     1      10.784  31.928  58.101  1.00  0.00    -0.287 OA
HETATM   11  C   UNL     1       9.288  32.236  59.896  1.00  0.00     0.086 A 
HETATM   12  H   UNL     1       6.727  30.317  60.566  1.00  0.00     0.167 HD
HETATM   13  H   UNL     1       7.487  27.965  59.311  1.00  0.00     0.155 HD
ENDROOT
BRANCH   1  14
HETATM   14  C   UNL     1       7.679  32.430  61.736  1.00  0.00    -0.009 A 
HETATM   15  C   UNL     1       8.270  32.302  63.002  1.00  0.00     0.015 A 
HETATM   16  C   UNL     1       7.741  32.978  64.106  1.00  0.00     0.024 A 
HETATM   17  C   UNL     1       6.619  33.788  63.951  1.00  0.00     0.034 A 
HETATM   18  C   UNL     1       6.022  33.931  62.700  1.00  0.00     0.024 A 
HETATM   19 CL   UNL     1       5.968  34.619  65.308  1.00  0.00    -0.084 Cl
HETATM   20  C   UNL     1       6.551  33.254  61.597  1.00  0.00     0.015 A 
ENDBRANCH   1  14
BRANCH   7  21
HETATM   21  C   UNL     1       8.048  27.126  56.758  1.00  0.00     0.055 A 
HETATM   22  C   UNL     1       8.320  25.857  57.293  1.00  0.00     0.034 A 
HETATM   23  C   UNL     1       8.033  24.694  56.568  1.00  0.00     0.044 A 
HETATM   24  C   UNL     1       7.474  24.794  55.303  1.00  0.00     0.116 A 
HETATM   25  F   UNL     1       7.198  23.682  54.610  1.00  0.00    -0.206 F 
HETATM   26  C   UNL     1       7.202  26.035  54.745  1.00  0.00     0.044 A 
HETATM   27  C   UNL     1       7.489  27.196  55.470  1.00  0.00     0.034 A 
ENDBRANCH   7  21
TORSDOF 2
ENDMDL
MODEL 2
REMARK VINA RESULT:     -10.1      4.428      8.594
REMARK  2 active torsions:
REMARK  status: ('A' for Active; 'I' for Inactive)
REMARK    1  A    between atoms: C_2  and  C_3 
REMARK    2  A    between atoms: N_9  and  C_10 
ROOT
HETATM    1  C   UNL     1       8.403  28.724  56.816  1.00  0.00     0.047 A 
HETATM    2  N   UNL     1       7.581  29.166  57.836  1.00  0.00    -0.344 N 
HETATM    3  C   UNL     1       8.004  30.099  58.745  1.00  0.00     0.119 A 
HETATM    4  C   UNL     1       9.208  30.684  58.629  1.00  0.00     0.123 A 
HETATM    5  C   UNL     1       9.304  31.687  59.701  1.00  0.00     0.280 A 
HETATM    6  O   UNL     1      10.256  32.422  59.889  1.00  0.00    -0.265 OA
HETATM    7  N   UNL     1       8.090  31.596  60.401  1.00  0.00    -0.236 N 
HETATM    8  N   UNL     1       7.292  30.581  59.827  1.00  0.00    -0.179 NA
HETATM    9  C   UNL     1      10.114  30.316  57.538  1.00  0.00     0.193 A 
HETATM   10  O   UNL     1      11.213  30.824  57.361  1.00  0.00    -0.287 OA
HETATM   11  C   UNL     1       9.626  29.250  56.614  1.00  0.00     0.086 A 
HETATM   12  H   UNL     1       6.783  28.592  58.089  1.00  0.00     0.167 HD
HETATM   13  H   UNL     1       6.381  30.928  59.526  1.00  0.00     0.155 HD
ENDROOT
BRANCH   1  14
HETATM   14  C   UNL     1       7.885  27.664  55.929  1.00  0.00    -0.009 A 
HETATM   15  C   UNL     1       7.699  27.892  54.557  1.00  0.00     0.015 A 
HETATM   16  C   UNL     1       7.215  26.877  53.726  1.00  0.00     0.024 A 
HETATM   17  C   UNL     1       6.918  25.626  54.261  1.00  0.00     0.034 A 
HETATM   18  C   UNL     1       7.102  25.379  55.620  1.00  0.00     0.024 A 
HETATM   19 CL   UNL     1       6.324  24.377  53.240  1.00  0.00    -0.084 Cl
HETATM   20  C   UNL     1       7.585  26.396  56.450  1.00  0.00     0.015 A 
ENDBRANCH   1  14
BRANCH   7  21
HETATM   21  C   UNL     1       7.645  32.309  61.534  1.00  0.00     0.055 A 
HETATM   22  C   UNL     1       6.543  33.176  61.462  1.00  0.00     0.034 A 
HETATM   23  C   UNL     1       6.098  33.869  62.593  1.00  0.00     0.044 A 
HETATM   24  C   UNL     1       6.754  33.702  63.803  1.00  0.00     0.116 A 
HETATM   25  F   UNL     1       6.328  34.365  64.886  1.00  0.00    -0.206 F 
HETATM   26  C   UNL     1       7.851  32.859  63.904  1.00  0.00     0.044 A 
HETATM   27  C   UNL     1       8.295  32.165  62.773  1.00  0.00     0.034 A 
ENDBRANCH   7  21
TORSDOF 2
ENDMDL
MODEL 3
REMARK VINA RESULT:      -9.9      4.881      9.155
REMARK  2 active torsions:
REMARK  status: ('A' for Active; 'I' for Inactive)
REMARK    1  A    between atoms: C_2  and  C_3 
REMARK    2  A    between atoms: N_9  and  C_10 
ROOT
HETATM    1  C   UNL     1       7.086  26.533  55.365  1.00  0.00     0.047 A 
HETATM    2  N   UNL     1       7.632  26.863  56.592  1.00  0.00    -0.344 N 
HETATM    3  C   UNL     1       7.483  28.114  57.131  1.00  0.00     0.119 A 
HETATM    4  C   UNL     1       6.727  29.045  56.525  1.00  0.00     0.123 A 
HETATM    5  C   UNL     1       6.709  30.223  57.405  1.00  0.00     0.280 A 
HETATM    6  O   UNL     1       6.104  31.255  57.181  1.00  0.00    -0.265 OA
HETATM    7  N   UNL     1       7.506  29.873  58.507  1.00  0.00    -0.236 N 
HETATM    8  N   UNL     1       8.019  28.570  58.320  1.00  0.00    -0.179 NA
HETATM    9  C   UNL     1       6.062  28.753  55.253  1.00  0.00     0.193 A 
HETATM   10  O   UNL     1       5.342  29.544  54.660  1.00  0.00    -0.287 OA
HETATM   11  C   UNL     1       6.310  27.395  54.681  1.00  0.00     0.086 A 
HETATM   12  H   UNL     1       8.384  26.283  56.952  1.00  0.00     0.167 HD
HETATM   13  H   UNL     1       7.769  27.942  59.085  1.00  0.00     0.155 HD
ENDROOT
BRANCH   1  14
HETATM   14  C   UNL     1       7.361  25.185  54.833  1.00  0.00    -0.009 A 
HETATM   15  C   UNL     1       7.357  24.059  55.671  1.00  0.00     0.015 A 
HETATM   16  C   UNL     1       7.611  22.786  55.152  1.00  0.00     0.024 A 
HETATM   17  C   UNL     1       7.866  22.629  53.793  1.00  0.00     0.034 A 
HETATM   18  C   UNL     1       7.868  23.734  52.945  1.00  0.00     0.024 A 
HETATM   19 CL   UNL     1       8.178  21.063  53.155  1.00  0.00    -0.084 Cl
HETATM   20  C   UNL     1       7.616  25.008  53.465  1.00  0.00     0.015 A 
ENDBRANCH   1  14
BRANCH   7  21
HETATM   21  C   UNL     1       7.853  30.628  59.647  1.00  0.00     0.055 A 
HETATM   22  C   UNL     1       6.968  31.572  60.192  1.00  0.00     0.034 A 
HETATM   23  C   UNL     1       7.313  32.308  61.331  1.00  0.00     0.044 A 
HETATM   24  C   UNL     1       8.546  32.106  61.932  1.00  0.00     0.116 A 
HETATM   25  F   UNL     1       8.875  32.808  63.023  1.00  0.00    -0.206 F 
HETATM   26  C   UNL     1       9.445  31.185  61.413  1.00  0.00     0.044 A 
HETATM   27  C   UNL     1       9.099  30.450  60.274  1.00  0.00     0.034 A 
ENDBRANCH   7  21
TORSDOF 2
ENDMDL
MODEL 4
REMARK VINA RESULT:      -9.7      3.472      5.406
REMARK  2 active torsions:
REMARK  status: ('A' for Active; 'I' for Inactive)
REMARK    1  A    between atoms: C_2  and  C_3 
REMARK    2  A    between atoms: N_9  and  C_10 
ROOT
HETATM    1  C   UNL     1       6.561  28.709  56.951  1.00  0.00     0.047 A 
HETATM    2  N   UNL     1       7.315  27.552  56.869  1.00  0.00    -0.344 N 
HETATM    3  C   UNL     1       6.959  26.521  56.042  1.00  0.00     0.119 A 
HETATM    4  C   UNL     1       5.906  26.626  55.214  1.00  0.00     0.123 A 
HETATM    5  C   UNL     1       5.862  25.392  54.415  1.00  0.00     0.280 A 
HETATM    6  O   UNL     1       5.044  25.149  53.547  1.00  0.00    -0.265 OA
HETATM    7  N   UNL     1       6.941  24.618  54.872  1.00  0.00    -0.236 N 
HETATM    8  N   UNL     1       7.605  25.306  55.911  1.00  0.00    -0.179 NA
HETATM    9  C   UNL     1       5.093  27.844  55.194  1.00  0.00     0.193 A 
HETATM   10  O   UNL     1       4.137  28.017  54.451  1.00  0.00    -0.287 OA
HETATM   11  C   UNL     1       5.490  28.912  56.160  1.00  0.00     0.086 A 
HETATM   12  H   UNL     1       7.957  27.347  57.628  1.00  0.00     0.167 HD
HETATM   13  H   UNL     1       8.595  25.451  55.709  1.00  0.00     0.155 HD
ENDROOT
BRANCH   1  14
HETATM   14  C   UNL     1       6.984  29.736  57.922  1.00  0.00    -0.009 A 
HETATM   15  C   UNL     1       6.229  30.903  58.120  1.00  0.00     0.015 A 
HETATM   16  C   UNL     1       6.637  31.864  59.049  1.00  0.00     0.024 A 
HETATM   17  C   UNL     1       7.799  31.664  59.790  1.00  0.00     0.034 A 
HETATM   18  C   UNL     1       8.557  30.509  59.611  1.00  0.00     0.024 A 
HETATM   19 CL   UNL     1       8.300  32.846  60.933  1.00  0.00    -0.084 Cl
HETATM   20  C   UNL     1       8.150  29.549  58.680  1.00  0.00     0.015 A 
ENDBRANCH   1  14
BRANCH   7  21
HETATM   21  C   UNL     1       7.363  23.332  54.472  1.00  0.00     0.055 A 
HETATM   22  C   UNL     1       7.656  23.047  53.130  1.00  0.00     0.034 A 
HETATM   23  C   UNL     1       8.087  21.773  52.742  1.00  0.00     0.044 A 
HETATM   24  C   UNL     1       8.227  20.776  53.696  1.00  0.00     0.116 A 
HETATM   25  F   UNL     1       8.641  19.557  53.326  1.00  0.00    -0.206 F 
HETATM   26  C   UNL     1       7.938  21.026  55.030  1.00  0.00     0.044 A 
HETATM   27  C   UNL     1       7.507  22.299  55.416  1.00  0.00     0.034 A 
ENDBRANCH   7  21
TORSDOF 2
ENDMDL
MODEL 5
REMARK VINA RESULT:      -9.5      8.551     10.696
REMARK  2 active torsions:
REMARK  status: ('A' for Active; 'I' for Inactive)
REMARK    1  A    between atoms: C_2  and  C_3 
REMARK    2  A    between atoms: N_9  and  C_10 
ROOT
HETATM    1  C   UNL     1       7.025  25.010  53.384  1.00  0.00     0.047 A 
HETATM    2  N   UNL     1       6.164  24.751  52.333  1.00  0.00    -0.344 N 
HETATM    3  C   UNL     1       5.536  25.761  51.655  1.00  0.00     0.119 A 
HETATM    4  C   UNL     1       5.797  27.049  51.931  1.00  0.00     0.123 A 
HETATM    5  C   UNL     1       5.032  27.859  50.970  1.00  0.00     0.280 A 
HETATM    6  O   UNL     1       5.043  29.075  50.914  1.00  0.00    -0.265 OA
HETATM    7  N   UNL     1       4.340  26.931  50.175  1.00  0.00    -0.236 N 
HETATM    8  N   UNL     1       4.625  25.623  50.624  1.00  0.00    -0.179 NA
HETATM    9  C   UNL     1       6.746  27.408  52.988  1.00  0.00     0.193 A 
HETATM   10  O   UNL     1       7.047  28.558  53.275  1.00  0.00    -0.287 OA
HETATM   11  C   UNL     1       7.354  26.267  53.736  1.00  0.00     0.086 A 
HETATM   12  H   UNL     1       5.771  23.818  52.257  1.00  0.00     0.167 HD
HETATM   13  H   UNL     1       5.013  25.035  49.885  1.00  0.00     0.155 HD
ENDROOT
BRANCH   1  14
HETATM   14  C   UNL     1       7.598  23.855  54.101  1.00  0.00    -0.009 A 
HETATM   15  C   UNL     1       7.792  23.886  55.491  1.00  0.00     0.015 A 
HETATM   16  C   UNL     1       8.329  22.782  56.159  1.00  0.00     0.024 A 
HETATM   17  C   UNL     1       8.673  21.638  55.444  1.00  0.00     0.034 A 
HETATM   18  C   UNL     1       8.482  21.586  54.064  1.00  0.00     0.024 A 
HETATM   19 CL   UNL     1       9.333  20.279  56.265  1.00  0.00    -0.084 Cl
HETATM   20  C   UNL     1       7.946  22.692  53.397  1.00  0.00     0.015 A 
ENDBRANCH   1  14
BRANCH   7  21
HETATM   21  C   UNL     1       3.441  27.148  49.109  1.00  0.00     0.055 A 
HETATM   22  C   UNL     1       3.408  26.290  47.999  1.00  0.00     0.034 A 
HETATM   23  C   UNL     1       2.504  26.503  46.952  1.00  0.00     0.044 A 
HETATM   24  C   UNL     1       1.629  27.576  47.008  1.00  0.00     0.116 A 
HETATM   25  F   UNL     1       0.763  27.779  46.007  1.00  0.00    -0.206 F 
HETATM   26  C   UNL     1       1.642  28.446  48.089  1.00  0.00     0.044 A 
HETATM   27  C   UNL     1       2.546  28.232  49.136  1.00  0.00     0.034 A 
ENDBRANCH   7  21
TORSDOF 2
ENDMDL
MODEL 6
REMARK VINA RESULT:      -9.3      8.968     11.291
REMARK  2 active torsions:
REMARK  status: ('A' for Active; 'I' for Inactive)
REMARK    1  A    between atoms: C_2  and  C_3 
REMARK    2  A    between atoms: N_9  and  C_10 
ROOT
HETATM    1  C   UNL     1       4.057  27.088  49.909  1.00  0.00     0.047 A 
HETATM    2  N   UNL     1       4.390  25.856  50.442  1.00  0.00    -0.344 N 
HETATM    3  C   UNL     1       5.358  25.730  51.403  1.00  0.00     0.119 A 
HETATM    4  C   UNL     1       5.963  26.809  51.925  1.00  0.00     0.123 A 
HETATM    5  C   UNL     1       6.869  26.326  52.979  1.00  0.00     0.280 A 
HETATM    6  O   UNL     1       7.569  27.035  53.680  1.00  0.00    -0.265 OA
HETATM    7  N   UNL     1       6.722  24.930  52.981  1.00  0.00    -0.236 N 
HETATM    8  N   UNL     1       5.806  24.553  51.974  1.00  0.00    -0.179 NA
HETATM    9  C   UNL     1       5.620  28.154  51.459  1.00  0.00     0.193 A 
HETATM   10  O   UNL     1       6.114  29.180  51.906  1.00  0.00    -0.287 OA
HETATM   11  C   UNL     1       4.603  28.230  50.367  1.00  0.00     0.086 A 
HETATM   12  H   UNL     1       4.134  25.025  49.920  1.00  0.00     0.167 HD
HETATM   13  H   UNL     1       5.020  24.018  52.345  1.00  0.00     0.155 HD
ENDROOT
BRANCH   1  14
HETATM   14  C   UNL     1       3.053  27.117  48.827  1.00  0.00    -0.009 A 
HETATM   15  C   UNL     1       3.051  26.147  47.812  1.00  0.00     0.015 A 
HETATM   16  C   UNL     1       2.089  26.182  46.798  1.00  0.00     0.024 A 
HETATM   17  C   UNL     1       1.122  27.184  46.793  1.00  0.00     0.034 A 
HETATM   18  C   UNL     1       1.105  28.152  47.796  1.00  0.00     0.024 A 
HETATM   19 CL   UNL     1      -0.061  27.227  45.546  1.00  0.00    -0.084 Cl
HETATM   20  C   UNL     1       2.069  28.117  48.809  1.00  0.00     0.015 A 
ENDBRANCH   1  14
BRANCH   7  21
HETATM   21  C   UNL     1       7.364  23.955  53.774  1.00  0.00     0.055 A 
HETATM   22  C   UNL     1       8.231  23.009  53.204  1.00  0.00     0.034 A 
HETATM   23  C   UNL     1       8.875  22.054  53.998  1.00  0.00     0.044 A 
HETATM   24  C   UNL     1       8.655  22.037  55.367  1.00  0.00     0.116 A 
HETATM   25  F   UNL     1       9.272  21.124  56.127  1.00  0.00    -0.206 F 
HETATM   26  C   UNL     1       7.798  22.954  55.958  1.00  0.00     0.044 A 
HETATM   27  C   UNL     1       7.154  23.909  55.163  1.00  0.00     0.034 A 
ENDBRANCH   7  21
TORSDOF 2
ENDMDL
MODEL 7
REMARK VINA RESULT:      -9.0      4.190      5.817
REMARK  2 active torsions:
REMARK  status: ('A' for Active; 'I' for Inactive)
REMARK    1  A    between atoms: C_2  and  C_3 
REMARK    2  A    between atoms: N_9  and  C_10 
ROOT
HETATM    1  C   UNL     1       5.264  28.719  56.186  1.00  0.00     0.047 A 
HETATM    2  N   UNL     1       6.095  27.639  56.416  1.00  0.00    -0.344 N 
HETATM    3  C   UNL     1       6.086  26.540  55.599  1.00  0.00     0.119 A 
HETATM    4  C   UNL     1       5.327  26.505  54.491  1.00  0.00     0.123 A 
HETATM    5  C   UNL     1       5.621  25.236  53.807  1.00  0.00     0.280 A 
HETATM    6  O   UNL     1       5.125  24.876  52.756  1.00  0.00    -0.265 OA
HETATM    7  N   UNL     1       6.570  24.592  54.618  1.00  0.00    -0.236 N 
HETATM    8  N   UNL     1       6.835  25.388  55.754  1.00  0.00    -0.179 NA
HETATM    9  C   UNL     1       4.465  27.636  54.142  1.00  0.00     0.193 A 
HETATM   10  O   UNL     1       3.766  27.681  53.139  1.00  0.00    -0.287 OA
HETATM   11  C   UNL     1       4.468  28.782  55.101  1.00  0.00     0.086 A 
HETATM   12  H   UNL     1       6.493  27.531  57.344  1.00  0.00     0.167 HD
HETATM   13  H   UNL     1       7.825  25.619  55.844  1.00  0.00     0.155 HD
ENDROOT
BRANCH   1  14
HETATM   14  C   UNL     1       5.292  29.826  57.161  1.00  0.00    -0.009 A 
HETATM   15  C   UNL     1       6.507  30.335  57.646  1.00  0.00     0.015 A 
HETATM   16  C   UNL     1       6.521  31.390  58.564  1.00  0.00     0.024 A 
HETATM   17  C   UNL     1       5.320  31.945  59.000  1.00  0.00     0.034 A 
HETATM   18  C   UNL     1       4.105  31.457  58.525  1.00  0.00     0.024 A 
HETATM   19 CL   UNL     1       5.336  33.242  60.128  1.00  0.00    -0.084 Cl
HETATM   20  C   UNL     1       4.092  30.401  57.608  1.00  0.00     0.015 A 
ENDBRANCH   1  14
BRANCH   7  21
HETATM   21  C   UNL     1       7.192  23.336  54.457  1.00  0.00     0.055 A 
HETATM   22  C   UNL     1       7.424  22.492  55.554  1.00  0.00     0.034 A 
HETATM   23  C   UNL     1       8.028  21.241  55.385  1.00  0.00     0.044 A 
HETATM   24  C   UNL     1       8.407  20.827  54.117  1.00  0.00     0.116 A 
HETATM   25  F   UNL     1       8.984  19.630  53.954  1.00  0.00    -0.206 F 
HETATM   26  C   UNL     1       8.197  21.642  53.014  1.00  0.00     0.044 A 
HETATM   27  C   UNL     1       7.593  22.892  53.184  1.00  0.00     0.034 A 
ENDBRANCH   7  21
TORSDOF 2
ENDMDL
MODEL 8
REMARK VINA RESULT:      -8.9      8.200     10.152
REMARK  2 active torsions:
REMARK  status: ('A' for Active; 'I' for Inactive)
REMARK    1  A    between atoms: C_2  and  C_3 
REMARK    2  A    between atoms: N_9  and  C_10 
ROOT
HETATM    1  C   UNL     1       5.460  27.884  51.070  1.00  0.00     0.047 A 
HETATM    2  N   UNL     1       5.700  26.522  51.054  1.00  0.00    -0.344 N 
HETATM    3  C   UNL     1       6.279  25.884  52.119  1.00  0.00     0.119 A 
HETATM    4  C   UNL     1       6.560  26.544  53.255  1.00  0.00     0.123 A 
HETATM    5  C   UNL     1       7.081  25.554  54.210  1.00  0.00     0.280 A 
HETATM    6  O   UNL     1       7.423  25.796  55.353  1.00  0.00    -0.265 OA
HETATM    7  N   UNL     1       7.075  24.333  53.515  1.00  0.00    -0.236 N 
HETATM    8  N   UNL     1       6.607  24.544  52.199  1.00  0.00    -0.179 NA
HETATM    9  C   UNL     1       6.276  27.976  53.374  1.00  0.00     0.193 A 
HETATM   10  O   UNL     1       6.485  28.632  54.385  1.00  0.00    -0.287 OA
HETATM   11  C   UNL     1       5.703  28.633  52.162  1.00  0.00     0.086 A 
HETATM   12  H   UNL     1       5.722  26.052  50.155  1.00  0.00     0.167 HD
HETATM   13  H   UNL     1       5.795  23.966  51.979  1.00  0.00     0.155 HD
ENDROOT
BRANCH   1  14
HETATM   14  C   UNL     1       4.899  28.495  49.850  1.00  0.00    -0.009 A 
HETATM   15  C   UNL     1       3.841  27.888  49.154  1.00  0.00     0.015 A 
HETATM   16  C   UNL     1       3.313  28.482  48.004  1.00  0.00     0.024 A 
HETATM   17  C   UNL     1       3.837  29.688  47.543  1.00  0.00     0.034 A 
HETATM   18  C   UNL     1       4.883  30.307  48.224  1.00  0.00     0.024 A 
HETATM   19 CL   UNL     1       3.188  30.419  46.129  1.00  0.00    -0.084 Cl
HETATM   20  C   UNL     1       5.411  29.712  49.374  1.00  0.00     0.015 A 
ENDBRANCH   1  14
BRANCH   7  21
HETATM   21  C   UNL     1       7.488  23.052  53.938  1.00  0.00     0.055 A 
HETATM   22  C   UNL     1       7.443  22.681  55.291  1.00  0.00     0.034 A 
HETATM   23  C   UNL     1       7.841  21.404  55.701  1.00  0.00     0.044 A 
HETATM   24  C   UNL     1       8.289  20.490  54.761  1.00  0.00     0.116 A 
HETATM   25  F   UNL     1       8.669  19.267  55.152  1.00  0.00    -0.206 F 
HETATM   26  C   UNL     1       8.353  20.828  53.417  1.00  0.00     0.044 A 
HETATM   27  C   UNL     1       7.954  22.106  53.007  1.00  0.00     0.034 A 
ENDBRANCH   7  21
TORSDOF 2
ENDMDL
MODEL 9
REMARK VINA RESULT:      -8.8      1.838      2.324
REMARK  2 active torsions:
REMARK  status: ('A' for Active; 'I' for Inactive)
REMARK    1  A    between atoms: C_2  and  C_3 
REMARK    2  A    between atoms: N_9  and  C_10 
ROOT
HETATM    1  C   UNL     1       7.620  32.124  61.481  1.00  0.00     0.047 A 
HETATM    2  N   UNL     1       6.819  31.419  60.602  1.00  0.00    -0.344 N 
HETATM    3  C   UNL     1       7.290  30.988  59.390  1.00  0.00     0.119 A 
HETATM    4  C   UNL     1       8.576  31.162  59.044  1.00  0.00     0.123 A 
HETATM    5  C   UNL     1       8.762  30.510  57.738  1.00  0.00     0.280 A 
HETATM    6  O   UNL     1       9.814  30.455  57.127  1.00  0.00    -0.265 OA
HETATM    7  N   UNL     1       7.502  29.991  57.403  1.00  0.00    -0.236 N 
HETATM    8  N   UNL     1       6.574  30.319  58.415  1.00  0.00    -0.179 NA
HETATM    9  C   UNL     1       9.506  31.843  59.948  1.00  0.00     0.193 A 
HETATM   10  O   UNL     1      10.693  32.015  59.707  1.00  0.00    -0.287 OA
HETATM   11  C   UNL     1       8.924  32.346  61.228  1.00  0.00     0.086 A 
HETATM   12  H   UNL     1       5.813  31.477  60.721  1.00  0.00     0.167 HD
HETATM   13  H   UNL     1       6.124  29.493  58.811  1.00  0.00     0.155 HD
ENDROOT
BRANCH   1  14
HETATM   14  C   UNL     1       7.004  32.609  62.731  1.00  0.00    -0.009 A 
HETATM   15  C   UNL     1       5.609  32.688  62.871  1.00  0.00     0.015 A 
HETATM   16  C   UNL     1       5.039  33.142  64.064  1.00  0.00     0.024 A 
HETATM   17  C   UNL     1       5.858  33.515  65.126  1.00  0.00     0.034 A 
HETATM   18  C   UNL     1       7.244  33.438  65.008  1.00  0.00     0.024 A 
HETATM   19 CL   UNL     1       5.156  34.073  66.593  1.00  0.00    -0.084 Cl
HETATM   20  C   UNL     1       7.814  32.985  63.814  1.00  0.00     0.015 A 
ENDBRANCH   1  14
BRANCH   7  21
HETATM   21  C   UNL     1       7.093  29.285  56.251  1.00  0.00     0.055 A 
HETATM   22  C   UNL     1       7.931  28.337  55.644  1.00  0.00     0.034 A 
HETATM   23  C   UNL     1       7.514  27.630  54.510  1.00  0.00     0.044 A 
HETATM   24  C   UNL     1       6.257  27.869  53.975  1.00  0.00     0.116 A 
HETATM   25  F   UNL     1       5.857  27.192  52.892  1.00  0.00    -0.206 F 
HETATM   26  C   UNL     1       5.410  28.806  54.549  1.00  0.00     0.044 A 
HETATM   27  C   UNL     1       5.827  29.511  55.683  1.00  0.00     0.034 A 
ENDBRANCH   7  21
TORSDOF 2
ENDMDL
MODEL 10
REMARK VINA RESULT:      -8.8      5.507      9.768
REMARK  2 active torsions:
REMARK  status: ('A' for Active; 'I' for Inactive)
REMARK    1  A    between atoms: C_2  and  C_3 
REMARK    2  A    between atoms: N_9  and  C_10 
ROOT
HETATM    1  C   UNL     1       6.383  25.337  54.508  1.00  0.00     0.047 A 
HETATM    2  N   UNL     1       6.675  26.051  55.656  1.00  0.00    -0.344 N 
HETATM    3  C   UNL     1       6.184  27.313  55.858  1.00  0.00     0.119 A 
HETATM    4  C   UNL     1       5.332  27.875  54.986  1.00  0.00     0.123 A 
HETATM    5  C   UNL     1       4.938  29.177  55.546  1.00  0.00     0.280 A 
HETATM    6  O   UNL     1       4.157  29.955  55.029  1.00  0.00    -0.265 OA
HETATM    7  N   UNL     1       5.637  29.283  56.759  1.00  0.00    -0.236 N 
HETATM    8  N   UNL     1       6.443  28.137  56.939  1.00  0.00    -0.179 NA
HETATM    9  C   UNL     1       4.923  27.158  53.776  1.00  0.00     0.193 A 
HETATM   10  O   UNL     1       4.134  27.600  52.951  1.00  0.00    -0.287 OA
HETATM   11  C   UNL     1       5.536  25.811  53.575  1.00  0.00     0.086 A 
HETATM   12  H   UNL     1       7.479  25.765  56.205  1.00  0.00     0.167 HD
HETATM   13  H   UNL     1       6.236  27.650  57.812  1.00  0.00     0.155 HD
ENDROOT
BRANCH   1  14
HETATM   14  C   UNL     1       7.015  24.013  54.346  1.00  0.00    -0.009 A 
HETATM   15  C   UNL     1       7.236  23.173  55.449  1.00  0.00     0.015 A 
HETATM   16  C   UNL     1       7.828  21.918  55.280  1.00  0.00     0.024 A 
HETATM   17  C   UNL     1       8.200  21.493  54.007  1.00  0.00     0.034 A 
HETATM   18  C   UNL     1       7.984  22.310  52.900  1.00  0.00     0.024 A 
HETATM   19 CL   UNL     1       8.928  19.949  53.799  1.00  0.00    -0.084 Cl
HETATM   20  C   UNL     1       7.393  23.566  53.070  1.00  0.00     0.015 A 
ENDBRANCH   1  14
BRANCH   7  21
HETATM   21  C   UNL     1       5.654  30.331  57.704  1.00  0.00     0.055 A 
HETATM   22  C   UNL     1       6.861  30.823  58.223  1.00  0.00     0.034 A 
HETATM   23  C   UNL     1       6.871  31.873  59.149  1.00  0.00     0.044 A 
HETATM   24  C   UNL     1       5.673  32.435  59.563  1.00  0.00     0.116 A 
HETATM   25  F   UNL     1       5.682  33.440  60.448  1.00  0.00    -0.206 F 
HETATM   26  C   UNL     1       4.463  31.965  59.073  1.00  0.00     0.044 A 
HETATM   27  C   UNL     1       4.454  30.916  58.147  1.00  0.00     0.034 A 
ENDBRANCH   7  21
TORSDOF 2
ENDMDL
