MODEL 1
REMARK VINA RESULT:      -9.3      0.000      0.000
REMARK  9 active torsions:
REMARK  status: ('A' for Active; 'I' for Inactive)
REMARK    1  A    between atoms: C_2  and  O_3 
REMARK    2  A    between atoms: O_3  and  C_4 
REMARK    3  A    between atoms: C_5  and  N_6 
REMARK       I    between atoms: N_6  and  C_7 
REMARK    4  A    between atoms: C_7  and  C_8 
REMARK    5  A    between atoms: C_11  and  N_12 
REMARK    6  A    between atoms: C_17  and  N_18 
REMARK       I    between atoms: N_18  and  C_19 
REMARK    7  A    between atoms: C_19  and  C_20 
REMARK    8  A    between atoms: C_23  and  N_24 
REMARK    9  A    between atoms: C_29  and  C_30 
REMARK       I    between atoms: C_30  and  N_31 
ROOT
HETATM    1  C   UNL     1       6.373  24.909  54.938  1.00  0.00     0.111 A 
HETATM    2  C   UNL     1       5.500  26.010  54.831  1.00  0.00     0.071 A 
HETATM    3  C   UNL     1       4.916  26.323  53.595  1.00  0.00     0.062 A 
HETATM    4  C   UNL     1       5.180  25.527  52.473  1.00  0.00     0.038 A 
HETATM    5  C   UNL     1       6.042  24.428  52.598  1.00  0.00     0.049 A 
HETATM    6  C   UNL     1       6.614  24.090  53.830  1.00  0.00     0.069 A 
ENDROOT
BRANCH   2   7
HETATM    7  N   UNL     1       5.192  26.691  56.036  1.00  0.00    -0.320 N 
HETATM    8  C   UNL     1       5.432  28.013  56.324  1.00  0.00     0.256 C 
HETATM    9  O   UNL     1       4.492  28.773  56.548  1.00  0.00    -0.267 OA
HETATM   10  H   UNL     1       4.314  26.364  56.430  1.00  0.00     0.169 HD
BRANCH   8  11
HETATM   11  C   UNL     1       6.832  28.446  56.618  1.00  0.00     0.032 A 
HETATM   12  C   UNL     1       7.685  28.700  55.538  1.00  0.00     0.019 A 
HETATM   13  C   UNL     1       8.939  29.285  55.743  1.00  0.00     0.024 A 
HETATM   14  C   UNL     1       9.384  29.586  57.032  1.00  0.00     0.005 A 
HETATM   15  C   UNL     1       8.518  29.362  58.106  1.00  0.00     0.024 A 
HETATM   16  C   UNL     1       7.259  28.781  57.908  1.00  0.00     0.019 A 
BRANCH  14  17
HETATM   17  N   UNL     1      10.556  30.327  57.216  1.00  0.00    -0.303 NA
HETATM   18  H   UNL     1      11.393  29.862  56.880  1.00  0.00     0.124 HD
HETATM   19  H   UNL     1      10.670  30.694  58.156  1.00  0.00     0.124 HD
ENDBRANCH  14  17
ENDBRANCH   8  11
ENDBRANCH   2   7
BRANCH   1  20
HETATM   20  O   UNL     1       6.917  24.649  56.177  1.00  0.00    -0.348 OA
BRANCH  20  21
HETATM   21  C   UNL     1       8.236  25.208  56.307  1.00  0.00     0.171 C 
HETATM   22  C   UNL     1       9.011  24.489  57.397  1.00  0.00     0.034 C 
ENDBRANCH  20  21
ENDBRANCH   1  20
BRANCH   6  23
HETATM   23  C   UNL     1       7.398  22.829  53.877  1.00  0.00     0.252 C 
HETATM   24  N   UNL     1       7.381  22.118  55.042  1.00  0.00    -0.366 N 
HETATM   25  H   UNL     1       6.854  22.418  55.854  1.00  0.00     0.159 HD
HETATM   26  H   UNL     1       7.865  21.231  55.072  1.00  0.00     0.159 HD
HETATM   27  O   UNL     1       8.000  22.417  52.893  1.00  0.00    -0.268 OA
ENDBRANCH   6  23
BRANCH   4  28
HETATM   28  N   UNL     1       4.574  25.690  51.208  1.00  0.00    -0.323 N 
HETATM   29  C   UNL     1       4.762  26.718  50.302  1.00  0.00     0.256 C 
HETATM   30  O   UNL     1       5.633  27.576  50.363  1.00  0.00    -0.267 OA
HETATM   31  H   UNL     1       3.902  24.977  50.957  1.00  0.00     0.169 HD
BRANCH  29  32
HETATM   32  C   UNL     1       3.800  26.743  49.151  1.00  0.00     0.032 A 
HETATM   33  C   UNL     1       3.689  25.687  48.235  1.00  0.00     0.019 A 
HETATM   34  C   UNL     1       2.760  25.754  47.189  1.00  0.00     0.024 A 
HETATM   35  C   UNL     1       1.943  26.874  47.025  1.00  0.00     0.005 A 
HETATM   36  C   UNL     1       1.996  27.883  47.990  1.00  0.00     0.024 A 
HETATM   37  C   UNL     1       2.928  27.830  49.033  1.00  0.00     0.019 A 
BRANCH  35  38
HETATM   38  N   UNL     1       0.928  26.868  46.063  1.00  0.00    -0.303 NA
HETATM   39  H   UNL     1       1.082  26.216  45.300  1.00  0.00     0.124 HD
HETATM   40  H   UNL     1       0.666  27.792  45.732  1.00  0.00     0.124 HD
ENDBRANCH  35  38
ENDBRANCH  29  32
ENDBRANCH   4  28
TORSDOF 9
ENDMDL
MODEL 2
REMARK VINA RESULT:      -9.2      1.920      5.233
REMARK  9 active torsions:
REMARK  status: ('A' for Active; 'I' for Inactive)
REMARK    1  A    between atoms: C_2  and  O_3 
REMARK    2  A    between atoms: O_3  and  C_4 
REMARK    3  A    between atoms: C_5  and  N_6 
REMARK       I    between atoms: N_6  and  C_7 
REMARK    4  A    between atoms: C_7  and  C_8 
REMARK    5  A    between atoms: C_11  and  N_12 
REMARK    6  A    between atoms: C_17  and  N_18 
REMARK       I    between atoms: N_18  and  C_19 
REMARK    7  A    between atoms: C_19  and  C_20 
REMARK    8  A    between atoms: C_23  and  N_24 
REMARK    9  A    between atoms: C_29  and  C_30 
REMARK       I    between atoms: C_30  and  N_31 
ROOT
HETATM    1  C   UNL     1       5.667  27.169  56.175  1.00  0.00     0.111 A 
HETATM    2  C   UNL     1       5.929  25.882  55.662  1.00  0.00     0.071 A 
HETATM    3  C   UNL     1       5.546  25.560  54.353  1.00  0.00     0.062 A 
HETATM    4  C   UNL     1       4.926  26.523  53.546  1.00  0.00     0.038 A 
HETATM    5  C   UNL     1       4.682  27.801  54.067  1.00  0.00     0.049 A 
HETATM    6  C   UNL     1       5.080  28.145  55.364  1.00  0.00     0.069 A 
ENDROOT
BRANCH   2   7
HETATM    7  N   UNL     1       6.665  25.007  56.501  1.00  0.00    -0.320 N 
HETATM    8  C   UNL     1       7.836  24.357  56.192  1.00  0.00     0.256 C 
HETATM    9  O   UNL     1       8.859  24.598  56.830  1.00  0.00    -0.267 OA
HETATM   10  H   UNL     1       6.640  25.317  57.469  1.00  0.00     0.169 HD
BRANCH   8  11
HETATM   11  C   UNL     1       7.788  23.182  55.270  1.00  0.00     0.032 A 
HETATM   12  C   UNL     1       8.046  23.399  53.911  1.00  0.00     0.019 A 
HETATM   13  C   UNL     1       8.200  22.320  53.034  1.00  0.00     0.024 A 
HETATM   14  C   UNL     1       8.056  21.007  53.486  1.00  0.00     0.005 A 
HETATM   15  C   UNL     1       7.830  20.791  54.849  1.00  0.00     0.024 A 
HETATM   16  C   UNL     1       7.679  21.867  55.733  1.00  0.00     0.019 A 
BRANCH  14  17
HETATM   17  N   UNL     1       8.384  19.935  52.649  1.00  0.00    -0.303 NA
HETATM   18  H   UNL     1       9.366  19.680  52.675  1.00  0.00     0.124 HD
HETATM   19  H   UNL     1       8.035  20.030  51.701  1.00  0.00     0.124 HD
ENDBRANCH  14  17
ENDBRANCH   8  11
ENDBRANCH   2   7
BRANCH   1  20
HETATM   20  O   UNL     1       6.066  27.429  57.468  1.00  0.00    -0.348 OA
BRANCH  20  21
HETATM   21  C   UNL     1       7.445  27.834  57.529  1.00  0.00     0.171 C 
HETATM   22  C   UNL     1       7.568  29.198  58.185  1.00  0.00     0.034 C 
ENDBRANCH  20  21
ENDBRANCH   1  20
BRANCH   6  23
HETATM   23  C   UNL     1       4.896  29.564  55.764  1.00  0.00     0.252 C 
HETATM   24  N   UNL     1       5.757  30.485  55.238  1.00  0.00    -0.366 N 
HETATM   25  H   UNL     1       6.496  30.230  54.594  1.00  0.00     0.159 HD
HETATM   26  H   UNL     1       5.611  31.461  55.457  1.00  0.00     0.159 HD
HETATM   27  O   UNL     1       3.977  29.905  56.499  1.00  0.00    -0.268 OA
ENDBRANCH   6  23
BRANCH   4  28
HETATM   28  N   UNL     1       4.587  26.339  52.187  1.00  0.00    -0.323 N 
HETATM   29  C   UNL     1       4.953  27.121  51.108  1.00  0.00     0.256 C 
HETATM   30  O   UNL     1       5.793  28.011  51.119  1.00  0.00    -0.267 OA
HETATM   31  H   UNL     1       3.980  25.554  51.998  1.00  0.00     0.169 HD
BRANCH  29  32
HETATM   32  C   UNL     1       4.242  26.814  49.822  1.00  0.00     0.032 A 
HETATM   33  C   UNL     1       3.860  27.810  48.912  1.00  0.00     0.019 A 
HETATM   34  C   UNL     1       3.215  27.466  47.718  1.00  0.00     0.024 A 
HETATM   35  C   UNL     1       2.922  26.135  47.417  1.00  0.00     0.005 A 
HETATM   36  C   UNL     1       3.381  25.140  48.286  1.00  0.00     0.024 A 
HETATM   37  C   UNL     1       4.017  25.475  49.487  1.00  0.00     0.019 A 
BRANCH  35  38
HETATM   38  N   UNL     1       2.405  25.794  46.164  1.00  0.00    -0.303 NA
HETATM   39  H   UNL     1       2.800  26.325  45.393  1.00  0.00     0.124 HD
HETATM   40  H   UNL     1       1.391  25.763  46.129  1.00  0.00     0.124 HD
ENDBRANCH  35  38
ENDBRANCH  29  32
ENDBRANCH   4  28
TORSDOF 9
ENDMDL
MODEL 3
REMARK VINA RESULT:      -9.1      3.586      6.478
REMARK  9 active torsions:
REMARK  status: ('A' for Active; 'I' for Inactive)
REMARK    1  A    between atoms: C_2  and  O_3 
REMARK    2  A    between atoms: O_3  and  C_4 
REMARK    3  A    between atoms: C_5  and  N_6 
REMARK       I    between atoms: N_6  and  C_7 
REMARK    4  A    between atoms: C_7  and  C_8 
REMARK    5  A    between atoms: C_11  and  N_12 
REMARK    6  A    between atoms: C_17  and  N_18 
REMARK       I    between atoms: N_18  and  C_19 
REMARK    7  A    between atoms: C_19  and  C_20 
REMARK    8  A    between atoms: C_23  and  N_24 
REMARK    9  A    between atoms: C_29  and  C_30 
REMARK       I    between atoms: C_30  and  N_31 
ROOT
HETATM    1  C   UNL     1       4.692  29.373  55.626  1.00  0.00     0.111 A 
HETATM    2  C   UNL     1       5.355  28.717  56.683  1.00  0.00     0.071 A 
HETATM    3  C   UNL     1       5.760  27.383  56.535  1.00  0.00     0.062 A 
HETATM    4  C   UNL     1       5.528  26.711  55.328  1.00  0.00     0.038 A 
HETATM    5  C   UNL     1       4.878  27.379  54.282  1.00  0.00     0.049 A 
HETATM    6  C   UNL     1       4.489  28.718  54.407  1.00  0.00     0.069 A 
ENDROOT
BRANCH   2   7
HETATM    7  N   UNL     1       5.656  29.505  57.823  1.00  0.00    -0.320 N 
HETATM    8  C   UNL     1       6.518  30.573  57.886  1.00  0.00     0.256 C 
HETATM    9  O   UNL     1       6.090  31.690  58.171  1.00  0.00    -0.267 OA
HETATM   10  H   UNL     1       4.834  29.638  58.407  1.00  0.00     0.169 HD
BRANCH   8  11
HETATM   11  C   UNL     1       7.989  30.317  57.867  1.00  0.00     0.032 A 
HETATM   12  C   UNL     1       8.485  29.387  56.945  1.00  0.00     0.019 A 
HETATM   13  C   UNL     1       9.863  29.243  56.751  1.00  0.00     0.024 A 
HETATM   14  C   UNL     1      10.773  29.989  57.503  1.00  0.00     0.005 A 
HETATM   15  C   UNL     1      10.275  30.939  58.400  1.00  0.00     0.024 A 
HETATM   16  C   UNL     1       8.897  31.093  58.596  1.00  0.00     0.019 A 
BRANCH  14  17
HETATM   17  N   UNL     1      12.134  29.969  57.183  1.00  0.00    -0.303 NA
HETATM   18  H   UNL     1      12.569  30.887  57.183  1.00  0.00     0.124 HD
HETATM   19  H   UNL     1      12.354  29.440  56.345  1.00  0.00     0.124 HD
ENDBRANCH  14  17
ENDBRANCH   8  11
ENDBRANCH   2   7
BRANCH   1  20
HETATM   20  O   UNL     1       4.317  30.684  55.828  1.00  0.00    -0.348 OA
BRANCH  20  21
HETATM   21  C   UNL     1       2.928  30.791  56.187  1.00  0.00     0.171 C 
HETATM   22  C   UNL     1       2.277  31.945  55.445  1.00  0.00     0.034 C 
ENDBRANCH  20  21
ENDBRANCH   1  20
BRANCH   6  23
HETATM   23  C   UNL     1       3.933  29.367  53.192  1.00  0.00     0.252 C 
HETATM   24  N   UNL     1       4.545  30.503  52.747  1.00  0.00    -0.366 N 
HETATM   25  H   UNL     1       5.353  30.901  53.210  1.00  0.00     0.159 HD
HETATM   26  H   UNL     1       4.213  30.925  51.890  1.00  0.00     0.159 HD
HETATM   27  O   UNL     1       2.991  28.876  52.581  1.00  0.00    -0.268 OA
ENDBRANCH   6  23
BRANCH   4  28
HETATM   28  N   UNL     1       5.977  25.404  55.035  1.00  0.00    -0.323 N 
HETATM   29  C   UNL     1       6.990  24.695  55.653  1.00  0.00     0.256 C 
HETATM   30  O   UNL     1       7.555  25.010  56.693  1.00  0.00    -0.267 OA
HETATM   31  H   UNL     1       5.513  24.953  54.258  1.00  0.00     0.169 HD
BRANCH  29  32
HETATM   32  C   UNL     1       7.398  23.425  54.965  1.00  0.00     0.032 A 
HETATM   33  C   UNL     1       7.571  22.215  55.651  1.00  0.00     0.019 A 
HETATM   34  C   UNL     1       7.934  21.054  54.956  1.00  0.00     0.024 A 
HETATM   35  C   UNL     1       8.149  21.080  53.578  1.00  0.00     0.005 A 
HETATM   36  C   UNL     1       7.891  22.267  52.887  1.00  0.00     0.024 A 
HETATM   37  C   UNL     1       7.538  23.435  53.573  1.00  0.00     0.019 A 
BRANCH  35  38
HETATM   38  N   UNL     1       8.375  19.891  52.879  1.00  0.00    -0.303 NA
HETATM   39  H   UNL     1       9.245  19.875  52.355  1.00  0.00     0.124 HD
HETATM   40  H   UNL     1       7.586  19.582  52.320  1.00  0.00     0.124 HD
ENDBRANCH  35  38
ENDBRANCH  29  32
ENDBRANCH   4  28
TORSDOF 9
ENDMDL
MODEL 4
REMARK VINA RESULT:      -9.0      2.446      6.704
REMARK  9 active torsions:
REMARK  status: ('A' for Active; 'I' for Inactive)
REMARK    1  A    between atoms: C_2  and  O_3 
REMARK    2  A    between atoms: O_3  and  C_4 
REMARK    3  A    between atoms: C_5  and  N_6 
REMARK       I    between atoms: N_6  and  C_7 
REMARK    4  A    between atoms: C_7  and  C_8 
REMARK    5  A    between atoms: C_11  and  N_12 
REMARK    6  A    between atoms: C_17  and  N_18 
REMARK       I    between atoms: N_18  and  C_19 
REMARK    7  A    between atoms: C_19  and  C_20 
REMARK    8  A    between atoms: C_23  and  N_24 
REMARK    9  A    between atoms: C_29  and  C_30 
REMARK       I    between atoms: C_30  and  N_31 
ROOT
HETATM    1  C   UNL     1       4.113  28.062  51.243  1.00  0.00     0.111 A 
HETATM    2  C   UNL     1       4.038  27.938  52.645  1.00  0.00     0.071 A 
HETATM    3  C   UNL     1       4.526  26.783  53.272  1.00  0.00     0.062 A 
HETATM    4  C   UNL     1       5.112  25.765  52.509  1.00  0.00     0.038 A 
HETATM    5  C   UNL     1       5.189  25.907  51.117  1.00  0.00     0.049 A 
HETATM    6  C   UNL     1       4.727  27.065  50.479  1.00  0.00     0.069 A 
ENDROOT
BRANCH   2   7
HETATM    7  N   UNL     1       3.541  29.062  53.352  1.00  0.00    -0.320 N 
HETATM    8  C   UNL     1       4.280  30.053  53.953  1.00  0.00     0.256 C 
HETATM    9  O   UNL     1       4.184  31.214  53.561  1.00  0.00    -0.267 OA
HETATM   10  H   UNL     1       2.692  29.421  52.923  1.00  0.00     0.169 HD
BRANCH   8  11
HETATM   11  C   UNL     1       4.983  29.752  55.237  1.00  0.00     0.032 A 
HETATM   12  C   UNL     1       6.284  29.240  55.172  1.00  0.00     0.019 A 
HETATM   13  C   UNL     1       7.059  29.115  56.330  1.00  0.00     0.024 A 
HETATM   14  C   UNL     1       6.536  29.457  57.579  1.00  0.00     0.005 A 
HETATM   15  C   UNL     1       5.248  29.998  57.638  1.00  0.00     0.024 A 
HETATM   16  C   UNL     1       4.468  30.130  56.482  1.00  0.00     0.019 A 
BRANCH  14  17
HETATM   17  N   UNL     1       7.368  29.498  58.703  1.00  0.00    -0.303 NA
HETATM   18  H   UNL     1       7.368  30.393  59.181  1.00  0.00     0.124 HD
HETATM   19  H   UNL     1       8.307  29.151  58.534  1.00  0.00     0.124 HD
ENDBRANCH  14  17
ENDBRANCH   8  11
ENDBRANCH   2   7
BRANCH   1  20
HETATM   20  O   UNL     1       3.618  29.219  50.681  1.00  0.00    -0.348 OA
BRANCH  20  21
HETATM   21  C   UNL     1       2.228  29.089  50.333  1.00  0.00     0.171 C 
HETATM   22  C   UNL     1       2.036  29.281  48.840  1.00  0.00     0.034 C 
ENDBRANCH  20  21
ENDBRANCH   1  20
BRANCH   6  23
HETATM   23  C   UNL     1       4.985  27.169  49.019  1.00  0.00     0.252 C 
HETATM   24  N   UNL     1       5.754  28.210  48.586  1.00  0.00    -0.366 N 
HETATM   25  H   UNL     1       6.150  28.893  49.221  1.00  0.00     0.159 HD
HETATM   26  H   UNL     1       5.984  28.263  47.603  1.00  0.00     0.159 HD
HETATM   27  O   UNL     1       4.563  26.325  48.237  1.00  0.00    -0.268 OA
ENDBRANCH   6  23
BRANCH   4  28
HETATM   28  N   UNL     1       5.721  24.607  53.042  1.00  0.00    -0.323 N 
HETATM   29  C   UNL     1       6.910  24.518  53.742  1.00  0.00     0.256 C 
HETATM   30  O   UNL     1       7.553  25.461  54.184  1.00  0.00    -0.267 OA
HETATM   31  H   UNL     1       5.233  23.741  52.858  1.00  0.00     0.169 HD
BRANCH  29  32
HETATM   32  C   UNL     1       7.419  23.125  53.968  1.00  0.00     0.032 A 
HETATM   33  C   UNL     1       7.864  22.303  52.923  1.00  0.00     0.019 A 
HETATM   34  C   UNL     1       8.347  21.017  53.193  1.00  0.00     0.024 A 
HETATM   35  C   UNL     1       8.379  20.520  54.497  1.00  0.00     0.005 A 
HETATM   36  C   UNL     1       8.016  21.373  55.542  1.00  0.00     0.024 A 
HETATM   37  C   UNL     1       7.522  22.657  55.282  1.00  0.00     0.019 A 
BRANCH  35  38
HETATM   38  N   UNL     1       8.990  19.292  54.767  1.00  0.00    -0.303 NA
HETATM   39  H   UNL     1       8.728  18.548  54.127  1.00  0.00     0.124 HD
HETATM   40  H   UNL     1       8.929  19.003  55.738  1.00  0.00     0.124 HD
ENDBRANCH  35  38
ENDBRANCH  29  32
ENDBRANCH   4  28
TORSDOF 9
ENDMDL
MODEL 5
REMARK VINA RESULT:      -8.6      4.726      6.979
REMARK  9 active torsions:
REMARK  status: ('A' for Active; 'I' for Inactive)
REMARK    1  A    between atoms: C_2  and  O_3 
REMARK    2  A    between atoms: O_3  and  C_4 
REMARK    3  A    between atoms: C_5  and  N_6 
REMARK       I    between atoms: N_6  and  C_7 
REMARK    4  A    between atoms: C_7  and  C_8 
REMARK    5  A    between atoms: C_11  and  N_12 
REMARK    6  A    between atoms: C_17  and  N_18 
REMARK       I    between atoms: N_18  and  C_19 
REMARK    7  A    between atoms: C_19  and  C_20 
REMARK    8  A    between atoms: C_23  and  N_24 
REMARK    9  A    between atoms: C_29  and  C_30 
REMARK       I    between atoms: C_30  and  N_31 
ROOT
HETATM    1  C   UNL     1       7.106  29.740  57.056  1.00  0.00     0.111 A 
HETATM    2  C   UNL     1       5.873  29.057  57.050  1.00  0.00     0.071 A 
HETATM    3  C   UNL     1       5.779  27.788  56.460  1.00  0.00     0.062 A 
HETATM    4  C   UNL     1       6.915  27.191  55.898  1.00  0.00     0.038 A 
HETATM    5  C   UNL     1       8.136  27.878  55.921  1.00  0.00     0.049 A 
HETATM    6  C   UNL     1       8.250  29.135  56.527  1.00  0.00     0.069 A 
ENDROOT
BRANCH   2   7
HETATM    7  N   UNL     1       4.804  29.678  57.744  1.00  0.00    -0.320 N 
HETATM    8  C   UNL     1       3.785  30.422  57.198  1.00  0.00     0.256 C 
HETATM    9  O   UNL     1       2.622  30.038  57.300  1.00  0.00    -0.267 OA
HETATM   10  H   UNL     1       4.489  29.107  58.524  1.00  0.00     0.169 HD
BRANCH   8  11
HETATM   11  C   UNL     1       4.077  31.808  56.721  1.00  0.00     0.032 A 
HETATM   12  C   UNL     1       4.109  32.839  57.668  1.00  0.00     0.019 A 
HETATM   13  C   UNL     1       4.558  34.116  57.315  1.00  0.00     0.024 A 
HETATM   14  C   UNL     1       4.942  34.400  56.003  1.00  0.00     0.005 A 
HETATM   15  C   UNL     1       4.941  33.362  55.067  1.00  0.00     0.024 A 
HETATM   16  C   UNL     1       4.496  32.080  55.414  1.00  0.00     0.019 A 
BRANCH  14  17
HETATM   17  N   UNL     1       5.553  35.621  55.699  1.00  0.00    -0.303 NA
HETATM   18  H   UNL     1       4.920  36.414  55.720  1.00  0.00     0.124 HD
HETATM   19  H   UNL     1       6.117  35.602  54.855  1.00  0.00     0.124 HD
ENDBRANCH  14  17
ENDBRANCH   8  11
ENDBRANCH   2   7
BRANCH   1  20
HETATM   20  O   UNL     1       7.139  30.983  57.650  1.00  0.00    -0.348 OA
BRANCH  20  21
HETATM   21  C   UNL     1       7.354  30.889  59.070  1.00  0.00     0.171 C 
HETATM   22  C   UNL     1       6.988  32.197  59.748  1.00  0.00     0.034 C 
ENDBRANCH  20  21
ENDBRANCH   1  20
BRANCH   6  23
HETATM   23  C   UNL     1       9.617  29.710  56.616  1.00  0.00     0.252 C 
HETATM   24  N   UNL     1      10.171  29.835  57.857  1.00  0.00    -0.366 N 
HETATM   25  H   UNL     1       9.686  29.546  58.699  1.00  0.00     0.159 HD
HETATM   26  H   UNL     1      11.121  30.173  57.929  1.00  0.00     0.159 HD
HETATM   27  O   UNL     1      10.245  30.017  55.609  1.00  0.00    -0.268 OA
ENDBRANCH   6  23
BRANCH   4  28
HETATM   28  N   UNL     1       6.957  25.883  55.366  1.00  0.00    -0.323 N 
HETATM   29  C   UNL     1       7.368  24.723  55.995  1.00  0.00     0.256 C 
HETATM   30  O   UNL     1       7.593  24.598  57.192  1.00  0.00    -0.267 OA
HETATM   31  H   UNL     1       6.678  25.803  54.398  1.00  0.00     0.169 HD
BRANCH  29  32
HETATM   32  C   UNL     1       7.530  23.529  55.100  1.00  0.00     0.032 A 
HETATM   33  C   UNL     1       7.618  23.637  53.705  1.00  0.00     0.019 A 
HETATM   34  C   UNL     1       7.787  22.491  52.917  1.00  0.00     0.024 A 
HETATM   35  C   UNL     1       7.854  21.224  53.498  1.00  0.00     0.005 A 
HETATM   36  C   UNL     1       7.853  21.130  54.892  1.00  0.00     0.024 A 
HETATM   37  C   UNL     1       7.674  22.268  55.688  1.00  0.00     0.019 A 
BRANCH  35  38
HETATM   38  N   UNL     1       8.161  20.107  52.715  1.00  0.00    -0.303 NA
HETATM   39  H   UNL     1       9.120  20.085  52.381  1.00  0.00     0.124 HD
HETATM   40  H   UNL     1       7.492  19.924  51.973  1.00  0.00     0.124 HD
ENDBRANCH  35  38
ENDBRANCH  29  32
ENDBRANCH   4  28
TORSDOF 9
ENDMDL
MODEL 6
REMARK VINA RESULT:      -8.5      3.240      7.744
REMARK  9 active torsions:
REMARK  status: ('A' for Active; 'I' for Inactive)
REMARK    1  A    between atoms: C_2  and  O_3 
REMARK    2  A    between atoms: O_3  and  C_4 
REMARK    3  A    between atoms: C_5  and  N_6 
REMARK       I    between atoms: N_6  and  C_7 
REMARK    4  A    between atoms: C_7  and  C_8 
REMARK    5  A    between atoms: C_11  and  N_12 
REMARK    6  A    between atoms: C_17  and  N_18 
REMARK       I    between atoms: N_18  and  C_19 
REMARK    7  A    between atoms: C_19  and  C_20 
REMARK    8  A    between atoms: C_23  and  N_24 
REMARK    9  A    between atoms: C_29  and  C_30 
REMARK       I    between atoms: C_30  and  N_31 
ROOT
HETATM    1  C   UNL     1       3.977  28.996  53.765  1.00  0.00     0.111 A 
HETATM    2  C   UNL     1       3.960  28.071  52.702  1.00  0.00     0.071 A 
HETATM    3  C   UNL     1       4.689  26.878  52.800  1.00  0.00     0.062 A 
HETATM    4  C   UNL     1       5.414  26.593  53.965  1.00  0.00     0.038 A 
HETATM    5  C   UNL     1       5.413  27.518  55.018  1.00  0.00     0.049 A 
HETATM    6  C   UNL     1       4.671  28.702  54.944  1.00  0.00     0.069 A 
ENDROOT
BRANCH   2   7
HETATM    7  N   UNL     1       3.107  28.380  51.612  1.00  0.00    -0.320 N 
HETATM    8  C   UNL     1       3.477  28.577  50.303  1.00  0.00     0.256 C 
HETATM    9  O   UNL     1       3.060  27.821  49.427  1.00  0.00    -0.267 OA
HETATM   10  H   UNL     1       2.216  27.897  51.692  1.00  0.00     0.169 HD
BRANCH   8  11
HETATM   11  C   UNL     1       4.161  29.851  49.928  1.00  0.00     0.032 A 
HETATM   12  C   UNL     1       3.365  30.958  49.608  1.00  0.00     0.019 A 
HETATM   13  C   UNL     1       3.940  32.222  49.433  1.00  0.00     0.024 A 
HETATM   14  C   UNL     1       5.322  32.397  49.531  1.00  0.00     0.005 A 
HETATM   15  C   UNL     1       6.111  31.298  49.882  1.00  0.00     0.024 A 
HETATM   16  C   UNL     1       5.542  30.031  50.063  1.00  0.00     0.019 A 
BRANCH  14  17
HETATM   17  N   UNL     1       5.869  33.684  49.530  1.00  0.00    -0.303 NA
HETATM   18  H   UNL     1       5.551  34.265  50.300  1.00  0.00     0.124 HD
HETATM   19  H   UNL     1       5.804  34.161  48.636  1.00  0.00     0.124 HD
ENDBRANCH  14  17
ENDBRANCH   8  11
ENDBRANCH   2   7
BRANCH   1  20
HETATM   20  O   UNL     1       3.242  30.152  53.613  1.00  0.00    -0.348 OA
BRANCH  20  21
HETATM   21  C   UNL     1       4.085  31.290  53.359  1.00  0.00     0.171 C 
HETATM   22  C   UNL     1       3.243  32.510  53.033  1.00  0.00     0.034 C 
ENDBRANCH  20  21
ENDBRANCH   1  20
BRANCH   6  23
HETATM   23  C   UNL     1       4.631  29.542  56.169  1.00  0.00     0.252 C 
HETATM   24  N   UNL     1       3.433  29.664  56.812  1.00  0.00    -0.366 N 
HETATM   25  H   UNL     1       2.593  29.202  56.486  1.00  0.00     0.159 HD
HETATM   26  H   UNL     1       3.402  30.186  57.677  1.00  0.00     0.159 HD
HETATM   27  O   UNL     1       5.645  30.067  56.615  1.00  0.00    -0.268 OA
ENDBRANCH   6  23
BRANCH   4  28
HETATM   28  N   UNL     1       6.102  25.384  54.211  1.00  0.00    -0.323 N 
HETATM   29  C   UNL     1       7.243  24.915  53.589  1.00  0.00     0.256 C 
HETATM   30  O   UNL     1       7.967  25.558  52.838  1.00  0.00    -0.267 OA
HETATM   31  H   UNL     1       5.682  24.785  54.909  1.00  0.00     0.169 HD
BRANCH  29  32
HETATM   32  C   UNL     1       7.601  23.490  53.894  1.00  0.00     0.032 A 
HETATM   33  C   UNL     1       7.987  22.578  52.901  1.00  0.00     0.019 A 
HETATM   34  C   UNL     1       8.330  21.264  53.244  1.00  0.00     0.024 A 
HETATM   35  C   UNL     1       8.276  20.830  54.569  1.00  0.00     0.005 A 
HETATM   36  C   UNL     1       7.975  21.765  55.563  1.00  0.00     0.024 A 
HETATM   37  C   UNL     1       7.622  23.078  55.230  1.00  0.00     0.019 A 
BRANCH  35  38
HETATM   38  N   UNL     1       8.751  19.561  54.914  1.00  0.00    -0.303 NA
HETATM   39  H   UNL     1       9.763  19.473  54.881  1.00  0.00     0.124 HD
HETATM   40  H   UNL     1       8.284  18.799  54.433  1.00  0.00     0.124 HD
ENDBRANCH  35  38
ENDBRANCH  29  32
ENDBRANCH   4  28
TORSDOF 9
ENDMDL
MODEL 7
REMARK VINA RESULT:      -8.5      2.713      7.764
REMARK  9 active torsions:
REMARK  status: ('A' for Active; 'I' for Inactive)
REMARK    1  A    between atoms: C_2  and  O_3 
REMARK    2  A    between atoms: O_3  and  C_4 
REMARK    3  A    between atoms: C_5  and  N_6 
REMARK       I    between atoms: N_6  and  C_7 
REMARK    4  A    between atoms: C_7  and  C_8 
REMARK    5  A    between atoms: C_11  and  N_12 
REMARK    6  A    between atoms: C_17  and  N_18 
REMARK       I    between atoms: N_18  and  C_19 
REMARK    7  A    between atoms: C_19  and  C_20 
REMARK    8  A    between atoms: C_23  and  N_24 
REMARK    9  A    between atoms: C_29  and  C_30 
REMARK       I    between atoms: C_30  and  N_31 
ROOT
HETATM    1  C   UNL     1       5.366  29.493  55.059  1.00  0.00     0.111 A 
HETATM    2  C   UNL     1       5.280  28.907  53.780  1.00  0.00     0.071 A 
HETATM    3  C   UNL     1       5.868  27.657  53.542  1.00  0.00     0.062 A 
HETATM    4  C   UNL     1       6.519  26.979  54.580  1.00  0.00     0.038 A 
HETATM    5  C   UNL     1       6.588  27.570  55.850  1.00  0.00     0.049 A 
HETATM    6  C   UNL     1       5.985  28.806  56.108  1.00  0.00     0.069 A 
ENDROOT
BRANCH   2   7
HETATM    7  N   UNL     1       4.502  29.602  52.819  1.00  0.00    -0.320 N 
HETATM    8  C   UNL     1       3.763  29.053  51.800  1.00  0.00     0.256 C 
HETATM    9  O   UNL     1       2.543  29.203  51.776  1.00  0.00    -0.267 OA
HETATM   10  H   UNL     1       4.048  30.414  53.230  1.00  0.00     0.169 HD
BRANCH   8  11
HETATM   11  C   UNL     1       4.473  28.510  50.603  1.00  0.00     0.032 A 
HETATM   12  C   UNL     1       4.221  27.184  50.231  1.00  0.00     0.019 A 
HETATM   13  C   UNL     1       4.708  26.679  49.020  1.00  0.00     0.024 A 
HETATM   14  C   UNL     1       5.492  27.473  48.180  1.00  0.00     0.005 A 
HETATM   15  C   UNL     1       5.715  28.805  48.537  1.00  0.00     0.024 A 
HETATM   16  C   UNL     1       5.228  29.319  49.746  1.00  0.00     0.019 A 
BRANCH  14  17
HETATM   17  N   UNL     1       5.825  27.023  46.897  1.00  0.00    -0.303 NA
HETATM   18  H   UNL     1       5.420  26.122  46.660  1.00  0.00     0.124 HD
HETATM   19  H   UNL     1       6.817  27.066  46.689  1.00  0.00     0.124 HD
ENDBRANCH  14  17
ENDBRANCH   8  11
ENDBRANCH   2   7
BRANCH   1  20
HETATM   20  O   UNL     1       4.769  30.723  55.235  1.00  0.00    -0.348 OA
BRANCH  20  21
HETATM   21  C   UNL     1       3.347  30.603  55.416  1.00  0.00     0.171 C 
HETATM   22  C   UNL     1       2.649  31.881  54.985  1.00  0.00     0.034 C 
ENDBRANCH  20  21
ENDBRANCH   1  20
BRANCH   6  23
HETATM   23  C   UNL     1       6.000  29.273  57.519  1.00  0.00     0.252 C 
HETATM   24  N   UNL     1       4.796  29.503  58.121  1.00  0.00    -0.366 N 
HETATM   25  H   UNL     1       3.914  29.361  57.642  1.00  0.00     0.159 HD
HETATM   26  H   UNL     1       4.788  29.768  59.096  1.00  0.00     0.159 HD
HETATM   27  O   UNL     1       7.050  29.400  58.137  1.00  0.00    -0.268 OA
ENDBRANCH   6  23
BRANCH   4  28
HETATM   28  N   UNL     1       7.060  25.678  54.480  1.00  0.00    -0.323 N 
HETATM   29  C   UNL     1       6.493  24.566  53.887  1.00  0.00     0.256 C 
HETATM   30  O   UNL     1       5.494  24.562  53.179  1.00  0.00    -0.267 OA
HETATM   31  H   UNL     1       7.960  25.551  54.924  1.00  0.00     0.169 HD
BRANCH  29  32
HETATM   32  C   UNL     1       7.199  23.268  54.149  1.00  0.00     0.032 A 
HETATM   33  C   UNL     1       7.365  22.745  55.439  1.00  0.00     0.019 A 
HETATM   34  C   UNL     1       8.016  21.519  55.626  1.00  0.00     0.024 A 
HETATM   35  C   UNL     1       8.528  20.805  54.542  1.00  0.00     0.005 A 
HETATM   36  C   UNL     1       8.284  21.288  53.253  1.00  0.00     0.024 A 
HETATM   37  C   UNL     1       7.644  22.517  53.057  1.00  0.00     0.019 A 
BRANCH  35  38
HETATM   38  N   UNL     1       9.051  19.522  54.728  1.00  0.00    -0.303 NA
HETATM   39  H   UNL     1      10.065  19.488  54.766  1.00  0.00     0.124 HD
HETATM   40  H   UNL     1       8.667  18.822  54.100  1.00  0.00     0.124 HD
ENDBRANCH  35  38
ENDBRANCH  29  32
ENDBRANCH   4  28
TORSDOF 9
ENDMDL
MODEL 8
REMARK VINA RESULT:      -8.5     10.867     16.534
REMARK  9 active torsions:
REMARK  status: ('A' for Active; 'I' for Inactive)
REMARK    1  A    between atoms: C_2  and  O_3 
REMARK    2  A    between atoms: O_3  and  C_4 
REMARK    3  A    between atoms: C_5  and  N_6 
REMARK       I    between atoms: N_6  and  C_7 
REMARK    4  A    between atoms: C_7  and  C_8 
REMARK    5  A    between atoms: C_11  and  N_12 
REMARK    6  A    between atoms: C_17  and  N_18 
REMARK       I    between atoms: N_18  and  C_19 
REMARK    7  A    between atoms: C_19  and  C_20 
REMARK    8  A    between atoms: C_23  and  N_24 
REMARK    9  A    between atoms: C_29  and  C_30 
REMARK       I    between atoms: C_30  and  N_31 
ROOT
HETATM    1  C   UNL     1       6.092  33.899  62.700  1.00  0.00     0.111 A 
HETATM    2  C   UNL     1       5.450  34.908  63.445  1.00  0.00     0.071 A 
HETATM    3  C   UNL     1       5.660  34.998  64.829  1.00  0.00     0.062 A 
HETATM    4  C   UNL     1       6.527  34.101  65.465  1.00  0.00     0.038 A 
HETATM    5  C   UNL     1       7.167  33.109  64.710  1.00  0.00     0.049 A 
HETATM    6  C   UNL     1       6.985  33.023  63.324  1.00  0.00     0.069 A 
ENDROOT
BRANCH   2   7
HETATM    7  N   UNL     1       4.685  35.847  62.707  1.00  0.00    -0.320 N 
HETATM    8  C   UNL     1       5.162  36.830  61.874  1.00  0.00     0.256 C 
HETATM    9  O   UNL     1       4.883  36.808  60.677  1.00  0.00    -0.267 OA
HETATM   10  H   UNL     1       3.826  35.429  62.358  1.00  0.00     0.169 HD
BRANCH   8  11
HETATM   11  C   UNL     1       5.788  38.046  62.475  1.00  0.00     0.032 A 
HETATM   12  C   UNL     1       5.497  38.346  63.812  1.00  0.00     0.019 A 
HETATM   13  C   UNL     1       6.194  39.357  64.482  1.00  0.00     0.024 A 
HETATM   14  C   UNL     1       7.161  40.117  63.821  1.00  0.00     0.005 A 
HETATM   15  C   UNL     1       7.472  39.796  62.496  1.00  0.00     0.024 A 
HETATM   16  C   UNL     1       6.781  38.782  61.820  1.00  0.00     0.019 A 
BRANCH  14  17
HETATM   17  N   UNL     1       7.973  41.001  64.539  1.00  0.00    -0.303 NA
HETATM   18  H   UNL     1       7.503  41.446  65.322  1.00  0.00     0.124 HD
HETATM   19  H   UNL     1       8.471  41.669  63.959  1.00  0.00     0.124 HD
ENDBRANCH  14  17
ENDBRANCH   8  11
ENDBRANCH   2   7
BRANCH   1  20
HETATM   20  O   UNL     1       5.849  33.860  61.344  1.00  0.00    -0.348 OA
BRANCH  20  21
HETATM   21  C   UNL     1       4.770  32.964  61.023  1.00  0.00     0.171 C 
HETATM   22  C   UNL     1       3.905  33.551  59.922  1.00  0.00     0.034 C 
ENDBRANCH  20  21
ENDBRANCH   1  20
BRANCH   6  23
HETATM   23  C   UNL     1       7.818  32.024  62.604  1.00  0.00     0.252 C 
HETATM   24  N   UNL     1       7.219  30.857  62.227  1.00  0.00    -0.366 N 
HETATM   25  H   UNL     1       6.243  30.662  62.417  1.00  0.00     0.159 HD
HETATM   26  H   UNL     1       7.756  30.192  61.689  1.00  0.00     0.159 HD
HETATM   27  O   UNL     1       8.985  32.258  62.315  1.00  0.00    -0.268 OA
ENDBRANCH   6  23
BRANCH   4  28
HETATM   28  N   UNL     1       6.886  34.158  66.830  1.00  0.00    -0.323 N 
HETATM   29  C   UNL     1       6.049  34.263  67.926  1.00  0.00     0.256 C 
HETATM   30  O   UNL     1       4.832  34.137  67.912  1.00  0.00    -0.267 OA
HETATM   31  H   UNL     1       7.880  34.150  67.014  1.00  0.00     0.169 HD
BRANCH  29  32
HETATM   32  C   UNL     1       6.733  34.546  69.231  1.00  0.00     0.032 A 
HETATM   33  C   UNL     1       8.126  34.649  69.349  1.00  0.00     0.019 A 
HETATM   34  C   UNL     1       8.711  34.934  70.589  1.00  0.00     0.024 A 
HETATM   35  C   UNL     1       7.927  35.100  71.732  1.00  0.00     0.005 A 
HETATM   36  C   UNL     1       6.537  35.082  71.593  1.00  0.00     0.024 A 
HETATM   37  C   UNL     1       5.943  34.789  70.360  1.00  0.00     0.019 A 
BRANCH  35  38
HETATM   38  N   UNL     1       8.512  35.519  72.930  1.00  0.00    -0.303 NA
HETATM   39  H   UNL     1       8.065  35.146  73.763  1.00  0.00     0.124 HD
HETATM   40  H   UNL     1       8.661  36.521  72.991  1.00  0.00     0.124 HD
ENDBRANCH  35  38
ENDBRANCH  29  32
ENDBRANCH   4  28
TORSDOF 9
ENDMDL
MODEL 9
REMARK VINA RESULT:      -8.4     10.384     16.116
REMARK  9 active torsions:
REMARK  status: ('A' for Active; 'I' for Inactive)
REMARK    1  A    between atoms: C_2  and  O_3 
REMARK    2  A    between atoms: O_3  and  C_4 
REMARK    3  A    between atoms: C_5  and  N_6 
REMARK       I    between atoms: N_6  and  C_7 
REMARK    4  A    between atoms: C_7  and  C_8 
REMARK    5  A    between atoms: C_11  and  N_12 
REMARK    6  A    between atoms: C_17  and  N_18 
REMARK       I    between atoms: N_18  and  C_19 
REMARK    7  A    between atoms: C_19  and  C_20 
REMARK    8  A    between atoms: C_23  and  N_24 
REMARK    9  A    between atoms: C_29  and  C_30 
REMARK       I    between atoms: C_30  and  N_31 
ROOT
HETATM    1  C   UNL     1       6.567  33.946  62.371  1.00  0.00     0.111 A 
HETATM    2  C   UNL     1       6.061  35.093  63.016  1.00  0.00     0.071 A 
HETATM    3  C   UNL     1       6.147  35.206  64.411  1.00  0.00     0.062 A 
HETATM    4  C   UNL     1       6.758  34.193  65.160  1.00  0.00     0.038 A 
HETATM    5  C   UNL     1       7.266  33.064  64.504  1.00  0.00     0.049 A 
HETATM    6  C   UNL     1       7.209  32.947  63.110  1.00  0.00     0.069 A 
ENDROOT
BRANCH   2   7
HETATM    7  N   UNL     1       5.567  36.123  62.176  1.00  0.00    -0.320 N 
HETATM    8  C   UNL     1       4.316  36.691  62.212  1.00  0.00     0.256 C 
HETATM    9  O   UNL     1       4.194  37.887  62.470  1.00  0.00    -0.267 OA
HETATM   10  H   UNL     1       6.293  36.801  61.959  1.00  0.00     0.169 HD
BRANCH   8  11
HETATM   11  C   UNL     1       3.154  35.916  61.684  1.00  0.00     0.032 A 
HETATM   12  C   UNL     1       2.461  35.080  62.569  1.00  0.00     0.019 A 
HETATM   13  C   UNL     1       1.259  34.477  62.184  1.00  0.00     0.024 A 
HETATM   14  C   UNL     1       0.748  34.659  60.897  1.00  0.00     0.005 A 
HETATM   15  C   UNL     1       1.424  35.519  60.026  1.00  0.00     0.024 A 
HETATM   16  C   UNL     1       2.626  36.130  60.406  1.00  0.00     0.019 A 
BRANCH  14  17
HETATM   17  N   UNL     1      -0.534  34.201  60.578  1.00  0.00    -0.303 NA
HETATM   18  H   UNL     1      -0.743  34.224  59.585  1.00  0.00     0.124 HD
HETATM   19  H   UNL     1      -1.273  34.617  61.136  1.00  0.00     0.124 HD
ENDBRANCH  14  17
ENDBRANCH   8  11
ENDBRANCH   2   7
BRANCH   1  20
HETATM   20  O   UNL     1       6.455  33.889  60.999  1.00  0.00    -0.348 OA
BRANCH  20  21
HETATM   21  C   UNL     1       5.292  33.147  60.590  1.00  0.00     0.171 C 
HETATM   22  C   UNL     1       4.920  33.493  59.159  1.00  0.00     0.034 C 
ENDBRANCH  20  21
ENDBRANCH   1  20
BRANCH   6  23
HETATM   23  C   UNL     1       7.900  31.777  62.510  1.00  0.00     0.252 C 
HETATM   24  N   UNL     1       7.179  30.629  62.355  1.00  0.00    -0.366 N 
HETATM   25  H   UNL     1       6.205  30.558  62.628  1.00  0.00     0.159 HD
HETATM   26  H   UNL     1       7.618  29.842  61.898  1.00  0.00     0.159 HD
HETATM   27  O   UNL     1       9.060  31.852  62.122  1.00  0.00    -0.268 OA
ENDBRANCH   6  23
BRANCH   4  28
HETATM   28  N   UNL     1       6.986  34.246  66.554  1.00  0.00    -0.323 N 
HETATM   29  C   UNL     1       6.048  34.340  67.565  1.00  0.00     0.256 C 
HETATM   30  O   UNL     1       4.838  34.206  67.435  1.00  0.00    -0.267 OA
HETATM   31  H   UNL     1       7.958  34.243  66.831  1.00  0.00     0.169 HD
BRANCH  29  32
HETATM   32  C   UNL     1       6.602  34.621  68.931  1.00  0.00     0.032 A 
HETATM   33  C   UNL     1       5.790  34.730  70.068  1.00  0.00     0.019 A 
HETATM   34  C   UNL     1       6.362  34.975  71.323  1.00  0.00     0.024 A 
HETATM   35  C   UNL     1       7.741  35.133  71.466  1.00  0.00     0.005 A 
HETATM   36  C   UNL     1       8.552  34.937  70.345  1.00  0.00     0.024 A 
HETATM   37  C   UNL     1       7.990  34.703  69.085  1.00  0.00     0.019 A 
BRANCH  35  38
HETATM   38  N   UNL     1       8.309  35.238  72.739  1.00  0.00    -0.303 NA
HETATM   39  H   UNL     1       9.259  34.885  72.801  1.00  0.00     0.124 HD
HETATM   40  H   UNL     1       7.719  34.886  73.486  1.00  0.00     0.124 HD
ENDBRANCH  35  38
ENDBRANCH  29  32
ENDBRANCH   4  28
TORSDOF 9
ENDMDL
MODEL 10
REMARK VINA RESULT:      -8.3      4.373      7.223
REMARK  9 active torsions:
REMARK  status: ('A' for Active; 'I' for Inactive)
REMARK    1  A    between atoms: C_2  and  O_3 
REMARK    2  A    between atoms: O_3  and  C_4 
REMARK    3  A    between atoms: C_5  and  N_6 
REMARK       I    between atoms: N_6  and  C_7 
REMARK    4  A    between atoms: C_7  and  C_8 
REMARK    5  A    between atoms: C_11  and  N_12 
REMARK    6  A    between atoms: C_17  and  N_18 
REMARK       I    between atoms: N_18  and  C_19 
REMARK    7  A    between atoms: C_19  and  C_20 
REMARK    8  A    between atoms: C_23  and  N_24 
REMARK    9  A    between atoms: C_29  and  C_30 
REMARK       I    between atoms: C_30  and  N_31 
ROOT
HETATM    1  C   UNL     1       7.791  30.755  58.048  1.00  0.00     0.111 A 
HETATM    2  C   UNL     1       6.580  30.067  57.831  1.00  0.00     0.071 A 
HETATM    3  C   UNL     1       6.563  28.916  57.030  1.00  0.00     0.062 A 
HETATM    4  C   UNL     1       7.753  28.436  56.467  1.00  0.00     0.038 A 
HETATM    5  C   UNL     1       8.951  29.125  56.701  1.00  0.00     0.049 A 
HETATM    6  C   UNL     1       8.987  30.262  57.517  1.00  0.00     0.069 A 
ENDROOT
BRANCH   2   7
HETATM    7  N   UNL     1       5.446  30.549  58.533  1.00  0.00    -0.320 N 
HETATM    8  C   UNL     1       4.387  31.252  58.010  1.00  0.00     0.256 C 
HETATM    9  O   UNL     1       3.256  30.773  58.045  1.00  0.00    -0.267 OA
HETATM   10  H   UNL     1       5.156  29.897  59.257  1.00  0.00     0.169 HD
BRANCH   8  11
HETATM   11  C   UNL     1       4.582  32.689  57.649  1.00  0.00     0.032 A 
HETATM   12  C   UNL     1       4.805  33.007  56.304  1.00  0.00     0.019 A 
HETATM   13  C   UNL     1       4.807  34.340  55.879  1.00  0.00     0.024 A 
HETATM   14  C   UNL     1       4.631  35.381  56.793  1.00  0.00     0.005 A 
HETATM   15  C   UNL     1       4.376  35.061  58.129  1.00  0.00     0.024 A 
HETATM   16  C   UNL     1       4.369  33.728  58.562  1.00  0.00     0.019 A 
BRANCH  14  17
HETATM   17  N   UNL     1       4.458  36.693  56.339  1.00  0.00    -0.303 NA
HETATM   18  H   UNL     1       3.678  37.178  56.772  1.00  0.00     0.124 HD
HETATM   19  H   UNL     1       4.454  36.784  55.328  1.00  0.00     0.124 HD
ENDBRANCH  14  17
ENDBRANCH   8  11
ENDBRANCH   2   7
BRANCH   1  20
HETATM   20  O   UNL     1       7.748  31.879  58.844  1.00  0.00    -0.348 OA
BRANCH  20  21
HETATM   21  C   UNL     1       7.767  31.543  60.243  1.00  0.00     0.171 C 
HETATM   22  C   UNL     1       7.040  32.601  61.052  1.00  0.00     0.034 C 
ENDBRANCH  20  21
ENDBRANCH   1  20
BRANCH   6  23
HETATM   23  C   UNL     1      10.328  30.831  57.808  1.00  0.00     0.252 C 
HETATM   24  N   UNL     1      11.418  30.077  57.482  1.00  0.00    -0.366 N 
HETATM   25  H   UNL     1      11.337  29.164  57.050  1.00  0.00     0.159 HD
HETATM   26  H   UNL     1      12.338  30.473  57.623  1.00  0.00     0.159 HD
HETATM   27  O   UNL     1      10.455  31.955  58.279  1.00  0.00    -0.268 OA
ENDBRANCH   6  23
BRANCH   4  28
HETATM   28  N   UNL     1       7.869  27.238  55.728  1.00  0.00    -0.323 N 
HETATM   29  C   UNL     1       7.249  26.912  54.536  1.00  0.00     0.256 C 
HETATM   30  O   UNL     1       6.631  27.685  53.815  1.00  0.00    -0.267 OA
HETATM   31  H   UNL     1       8.457  26.530  56.145  1.00  0.00     0.169 HD
BRANCH  29  32
HETATM   32  C   UNL     1       7.377  25.477  54.117  1.00  0.00     0.032 A 
HETATM   33  C   UNL     1       7.791  25.099  52.832  1.00  0.00     0.019 A 
HETATM   34  C   UNL     1       7.912  23.744  52.499  1.00  0.00     0.024 A 
HETATM   35  C   UNL     1       7.608  22.747  53.426  1.00  0.00     0.005 A 
HETATM   36  C   UNL     1       7.280  23.128  54.730  1.00  0.00     0.024 A 
HETATM   37  C   UNL     1       7.147  24.480  55.070  1.00  0.00     0.019 A 
BRANCH  35  38
HETATM   38  N   UNL     1       7.865  21.406  53.127  1.00  0.00    -0.303 NA
HETATM   39  H   UNL     1       8.782  21.238  52.725  1.00  0.00     0.124 HD
HETATM   40  H   UNL     1       7.126  20.949  52.600  1.00  0.00     0.124 HD
ENDBRANCH  35  38
ENDBRANCH  29  32
ENDBRANCH   4  28
TORSDOF 9
ENDMDL
