MODEL 1
REMARK VINA RESULT:     -10.1      0.000      0.000
REMARK  6 active torsions:
REMARK  status: ('A' for Active; 'I' for Inactive)
REMARK    1  A    between atoms: C_2  and  C_3 
REMARK    2  A    between atoms: C_3  and  C_4 
REMARK    3  A    between atoms: C_3  and  C_10 
REMARK    4  A    between atoms: C_10  and  C_11 
REMARK       I    between atoms: C_11  and  N_12 
REMARK    5  A    between atoms: N_12  and  C_13 
REMARK    6  A    between atoms: C_20  and  C_21 
REMARK       I    between atoms: C_21  and  N_22 
ROOT
HETATM    1  C   UNL     1       8.383  28.329  57.111  1.00  0.00     0.035 A 
HETATM    2  C   UNL     1       7.797  29.214  58.025  1.00  0.00     0.046 A 
HETATM    3  C   UNL     1       8.512  30.361  58.439  1.00  0.00     0.030 A 
HETATM    4  C   UNL     1       9.790  30.572  57.938  1.00  0.00     0.063 A 
HETATM    5  N   UNL     1      10.223  31.730  58.519  1.00  0.00    -0.277 N 
HETATM    6  H   UNL     1      11.120  32.184  58.388  1.00  0.00     0.189 HD
HETATM    7  N   UNL     1       9.332  32.307  59.342  1.00  0.00    -0.168 NA
HETATM    8  C   UNL     1       8.268  31.473  59.301  1.00  0.00     0.156 A 
HETATM    9  C   UNL     1      10.405  29.711  57.029  1.00  0.00     0.034 A 
HETATM   10  C   UNL     1       9.671  28.591  56.621  1.00  0.00     0.032 A 
ENDROOT
BRANCH   1  11
HETATM   11  N   UNL     1       7.753  27.166  56.621  1.00  0.00    -0.327 N 
HETATM   12  C   UNL     1       7.782  25.893  57.160  1.00  0.00     0.222 C 
HETATM   13  O   UNL     1       8.350  25.557  58.195  1.00  0.00    -0.273 OA
HETATM   14  H   UNL     1       7.266  27.278  55.745  1.00  0.00     0.169 HD
BRANCH  12  15
HETATM   15  C   UNL     1       6.946  24.872  56.390  1.00  0.00     0.113 C 
BRANCH  15  16
HETATM   16  C   UNL     1       7.606  24.296  55.119  1.00  0.00     0.030 C 
BRANCH  16  17
HETATM   17  C   UNL     1       6.863  24.666  53.797  1.00  0.00    -0.014 C 
HETATM   18  C   UNL     1       7.651  25.709  52.992  1.00  0.00     0.010 C 
HETATM   19  C   UNL     1       5.425  25.160  53.983  1.00  0.00     0.010 C 
ENDBRANCH  16  17
BRANCH  16  20
HETATM   20  C   UNL     1       7.891  22.800  55.199  1.00  0.00    -0.053 A 
HETATM   21  C   UNL     1       8.247  22.165  56.396  1.00  0.00     0.007 A 
HETATM   22  C   UNL     1       8.504  20.792  56.427  1.00  0.00     0.001 A 
HETATM   23  C   UNL     1       8.415  20.036  55.262  1.00  0.00     0.000 A 
HETATM   24  C   UNL     1       8.063  20.650  54.064  1.00  0.00     0.001 A 
HETATM   25  C   UNL     1       7.797  22.021  54.033  1.00  0.00     0.007 A 
ENDBRANCH  16  20
ENDBRANCH  15  16
ENDBRANCH  12  15
ENDBRANCH   1  11
BRANCH   8  26
HETATM   26  C   UNL     1       7.050  31.765  60.072  1.00  0.00     0.270 C 
HETATM   27  N   UNL     1       7.046  31.226  61.331  1.00  0.00    -0.365 N 
HETATM   28  H   UNL     1       7.855  30.698  61.633  1.00  0.00     0.159 HD
HETATM   29  H   UNL     1       6.262  31.390  61.941  1.00  0.00     0.159 HD
HETATM   30  O   UNL     1       6.106  32.432  59.665  1.00  0.00    -0.266 OA
ENDBRANCH   8  26
TORSDOF 6
ENDMDL
MODEL 2
REMARK VINA RESULT:      -9.5      1.126      1.161
REMARK  6 active torsions:
REMARK  status: ('A' for Active; 'I' for Inactive)
REMARK    1  A    between atoms: C_2  and  C_3 
REMARK    2  A    between atoms: C_3  and  C_4 
REMARK    3  A    between atoms: C_3  and  C_10 
REMARK    4  A    between atoms: C_10  and  C_11 
REMARK       I    between atoms: C_11  and  N_12 
REMARK    5  A    between atoms: N_12  and  C_13 
REMARK    6  A    between atoms: C_20  and  C_21 
REMARK       I    between atoms: C_21  and  N_22 
ROOT
HETATM    1  C   UNL     1       7.525  28.066  56.793  1.00  0.00     0.035 A 
HETATM    2  C   UNL     1       6.748  29.062  57.398  1.00  0.00     0.046 A 
HETATM    3  C   UNL     1       7.385  30.166  58.009  1.00  0.00     0.030 A 
HETATM    4  C   UNL     1       8.773  30.226  58.008  1.00  0.00     0.063 A 
HETATM    5  N   UNL     1       9.089  31.377  58.670  1.00  0.00    -0.277 N 
HETATM    6  H   UNL     1      10.016  31.739  58.865  1.00  0.00     0.189 HD
HETATM    7  N   UNL     1       8.030  32.089  59.088  1.00  0.00    -0.168 NA
HETATM    8  C   UNL     1       6.968  31.354  58.685  1.00  0.00     0.156 A 
HETATM    9  C   UNL     1       9.578  29.251  57.419  1.00  0.00     0.034 A 
HETATM   10  C   UNL     1       8.924  28.176  56.805  1.00  0.00     0.032 A 
ENDROOT
BRANCH   1  11
HETATM   11  N   UNL     1       6.992  26.933  56.143  1.00  0.00    -0.327 N 
HETATM   12  C   UNL     1       7.117  25.606  56.511  1.00  0.00     0.222 C 
HETATM   13  O   UNL     1       7.700  25.181  57.504  1.00  0.00    -0.273 OA
HETATM   14  H   UNL     1       6.506  27.123  55.280  1.00  0.00     0.169 HD
BRANCH  12  15
HETATM   15  C   UNL     1       6.370  24.636  55.598  1.00  0.00     0.113 C 
BRANCH  15  16
HETATM   16  C   UNL     1       7.174  24.109  54.390  1.00  0.00     0.030 C 
BRANCH  16  17
HETATM   17  C   UNL     1       6.478  24.351  53.013  1.00  0.00    -0.014 C 
HETATM   18  C   UNL     1       7.338  25.244  52.109  1.00  0.00     0.010 C 
HETATM   19  C   UNL     1       5.066  24.937  53.099  1.00  0.00     0.010 C 
ENDBRANCH  16  17
BRANCH  16  20
HETATM   20  C   UNL     1       7.627  22.660  54.539  1.00  0.00    -0.053 A 
HETATM   21  C   UNL     1       7.825  22.059  55.788  1.00  0.00     0.007 A 
HETATM   22  C   UNL     1       8.245  20.729  55.882  1.00  0.00     0.001 A 
HETATM   23  C   UNL     1       8.478  19.985  54.730  1.00  0.00     0.000 A 
HETATM   24  C   UNL     1       8.286  20.566  53.480  1.00  0.00     0.001 A 
HETATM   25  C   UNL     1       7.858  21.892  53.385  1.00  0.00     0.007 A 
ENDBRANCH  16  20
ENDBRANCH  15  16
ENDBRANCH  12  15
ENDBRANCH   1  11
BRANCH   8  26
HETATM   26  C   UNL     1       5.593  31.808  58.942  1.00  0.00     0.270 C 
HETATM   27  N   UNL     1       5.314  32.014  60.267  1.00  0.00    -0.365 N 
HETATM   28  H   UNL     1       6.049  31.858  60.946  1.00  0.00     0.159 HD
HETATM   29  H   UNL     1       4.403  32.345  60.539  1.00  0.00     0.159 HD
HETATM   30  O   UNL     1       4.746  32.004  58.079  1.00  0.00    -0.266 OA
ENDBRANCH   8  26
TORSDOF 6
ENDMDL
MODEL 3
REMARK VINA RESULT:      -9.4      2.089      2.757
REMARK  6 active torsions:
REMARK  status: ('A' for Active; 'I' for Inactive)
REMARK    1  A    between atoms: C_2  and  C_3 
REMARK    2  A    between atoms: C_3  and  C_4 
REMARK    3  A    between atoms: C_3  and  C_10 
REMARK    4  A    between atoms: C_10  and  C_11 
REMARK       I    between atoms: C_11  and  N_12 
REMARK    5  A    between atoms: N_12  and  C_13 
REMARK    6  A    between atoms: C_20  and  C_21 
REMARK       I    between atoms: C_21  and  N_22 
ROOT
HETATM    1  C   UNL     1       5.805  28.214  56.900  1.00  0.00     0.035 A 
HETATM    2  C   UNL     1       6.821  28.795  57.670  1.00  0.00     0.046 A 
HETATM    3  C   UNL     1       6.696  30.142  58.082  1.00  0.00     0.030 A 
HETATM    4  C   UNL     1       5.571  30.860  57.697  1.00  0.00     0.063 A 
HETATM    5  N   UNL     1       5.738  32.109  58.225  1.00  0.00    -0.277 N 
HETATM    6  H   UNL     1       5.111  32.901  58.138  1.00  0.00     0.189 HD
HETATM    7  N   UNL     1       6.864  32.266  58.940  1.00  0.00    -0.168 NA
HETATM    8  C   UNL     1       7.467  31.057  58.863  1.00  0.00     0.156 A 
HETATM    9  C   UNL     1       4.543  30.315  56.929  1.00  0.00     0.034 A 
HETATM   10  C   UNL     1       4.681  28.975  56.547  1.00  0.00     0.032 A 
ENDROOT
BRANCH   1  11
HETATM   11  N   UNL     1       5.822  26.877  56.449  1.00  0.00    -0.327 N 
HETATM   12  C   UNL     1       6.655  26.310  55.503  1.00  0.00     0.222 C 
HETATM   13  O   UNL     1       7.562  26.879  54.902  1.00  0.00    -0.273 OA
HETATM   14  H   UNL     1       5.102  26.285  56.835  1.00  0.00     0.169 HD
BRANCH  12  15
HETATM   15  C   UNL     1       6.426  24.815  55.288  1.00  0.00     0.113 C 
BRANCH  15  16
HETATM   16  C   UNL     1       7.083  24.217  54.026  1.00  0.00     0.030 C 
BRANCH  16  17
HETATM   17  C   UNL     1       6.236  24.395  52.726  1.00  0.00    -0.014 C 
HETATM   18  C   UNL     1       6.902  25.388  51.764  1.00  0.00     0.010 C 
HETATM   19  C   UNL     1       4.783  24.820  52.958  1.00  0.00     0.010 C 
ENDBRANCH  16  17
BRANCH  16  20
HETATM   20  C   UNL     1       7.543  22.774  54.198  1.00  0.00    -0.053 A 
HETATM   21  C   UNL     1       7.891  21.960  53.112  1.00  0.00     0.007 A 
HETATM   22  C   UNL     1       8.304  20.641  53.312  1.00  0.00     0.001 A 
HETATM   23  C   UNL     1       8.368  20.114  54.599  1.00  0.00     0.000 A 
HETATM   24  C   UNL     1       8.025  20.907  55.689  1.00  0.00     0.001 A 
HETATM   25  C   UNL     1       7.621  22.229  55.492  1.00  0.00     0.007 A 
ENDBRANCH  16  20
ENDBRANCH  15  16
ENDBRANCH  12  15
ENDBRANCH   1  11
BRANCH   8  26
HETATM   26  C   UNL     1       8.747  30.807  59.541  1.00  0.00     0.270 C 
HETATM   27  N   UNL     1       8.617  30.371  60.832  1.00  0.00    -0.365 N 
HETATM   28  H   UNL     1       7.685  30.246  61.208  1.00  0.00     0.159 HD
HETATM   29  H   UNL     1       9.439  30.153  61.370  1.00  0.00     0.159 HD
HETATM   30  O   UNL     1       9.851  30.953  59.030  1.00  0.00    -0.266 OA
ENDBRANCH   8  26
TORSDOF 6
ENDMDL
MODEL 4
REMARK VINA RESULT:      -9.2      1.715      3.525
REMARK  6 active torsions:
REMARK  status: ('A' for Active; 'I' for Inactive)
REMARK    1  A    between atoms: C_2  and  C_3 
REMARK    2  A    between atoms: C_3  and  C_4 
REMARK    3  A    between atoms: C_3  and  C_10 
REMARK    4  A    between atoms: C_10  and  C_11 
REMARK       I    between atoms: C_11  and  N_12 
REMARK    5  A    between atoms: N_12  and  C_13 
REMARK    6  A    between atoms: C_20  and  C_21 
REMARK       I    between atoms: C_21  and  N_22 
ROOT
HETATM    1  C   UNL     1       7.498  27.770  57.058  1.00  0.00     0.035 A 
HETATM    2  C   UNL     1       8.211  28.788  57.704  1.00  0.00     0.046 A 
HETATM    3  C   UNL     1       7.562  30.008  58.005  1.00  0.00     0.030 A 
HETATM    4  C   UNL     1       6.233  30.171  57.633  1.00  0.00     0.063 A 
HETATM    5  N   UNL     1       5.894  31.430  58.037  1.00  0.00    -0.277 N 
HETATM    6  H   UNL     1       4.998  31.891  57.923  1.00  0.00     0.189 HD
HETATM    7  N   UNL     1       6.878  32.100  58.659  1.00  0.00    -0.168 NA
HETATM    8  C   UNL     1       7.916  31.233  58.649  1.00  0.00     0.156 A 
HETATM    9  C   UNL     1       5.495  29.180  56.986  1.00  0.00     0.034 A 
HETATM   10  C   UNL     1       6.154  27.975  56.714  1.00  0.00     0.032 A 
ENDROOT
BRANCH   1  11
HETATM   11  N   UNL     1       8.043  26.512  56.726  1.00  0.00    -0.327 N 
HETATM   12  C   UNL     1       7.487  25.263  56.934  1.00  0.00     0.222 C 
HETATM   13  O   UNL     1       6.386  25.034  57.427  1.00  0.00    -0.273 OA
HETATM   14  H   UNL     1       8.973  26.536  56.335  1.00  0.00     0.169 HD
BRANCH  12  15
HETATM   15  C   UNL     1       8.336  24.108  56.408  1.00  0.00     0.113 C 
BRANCH  15  16
HETATM   16  C   UNL     1       7.666  23.228  55.331  1.00  0.00     0.030 C 
BRANCH  16  17
HETATM   17  C   UNL     1       8.482  21.949  54.962  1.00  0.00    -0.014 C 
HETATM   18  C   UNL     1       7.757  21.121  53.891  1.00  0.00     0.010 C 
HETATM   19  C   UNL     1       8.829  21.042  56.147  1.00  0.00     0.010 C 
ENDBRANCH  16  17
BRANCH  16  20
HETATM   20  C   UNL     1       7.243  23.998  54.085  1.00  0.00    -0.053 A 
HETATM   21  C   UNL     1       8.149  24.358  53.079  1.00  0.00     0.007 A 
HETATM   22  C   UNL     1       7.721  25.068  51.954  1.00  0.00     0.001 A 
HETATM   23  C   UNL     1       6.385  25.433  51.821  1.00  0.00     0.000 A 
HETATM   24  C   UNL     1       5.471  25.084  52.811  1.00  0.00     0.001 A 
HETATM   25  C   UNL     1       5.895  24.367  53.932  1.00  0.00     0.007 A 
ENDBRANCH  16  20
ENDBRANCH  15  16
ENDBRANCH  12  15
ENDBRANCH   1  11
BRANCH   8  26
HETATM   26  C   UNL     1       9.204  31.589  59.260  1.00  0.00     0.270 C 
HETATM   27  N   UNL     1       9.418  31.013  60.483  1.00  0.00    -0.365 N 
HETATM   28  H   UNL     1       8.708  30.397  60.859  1.00  0.00     0.159 HD
HETATM   29  H   UNL     1      10.283  31.182  60.970  1.00  0.00     0.159 HD
HETATM   30  O   UNL     1      10.042  32.324  58.751  1.00  0.00    -0.266 OA
ENDBRANCH   8  26
TORSDOF 6
ENDMDL
MODEL 5
REMARK VINA RESULT:      -9.1      4.948      7.829
REMARK  6 active torsions:
REMARK  status: ('A' for Active; 'I' for Inactive)
REMARK    1  A    between atoms: C_2  and  C_3 
REMARK    2  A    between atoms: C_3  and  C_4 
REMARK    3  A    between atoms: C_3  and  C_10 
REMARK    4  A    between atoms: C_10  and  C_11 
REMARK       I    between atoms: C_11  and  N_12 
REMARK    5  A    between atoms: N_12  and  C_13 
REMARK    6  A    between atoms: C_20  and  C_21 
REMARK       I    between atoms: C_21  and  N_22 
ROOT
HETATM    1  C   UNL     1       5.240  27.022  52.222  1.00  0.00     0.035 A 
HETATM    2  C   UNL     1       5.178  26.875  50.831  1.00  0.00     0.046 A 
HETATM    3  C   UNL     1       4.299  27.692  50.083  1.00  0.00     0.030 A 
HETATM    4  C   UNL     1       3.503  28.611  50.754  1.00  0.00     0.063 A 
HETATM    5  N   UNL     1       2.765  29.231  49.786  1.00  0.00    -0.277 N 
HETATM    6  H   UNL     1       2.069  29.957  49.915  1.00  0.00     0.189 HD
HETATM    7  N   UNL     1       3.022  28.812  48.537  1.00  0.00    -0.168 NA
HETATM    8  C   UNL     1       3.970  27.861  48.703  1.00  0.00     0.156 A 
HETATM    9  C   UNL     1       3.535  28.782  52.138  1.00  0.00     0.034 A 
HETATM   10  C   UNL     1       4.426  27.974  52.855  1.00  0.00     0.032 A 
ENDROOT
BRANCH   1  11
HETATM   11  N   UNL     1       6.091  26.272  53.060  1.00  0.00    -0.327 N 
HETATM   12  C   UNL     1       7.253  26.688  53.683  1.00  0.00     0.222 C 
HETATM   13  O   UNL     1       7.736  27.816  53.636  1.00  0.00    -0.273 OA
HETATM   14  H   UNL     1       5.838  25.301  53.170  1.00  0.00     0.169 HD
BRANCH  12  15
HETATM   15  C   UNL     1       7.905  25.620  54.559  1.00  0.00     0.113 C 
BRANCH  15  16
HETATM   16  C   UNL     1       6.957  24.523  55.087  1.00  0.00     0.030 C 
BRANCH  16  17
HETATM   17  C   UNL     1       6.663  24.622  56.617  1.00  0.00    -0.014 C 
HETATM   18  C   UNL     1       5.287  25.250  56.877  1.00  0.00     0.010 C 
HETATM   19  C   UNL     1       7.720  25.379  57.427  1.00  0.00     0.010 C 
ENDBRANCH  16  17
BRANCH  16  20
HETATM   20  C   UNL     1       7.370  23.110  54.689  1.00  0.00    -0.053 A 
HETATM   21  C   UNL     1       7.633  22.750  53.360  1.00  0.00     0.007 A 
HETATM   22  C   UNL     1       8.006  21.443  53.036  1.00  0.00     0.001 A 
HETATM   23  C   UNL     1       8.115  20.478  54.033  1.00  0.00     0.000 A 
HETATM   24  C   UNL     1       7.858  20.818  55.357  1.00  0.00     0.001 A 
HETATM   25  C   UNL     1       7.494  22.126  55.684  1.00  0.00     0.007 A 
ENDBRANCH  16  20
ENDBRANCH  15  16
ENDBRANCH  12  15
ENDBRANCH   1  11
BRANCH   8  26
HETATM   26  C   UNL     1       4.542  27.153  47.548  1.00  0.00     0.270 C 
HETATM   27  N   UNL     1       5.814  27.547  47.228  1.00  0.00    -0.365 N 
HETATM   28  H   UNL     1       6.256  28.260  47.795  1.00  0.00     0.159 HD
HETATM   29  H   UNL     1       6.296  27.104  46.464  1.00  0.00     0.159 HD
HETATM   30  O   UNL     1       3.970  26.279  46.909  1.00  0.00    -0.266 OA
ENDBRANCH   8  26
TORSDOF 6
ENDMDL
MODEL 6
REMARK VINA RESULT:      -8.8      3.549      4.069
REMARK  6 active torsions:
REMARK  status: ('A' for Active; 'I' for Inactive)
REMARK    1  A    between atoms: C_2  and  C_3 
REMARK    2  A    between atoms: C_3  and  C_4 
REMARK    3  A    between atoms: C_3  and  C_10 
REMARK    4  A    between atoms: C_10  and  C_11 
REMARK       I    between atoms: C_11  and  N_12 
REMARK    5  A    between atoms: N_12  and  C_13 
REMARK    6  A    between atoms: C_20  and  C_21 
REMARK       I    between atoms: C_21  and  N_22 
ROOT
HETATM    1  C   UNL     1       4.375  28.251  55.348  1.00  0.00     0.035 A 
HETATM    2  C   UNL     1       4.324  29.003  56.528  1.00  0.00     0.046 A 
HETATM    3  C   UNL     1       3.858  30.337  56.482  1.00  0.00     0.030 A 
HETATM    4  C   UNL     1       3.477  30.874  55.259  1.00  0.00     0.063 A 
HETATM    5  N   UNL     1       3.093  32.157  55.527  1.00  0.00    -0.277 N 
HETATM    6  H   UNL     1       2.761  32.849  54.865  1.00  0.00     0.189 HD
HETATM    7  N   UNL     1       3.170  32.502  56.822  1.00  0.00    -0.168 NA
HETATM    8  C   UNL     1       3.639  31.387  57.427  1.00  0.00     0.156 A 
HETATM    9  C   UNL     1       3.518  30.155  54.064  1.00  0.00     0.034 A 
HETATM   10  C   UNL     1       3.967  28.831  54.137  1.00  0.00     0.032 A 
ENDROOT
BRANCH   1  11
HETATM   11  N   UNL     1       4.808  26.910  55.283  1.00  0.00    -0.327 N 
HETATM   12  C   UNL     1       6.103  26.439  55.175  1.00  0.00     0.222 C 
HETATM   13  O   UNL     1       7.122  27.123  55.147  1.00  0.00    -0.273 OA
HETATM   14  H   UNL     1       4.070  26.221  55.264  1.00  0.00     0.169 HD
BRANCH  12  15
HETATM   15  C   UNL     1       6.214  24.916  55.176  1.00  0.00     0.113 C 
BRANCH  15  16
HETATM   16  C   UNL     1       7.048  24.310  54.027  1.00  0.00     0.030 C 
BRANCH  16  17
HETATM   17  C   UNL     1       6.394  24.469  52.618  1.00  0.00    -0.014 C 
HETATM   18  C   UNL     1       7.064  25.598  51.822  1.00  0.00     0.010 C 
HETATM   19  C   UNL     1       4.880  24.697  52.633  1.00  0.00     0.010 C 
ENDBRANCH  16  17
BRANCH  16  20
HETATM   20  C   UNL     1       7.487  22.872  54.279  1.00  0.00    -0.053 A 
HETATM   21  C   UNL     1       7.823  21.995  53.239  1.00  0.00     0.007 A 
HETATM   22  C   UNL     1       8.217  20.682  53.512  1.00  0.00     0.001 A 
HETATM   23  C   UNL     1       8.274  20.226  54.826  1.00  0.00     0.000 A 
HETATM   24  C   UNL     1       7.943  21.083  55.871  1.00  0.00     0.001 A 
HETATM   25  C   UNL     1       7.558  22.398  55.600  1.00  0.00     0.007 A 
ENDBRANCH  16  20
ENDBRANCH  15  16
ENDBRANCH  12  15
ENDBRANCH   1  11
BRANCH   8  26
HETATM   26  C   UNL     1       3.854  31.348  58.881  1.00  0.00     0.270 C 
HETATM   27  N   UNL     1       3.071  30.435  59.535  1.00  0.00    -0.365 N 
HETATM   28  H   UNL     1       2.435  29.865  58.991  1.00  0.00     0.159 HD
HETATM   29  H   UNL     1       3.162  30.322  60.531  1.00  0.00     0.159 HD
HETATM   30  O   UNL     1       4.657  32.046  59.490  1.00  0.00    -0.266 OA
ENDBRANCH   8  26
TORSDOF 6
ENDMDL
MODEL 7
REMARK VINA RESULT:      -8.7      5.509      7.992
REMARK  6 active torsions:
REMARK  status: ('A' for Active; 'I' for Inactive)
REMARK    1  A    between atoms: C_2  and  C_3 
REMARK    2  A    between atoms: C_3  and  C_4 
REMARK    3  A    between atoms: C_3  and  C_10 
REMARK    4  A    between atoms: C_10  and  C_11 
REMARK       I    between atoms: C_11  and  N_12 
REMARK    5  A    between atoms: N_12  and  C_13 
REMARK    6  A    between atoms: C_20  and  C_21 
REMARK       I    between atoms: C_21  and  N_22 
ROOT
HETATM    1  C   UNL     1       4.780  26.566  50.196  1.00  0.00     0.035 A 
HETATM    2  C   UNL     1       4.249  27.836  50.451  1.00  0.00     0.046 A 
HETATM    3  C   UNL     1       3.247  28.355  49.598  1.00  0.00     0.030 A 
HETATM    4  C   UNL     1       2.827  27.592  48.515  1.00  0.00     0.063 A 
HETATM    5  N   UNL     1       1.880  28.347  47.883  1.00  0.00    -0.277 N 
HETATM    6  H   UNL     1       1.362  28.107  47.046  1.00  0.00     0.189 HD
HETATM    7  N   UNL     1       1.629  29.530  48.468  1.00  0.00    -0.168 NA
HETATM    8  C   UNL     1       2.465  29.548  49.532  1.00  0.00     0.156 A 
HETATM    9  C   UNL     1       3.336  26.326  48.230  1.00  0.00     0.034 A 
HETATM   10  C   UNL     1       4.315  25.827  49.098  1.00  0.00     0.032 A 
ENDROOT
BRANCH   1  11
HETATM   11  N   UNL     1       5.770  25.949  50.990  1.00  0.00    -0.327 N 
HETATM   12  C   UNL     1       5.591  25.170  52.118  1.00  0.00     0.222 C 
HETATM   13  O   UNL     1       4.514  24.850  52.614  1.00  0.00    -0.273 OA
HETATM   14  H   UNL     1       6.722  26.150  50.721  1.00  0.00     0.169 HD
BRANCH  12  15
HETATM   15  C   UNL     1       6.889  24.622  52.708  1.00  0.00     0.113 C 
BRANCH  15  16
HETATM   16  C   UNL     1       6.754  23.930  54.082  1.00  0.00     0.030 C 
BRANCH  16  17
HETATM   17  C   UNL     1       7.131  24.843  55.290  1.00  0.00    -0.014 C 
HETATM   18  C   UNL     1       5.964  24.961  56.280  1.00  0.00     0.010 C 
HETATM   19  C   UNL     1       7.610  26.248  54.911  1.00  0.00     0.010 C 
ENDBRANCH  16  17
BRANCH  16  20
HETATM   20  C   UNL     1       7.459  22.581  54.160  1.00  0.00    -0.053 A 
HETATM   21  C   UNL     1       7.871  21.879  53.020  1.00  0.00     0.007 A 
HETATM   22  C   UNL     1       8.511  20.643  53.135  1.00  0.00     0.001 A 
HETATM   23  C   UNL     1       8.742  20.087  54.389  1.00  0.00     0.000 A 
HETATM   24  C   UNL     1       8.339  20.769  55.533  1.00  0.00     0.001 A 
HETATM   25  C   UNL     1       7.708  22.009  55.420  1.00  0.00     0.007 A 
ENDBRANCH  16  20
ENDBRANCH  15  16
ENDBRANCH  12  15
ENDBRANCH   1  11
BRANCH   8  26
HETATM   26  C   UNL     1       2.486  30.691  50.457  1.00  0.00     0.270 C 
HETATM   27  N   UNL     1       1.256  31.027  50.955  1.00  0.00    -0.365 N 
HETATM   28  H   UNL     1       0.453  30.477  50.673  1.00  0.00     0.159 HD
HETATM   29  H   UNL     1       1.174  31.784  51.613  1.00  0.00     0.159 HD
HETATM   30  O   UNL     1       3.492  31.308  50.785  1.00  0.00    -0.266 OA
ENDBRANCH   8  26
TORSDOF 6
ENDMDL
MODEL 8
REMARK VINA RESULT:      -8.5      5.012      7.297
REMARK  6 active torsions:
REMARK  status: ('A' for Active; 'I' for Inactive)
REMARK    1  A    between atoms: C_2  and  C_3 
REMARK    2  A    between atoms: C_3  and  C_4 
REMARK    3  A    between atoms: C_3  and  C_10 
REMARK    4  A    between atoms: C_10  and  C_11 
REMARK       I    between atoms: C_11  and  N_12 
REMARK    5  A    between atoms: N_12  and  C_13 
REMARK    6  A    between atoms: C_20  and  C_21 
REMARK       I    between atoms: C_21  and  N_22 
ROOT
HETATM    1  C   UNL     1       5.703  26.820  51.525  1.00  0.00     0.035 A 
HETATM    2  C   UNL     1       5.705  28.166  51.139  1.00  0.00     0.046 A 
HETATM    3  C   UNL     1       5.084  28.542  49.925  1.00  0.00     0.030 A 
HETATM    4  C   UNL     1       4.502  27.558  49.136  1.00  0.00     0.063 A 
HETATM    5  N   UNL     1       4.006  28.212  48.045  1.00  0.00    -0.277 N 
HETATM    6  H   UNL     1       3.520  27.805  47.254  1.00  0.00     0.189 HD
HETATM    7  N   UNL     1       4.195  29.541  48.059  1.00  0.00    -0.168 NA
HETATM    8  C   UNL     1       4.858  29.762  49.217  1.00  0.00     0.156 A 
HETATM    9  C   UNL     1       4.486  26.209  49.488  1.00  0.00     0.034 A 
HETATM   10  C   UNL     1       5.091  25.863  50.702  1.00  0.00     0.032 A 
ENDROOT
BRANCH   1  11
HETATM   11  N   UNL     1       6.279  26.340  52.721  1.00  0.00    -0.327 N 
HETATM   12  C   UNL     1       7.474  25.662  52.876  1.00  0.00     0.222 C 
HETATM   13  O   UNL     1       8.269  25.382  51.984  1.00  0.00    -0.273 OA
HETATM   14  H   UNL     1       5.718  26.469  53.549  1.00  0.00     0.169 HD
BRANCH  12  15
HETATM   15  C   UNL     1       7.815  25.327  54.327  1.00  0.00     0.113 C 
BRANCH  15  16
HETATM   16  C   UNL     1       6.940  24.236  54.980  1.00  0.00     0.030 C 
BRANCH  16  17
HETATM   17  C   UNL     1       6.635  24.490  56.490  1.00  0.00    -0.014 C 
HETATM   18  C   UNL     1       5.316  25.254  56.668  1.00  0.00     0.010 C 
HETATM   19  C   UNL     1       7.743  25.218  57.257  1.00  0.00     0.010 C 
ENDBRANCH  16  17
BRANCH  16  20
HETATM   20  C   UNL     1       7.448  22.818  54.744  1.00  0.00    -0.053 A 
HETATM   21  C   UNL     1       7.775  21.951  55.795  1.00  0.00     0.007 A 
HETATM   22  C   UNL     1       8.241  20.660  55.536  1.00  0.00     0.001 A 
HETATM   23  C   UNL     1       8.394  20.220  54.225  1.00  0.00     0.000 A 
HETATM   24  C   UNL     1       8.075  21.067  53.169  1.00  0.00     0.001 A 
HETATM   25  C   UNL     1       7.600  22.355  53.426  1.00  0.00     0.007 A 
ENDBRANCH  16  20
ENDBRANCH  15  16
ENDBRANCH  12  15
ENDBRANCH   1  11
BRANCH   8  26
HETATM   26  C   UNL     1       5.246  31.122  49.619  1.00  0.00     0.270 C 
HETATM   27  N   UNL     1       4.228  32.035  49.546  1.00  0.00    -0.365 N 
HETATM   28  H   UNL     1       3.315  31.718  49.244  1.00  0.00     0.159 HD
HETATM   29  H   UNL     1       4.393  32.989  49.821  1.00  0.00     0.159 HD
HETATM   30  O   UNL     1       6.364  31.448  50.000  1.00  0.00    -0.266 OA
ENDBRANCH   8  26
TORSDOF 6
ENDMDL
MODEL 9
REMARK VINA RESULT:      -8.5      3.355      3.916
REMARK  6 active torsions:
REMARK  status: ('A' for Active; 'I' for Inactive)
REMARK    1  A    between atoms: C_2  and  C_3 
REMARK    2  A    between atoms: C_3  and  C_4 
REMARK    3  A    between atoms: C_3  and  C_10 
REMARK    4  A    between atoms: C_10  and  C_11 
REMARK       I    between atoms: C_11  and  N_12 
REMARK    5  A    between atoms: N_12  and  C_13 
REMARK    6  A    between atoms: C_20  and  C_21 
REMARK       I    between atoms: C_21  and  N_22 
ROOT
HETATM    1  C   UNL     1       5.352  28.199  56.374  1.00  0.00     0.035 A 
HETATM    2  C   UNL     1       4.361  29.081  55.924  1.00  0.00     0.046 A 
HETATM    3  C   UNL     1       4.368  30.422  56.372  1.00  0.00     0.030 A 
HETATM    4  C   UNL     1       5.352  30.826  57.265  1.00  0.00     0.063 A 
HETATM    5  N   UNL     1       5.094  32.143  57.520  1.00  0.00    -0.277 N 
HETATM    6  H   UNL     1       5.610  32.761  58.136  1.00  0.00     0.189 HD
HETATM    7  N   UNL     1       4.040  32.643  56.856  1.00  0.00    -0.168 NA
HETATM    8  C   UNL     1       3.581  31.591  56.139  1.00  0.00     0.156 A 
HETATM    9  C   UNL     1       6.350  29.974  57.737  1.00  0.00     0.034 A 
HETATM   10  C   UNL     1       6.334  28.656  57.266  1.00  0.00     0.032 A 
ENDROOT
BRANCH   1  11
HETATM   11  N   UNL     1       5.447  26.848  55.979  1.00  0.00    -0.327 N 
HETATM   12  C   UNL     1       6.592  26.112  55.739  1.00  0.00     0.222 C 
HETATM   13  O   UNL     1       7.748  26.508  55.861  1.00  0.00    -0.273 OA
HETATM   14  H   UNL     1       4.566  26.389  55.806  1.00  0.00     0.169 HD
BRANCH  12  15
HETATM   15  C   UNL     1       6.328  24.654  55.368  1.00  0.00     0.113 C 
BRANCH  15  16
HETATM   16  C   UNL     1       7.066  24.144  54.112  1.00  0.00     0.030 C 
BRANCH  16  17
HETATM   17  C   UNL     1       6.280  24.368  52.782  1.00  0.00    -0.014 C 
HETATM   18  C   UNL     1       7.029  25.333  51.853  1.00  0.00     0.010 C 
HETATM   19  C   UNL     1       4.840  24.860  52.959  1.00  0.00     0.010 C 
ENDBRANCH  16  17
BRANCH  16  20
HETATM   20  C   UNL     1       7.561  22.706  54.231  1.00  0.00    -0.053 A 
HETATM   21  C   UNL     1       7.939  21.946  53.117  1.00  0.00     0.007 A 
HETATM   22  C   UNL     1       8.384  20.630  53.269  1.00  0.00     0.001 A 
HETATM   23  C   UNL     1       8.451  20.054  54.534  1.00  0.00     0.000 A 
HETATM   24  C   UNL     1       8.078  20.794  55.652  1.00  0.00     0.001 A 
HETATM   25  C   UNL     1       7.642  22.113  55.503  1.00  0.00     0.007 A 
ENDBRANCH  16  20
ENDBRANCH  15  16
ENDBRANCH  12  15
ENDBRANCH   1  11
BRANCH   8  26
HETATM   26  C   UNL     1       2.419  31.732  55.250  1.00  0.00     0.270 C 
HETATM   27  N   UNL     1       2.663  31.366  53.954  1.00  0.00    -0.365 N 
HETATM   28  H   UNL     1       3.586  31.025  53.713  1.00  0.00     0.159 HD
HETATM   29  H   UNL     1       1.921  31.408  53.275  1.00  0.00     0.159 HD
HETATM   30  O   UNL     1       1.313  32.128  55.598  1.00  0.00    -0.266 OA
ENDBRANCH   8  26
TORSDOF 6
ENDMDL
MODEL 10
REMARK VINA RESULT:      -8.4      3.489      6.287
REMARK  6 active torsions:
REMARK  status: ('A' for Active; 'I' for Inactive)
REMARK    1  A    between atoms: C_2  and  C_3 
REMARK    2  A    between atoms: C_3  and  C_4 
REMARK    3  A    between atoms: C_3  and  C_10 
REMARK    4  A    between atoms: C_10  and  C_11 
REMARK       I    between atoms: C_11  and  N_12 
REMARK    5  A    between atoms: N_12  and  C_13 
REMARK    6  A    between atoms: C_20  and  C_21 
REMARK       I    between atoms: C_21  and  N_22 
ROOT
HETATM    1  C   UNL     1       7.017  31.820  61.259  1.00  0.00     0.035 A 
HETATM    2  C   UNL     1       5.858  32.460  61.716  1.00  0.00     0.046 A 
HETATM    3  C   UNL     1       5.840  33.024  63.012  1.00  0.00     0.030 A 
HETATM    4  C   UNL     1       6.974  32.914  63.807  1.00  0.00     0.063 A 
HETATM    5  N   UNL     1       6.655  33.532  64.983  1.00  0.00    -0.277 N 
HETATM    6  H   UNL     1       7.245  33.636  65.801  1.00  0.00     0.189 HD
HETATM    7  N   UNL     1       5.419  34.055  65.021  1.00  0.00    -0.168 NA
HETATM    8  C   UNL     1       4.903  33.751  63.808  1.00  0.00     0.156 A 
HETATM    9  C   UNL     1       8.143  32.282  63.386  1.00  0.00     0.034 A 
HETATM   10  C   UNL     1       8.143  31.745  62.093  1.00  0.00     0.032 A 
ENDROOT
BRANCH   1  11
HETATM   11  N   UNL     1       7.147  31.237  59.980  1.00  0.00    -0.327 N 
HETATM   12  C   UNL     1       8.077  31.535  59.002  1.00  0.00     0.222 C 
HETATM   13  O   UNL     1       8.987  32.354  59.092  1.00  0.00    -0.273 OA
HETATM   14  H   UNL     1       6.439  30.558  59.745  1.00  0.00     0.169 HD
BRANCH  12  15
HETATM   15  C   UNL     1       7.955  30.674  57.746  1.00  0.00     0.113 C 
BRANCH  15  16
HETATM   16  C   UNL     1       8.629  29.287  57.823  1.00  0.00     0.030 C 
BRANCH  16  17
HETATM   17  C   UNL     1       9.938  29.171  56.981  1.00  0.00    -0.014 C 
HETATM   18  C   UNL     1      11.033  30.096  57.531  1.00  0.00     0.010 C 
HETATM   19  C   UNL     1       9.765  29.435  55.482  1.00  0.00     0.010 C 
ENDBRANCH  16  17
BRANCH  16  20
HETATM   20  C   UNL     1       7.680  28.127  57.541  1.00  0.00    -0.053 A 
HETATM   21  C   UNL     1       8.108  26.793  57.520  1.00  0.00     0.007 A 
HETATM   22  C   UNL     1       7.207  25.759  57.253  1.00  0.00     0.001 A 
HETATM   23  C   UNL     1       5.869  26.043  56.998  1.00  0.00     0.000 A 
HETATM   24  C   UNL     1       5.426  27.362  57.015  1.00  0.00     0.001 A 
HETATM   25  C   UNL     1       6.323  28.396  57.290  1.00  0.00     0.007 A 
ENDBRANCH  16  20
ENDBRANCH  15  16
ENDBRANCH  12  15
ENDBRANCH   1  11
BRANCH   8  26
HETATM   26  C   UNL     1       3.542  34.170  63.439  1.00  0.00     0.270 C 
HETATM   27  N   UNL     1       3.502  35.173  62.509  1.00  0.00    -0.365 N 
HETATM   28  H   UNL     1       4.377  35.531  62.145  1.00  0.00     0.159 HD
HETATM   29  H   UNL     1       2.613  35.512  62.178  1.00  0.00     0.159 HD
HETATM   30  O   UNL     1       2.513  33.685  63.893  1.00  0.00    -0.266 OA
ENDBRANCH   8  26
TORSDOF 6
ENDMDL
