MODEL 1
REMARK VINA RESULT:      -8.4      0.000      0.000
REMARK  7 active torsions:
REMARK  status: ('A' for Active; 'I' for Inactive)
REMARK    1  A    between atoms: C_4  and  C_5 
REMARK    2  A    between atoms: C_5  and  O_6 
REMARK    3  A    between atoms: C_5  and  C_7 
REMARK    4  A    between atoms: C_7  and  N_8 
REMARK       I    between atoms: N_8  and  C_9 
REMARK    5  A    between atoms: N_8  and  C_20 
REMARK    6  A    between atoms: C_9  and  C_10 
REMARK    7  A    between atoms: C_14  and  C_15 
ROOT
HETATM    1  N   UNL     1       8.211  27.364  56.653  1.00  0.00    -0.339 N 
HETATM    2  C   UNL     1       8.008  26.089  57.231  1.00  0.00     0.274 C 
HETATM    3  O   UNL     1       7.996  25.948  58.458  1.00  0.00    -0.266 OA
ENDROOT
BRANCH   1   4
HETATM    4  C   UNL     1       8.082  27.648  55.205  1.00  0.00     0.163 C 
BRANCH   4   5
HETATM    5  C   UNL     1       6.625  27.782  54.699  1.00  0.00     0.169 C 
BRANCH   5   6
HETATM    6  C   UNL     1       6.287  26.682  53.712  1.00  0.00    -0.028 A 
HETATM    7  C   UNL     1       7.261  26.150  52.852  1.00  0.00     0.010 A 
HETATM    8  C   UNL     1       6.944  25.119  51.968  1.00  0.00     0.001 A 
HETATM    9  C   UNL     1       5.652  24.599  51.936  1.00  0.00     0.000 A 
HETATM   10  C   UNL     1       4.675  25.112  52.787  1.00  0.00     0.001 A 
HETATM   11  C   UNL     1       4.991  26.146  53.671  1.00  0.00     0.010 A 
ENDBRANCH   5   6
BRANCH   5  12
HETATM   12  O   UNL     1       6.348  29.050  54.106  1.00  0.00    -0.389 OA
HETATM   13  H   UNL     1       6.584  28.979  53.155  1.00  0.00     0.210 HD
ENDBRANCH   5  12
ENDBRANCH   4   5
ENDBRANCH   1   4
BRANCH   1  14
HETATM   14  C   UNL     1       8.611  28.447  57.583  1.00  0.00     0.087 C 
HETATM   15  C   UNL     1       7.462  29.339  58.087  1.00  0.00     0.025 C 
HETATM   16  C   UNL     1       7.962  30.369  59.098  1.00  0.00     0.002 C 
HETATM   17  C   UNL     1       9.087  31.220  58.516  1.00  0.00     0.000 C 
HETATM   18  C   UNL     1      10.233  30.358  57.994  1.00  0.00     0.002 C 
HETATM   19  C   UNL     1       9.748  29.305  56.997  1.00  0.00     0.025 C 
ENDBRANCH   1  14
BRANCH   2  20
HETATM   20  C   UNL     1       7.774  24.902  56.380  1.00  0.00     0.146 A 
HETATM   21  N   UNL     1       6.563  24.355  56.136  1.00  0.00    -0.169 NA
HETATM   22  N   UNL     1       6.821  23.337  55.291  1.00  0.00    -0.281 N 
HETATM   23  H   UNL     1       6.047  22.767  54.967  1.00  0.00     0.189 HD
HETATM   24  C   UNL     1       8.137  23.215  54.970  1.00  0.00     0.034 A 
HETATM   25  C   UNL     1       8.784  24.227  55.633  1.00  0.00     0.066 A 
BRANCH  24  26
HETATM   26  C   UNL     1       8.786  22.191  54.067  1.00  0.00     0.037 A 
HETATM   27  C   UNL     1       8.484  20.726  54.300  1.00  0.00     0.011 A 
HETATM   28  C   UNL     1       7.920  21.411  53.103  1.00  0.00     0.011 A 
ENDBRANCH  24  26
ENDBRANCH   2  20
TORSDOF 7
ENDMDL
MODEL 2
REMARK VINA RESULT:      -8.2      1.696      6.198
REMARK  7 active torsions:
REMARK  status: ('A' for Active; 'I' for Inactive)
REMARK    1  A    between atoms: C_4  and  C_5 
REMARK    2  A    between atoms: C_5  and  O_6 
REMARK    3  A    between atoms: C_5  and  C_7 
REMARK    4  A    between atoms: C_7  and  N_8 
REMARK       I    between atoms: N_8  and  C_9 
REMARK    5  A    between atoms: N_8  and  C_20 
REMARK    6  A    between atoms: C_9  and  C_10 
REMARK    7  A    between atoms: C_14  and  C_15 
ROOT
HETATM    1  N   UNL     1       7.924  24.709  55.195  1.00  0.00    -0.339 N 
HETATM    2  C   UNL     1       8.163  25.185  56.506  1.00  0.00     0.274 C 
HETATM    3  O   UNL     1       8.795  24.504  57.319  1.00  0.00    -0.266 OA
ENDROOT
BRANCH   1   4
HETATM    4  C   UNL     1       7.317  25.521  54.116  1.00  0.00     0.163 C 
BRANCH   4   5
HETATM    5  C   UNL     1       5.816  25.237  53.859  1.00  0.00     0.169 C 
BRANCH   5   6
HETATM    6  C   UNL     1       5.289  26.082  52.716  1.00  0.00    -0.028 A 
HETATM    7  C   UNL     1       4.669  27.319  52.950  1.00  0.00     0.010 A 
HETATM    8  C   UNL     1       4.214  28.100  51.887  1.00  0.00     0.001 A 
HETATM    9  C   UNL     1       4.379  27.659  50.575  1.00  0.00     0.000 A 
HETATM   10  C   UNL     1       4.998  26.436  50.327  1.00  0.00     0.001 A 
HETATM   11  C   UNL     1       5.452  25.652  51.390  1.00  0.00     0.010 A 
ENDBRANCH   5   6
BRANCH   5  12
HETATM   12  O   UNL     1       4.999  25.441  55.012  1.00  0.00    -0.389 OA
HETATM   13  H   UNL     1       4.082  25.583  54.692  1.00  0.00     0.210 HD
ENDBRANCH   5  12
ENDBRANCH   4   5
ENDBRANCH   1   4
BRANCH   1  14
HETATM   14  C   UNL     1       8.284  23.294  54.939  1.00  0.00     0.087 C 
HETATM   15  C   UNL     1       8.372  22.897  53.454  1.00  0.00     0.025 C 
HETATM   16  C   UNL     1       8.826  21.448  53.293  1.00  0.00     0.002 C 
HETATM   17  C   UNL     1       7.913  20.490  54.052  1.00  0.00     0.000 C 
HETATM   18  C   UNL     1       7.797  20.872  55.525  1.00  0.00     0.002 C 
HETATM   19  C   UNL     1       7.365  22.326  55.707  1.00  0.00     0.025 C 
ENDBRANCH   1  14
BRANCH   2  20
HETATM   20  C   UNL     1       7.686  26.523  56.922  1.00  0.00     0.146 A 
HETATM   21  N   UNL     1       6.398  26.837  57.178  1.00  0.00    -0.169 NA
HETATM   22  N   UNL     1       6.438  28.129  57.557  1.00  0.00    -0.281 N 
HETATM   23  H   UNL     1       5.569  28.593  57.799  1.00  0.00     0.189 HD
HETATM   24  C   UNL     1       7.693  28.654  57.570  1.00  0.00     0.034 A 
HETATM   25  C   UNL     1       8.532  27.638  57.192  1.00  0.00     0.066 A 
BRANCH  24  26
HETATM   26  C   UNL     1       8.111  30.063  57.928  1.00  0.00     0.037 A 
HETATM   27  C   UNL     1       8.413  30.381  59.377  1.00  0.00     0.011 A 
HETATM   28  C   UNL     1       9.530  30.310  58.393  1.00  0.00     0.011 A 
ENDBRANCH  24  26
ENDBRANCH   2  20
TORSDOF 7
ENDMDL
MODEL 3
REMARK VINA RESULT:      -8.2      2.093      7.067
REMARK  7 active torsions:
REMARK  status: ('A' for Active; 'I' for Inactive)
REMARK    1  A    between atoms: C_4  and  C_5 
REMARK    2  A    between atoms: C_5  and  O_6 
REMARK    3  A    between atoms: C_5  and  C_7 
REMARK    4  A    between atoms: C_7  and  N_8 
REMARK       I    between atoms: N_8  and  C_9 
REMARK    5  A    between atoms: N_8  and  C_20 
REMARK    6  A    between atoms: C_9  and  C_10 
REMARK    7  A    between atoms: C_14  and  C_15 
ROOT
HETATM    1  N   UNL     1       7.035  24.702  54.889  1.00  0.00    -0.339 N 
HETATM    2  C   UNL     1       6.015  25.360  54.161  1.00  0.00     0.274 C 
HETATM    3  O   UNL     1       5.178  24.714  53.525  1.00  0.00    -0.266 OA
ENDROOT
BRANCH   1   4
HETATM    4  C   UNL     1       7.977  25.389  55.802  1.00  0.00     0.163 C 
BRANCH   4   5
HETATM    5  C   UNL     1       7.334  25.948  57.095  1.00  0.00     0.169 C 
BRANCH   5   6
HETATM    6  C   UNL     1       7.632  27.426  57.258  1.00  0.00    -0.028 A 
HETATM    7  C   UNL     1       6.635  28.331  57.653  1.00  0.00     0.010 A 
HETATM    8  C   UNL     1       6.931  29.684  57.827  1.00  0.00     0.001 A 
HETATM    9  C   UNL     1       8.227  30.149  57.614  1.00  0.00     0.000 A 
HETATM   10  C   UNL     1       9.229  29.261  57.227  1.00  0.00     0.001 A 
HETATM   11  C   UNL     1       8.934  27.908  57.051  1.00  0.00     0.010 A 
ENDBRANCH   5   6
BRANCH   5  12
HETATM   12  O   UNL     1       7.740  25.253  58.273  1.00  0.00    -0.389 OA
HETATM   13  H   UNL     1       7.297  25.692  59.032  1.00  0.00     0.210 HD
ENDBRANCH   5  12
ENDBRANCH   4   5
ENDBRANCH   1   4
BRANCH   1  14
HETATM   14  C   UNL     1       7.157  23.241  54.669  1.00  0.00     0.087 C 
HETATM   15  C   UNL     1       7.708  22.440  55.862  1.00  0.00     0.025 C 
HETATM   16  C   UNL     1       7.719  20.941  55.566  1.00  0.00     0.002 C 
HETATM   17  C   UNL     1       8.509  20.630  54.299  1.00  0.00     0.000 C 
HETATM   18  C   UNL     1       7.991  21.424  53.103  1.00  0.00     0.002 C 
HETATM   19  C   UNL     1       7.952  22.925  53.388  1.00  0.00     0.025 C 
ENDBRANCH   1  14
BRANCH   2  20
HETATM   20  C   UNL     1       5.912  26.836  54.172  1.00  0.00     0.146 A 
HETATM   21  N   UNL     1       6.890  27.680  53.777  1.00  0.00    -0.169 NA
HETATM   22  N   UNL     1       6.350  28.906  53.916  1.00  0.00    -0.281 N 
HETATM   23  H   UNL     1       6.912  29.716  53.679  1.00  0.00     0.189 HD
HETATM   24  C   UNL     1       5.067  28.888  54.368  1.00  0.00     0.034 A 
HETATM   25  C   UNL     1       4.737  27.565  54.520  1.00  0.00     0.066 A 
BRANCH  24  26
HETATM   26  C   UNL     1       4.160  30.065  54.650  1.00  0.00     0.037 A 
HETATM   27  C   UNL     1       3.782  30.359  56.086  1.00  0.00     0.011 A 
HETATM   28  C   UNL     1       4.724  31.268  55.374  1.00  0.00     0.011 A 
ENDBRANCH  24  26
ENDBRANCH   2  20
TORSDOF 7
ENDMDL
MODEL 4
REMARK VINA RESULT:      -8.0      2.825      5.249
REMARK  7 active torsions:
REMARK  status: ('A' for Active; 'I' for Inactive)
REMARK    1  A    between atoms: C_4  and  C_5 
REMARK    2  A    between atoms: C_5  and  O_6 
REMARK    3  A    between atoms: C_5  and  C_7 
REMARK    4  A    between atoms: C_7  and  N_8 
REMARK       I    between atoms: N_8  and  C_9 
REMARK    5  A    between atoms: N_8  and  C_20 
REMARK    6  A    between atoms: C_9  and  C_10 
REMARK    7  A    between atoms: C_14  and  C_15 
ROOT
HETATM    1  N   UNL     1       6.594  27.586  53.971  1.00  0.00    -0.339 N 
HETATM    2  C   UNL     1       5.709  28.058  52.972  1.00  0.00     0.274 C 
HETATM    3  O   UNL     1       5.294  29.220  52.998  1.00  0.00    -0.266 OA
ENDROOT
BRANCH   1   4
HETATM    4  C   UNL     1       7.261  26.264  53.929  1.00  0.00     0.163 C 
BRANCH   4   5
HETATM    5  C   UNL     1       6.629  25.191  54.849  1.00  0.00     0.169 C 
BRANCH   5   6
HETATM    6  C   UNL     1       7.143  23.806  54.505  1.00  0.00    -0.028 A 
HETATM    7  C   UNL     1       7.424  23.443  53.179  1.00  0.00     0.010 A 
HETATM    8  C   UNL     1       7.924  22.175  52.879  1.00  0.00     0.001 A 
HETATM    9  C   UNL     1       8.154  21.256  53.901  1.00  0.00     0.000 A 
HETATM   10  C   UNL     1       7.885  21.604  55.223  1.00  0.00     0.001 A 
HETATM   11  C   UNL     1       7.384  22.872  55.524  1.00  0.00     0.010 A 
ENDBRANCH   5   6
BRANCH   5  12
HETATM   12  O   UNL     1       5.202  25.187  54.814  1.00  0.00    -0.389 OA
HETATM   13  H   UNL     1       4.893  25.540  55.676  1.00  0.00     0.210 HD
ENDBRANCH   5  12
ENDBRANCH   4   5
ENDBRANCH   1   4
BRANCH   1  14
HETATM   14  C   UNL     1       6.810  28.483  55.131  1.00  0.00     0.087 C 
HETATM   15  C   UNL     1       8.233  28.469  55.716  1.00  0.00     0.025 C 
HETATM   16  C   UNL     1       8.377  29.482  56.851  1.00  0.00     0.002 C 
HETATM   17  C   UNL     1       7.343  29.241  57.946  1.00  0.00     0.000 C 
HETATM   18  C   UNL     1       5.923  29.235  57.388  1.00  0.00     0.002 C 
HETATM   19  C   UNL     1       5.765  28.243  56.236  1.00  0.00     0.025 C 
ENDBRANCH   1  14
BRANCH   2  20
HETATM   20  C   UNL     1       5.288  27.180  51.859  1.00  0.00     0.146 A 
HETATM   21  N   UNL     1       4.772  25.940  52.009  1.00  0.00    -0.169 NA
HETATM   22  N   UNL     1       4.499  25.538  50.752  1.00  0.00    -0.281 N 
HETATM   23  H   UNL     1       4.100  24.616  50.612  1.00  0.00     0.189 HD
HETATM   24  C   UNL     1       4.801  26.467  49.805  1.00  0.00     0.034 A 
HETATM   25  C   UNL     1       5.288  27.555  50.484  1.00  0.00     0.066 A 
BRANCH  24  26
HETATM   26  C   UNL     1       4.640  26.358  48.305  1.00  0.00     0.037 A 
HETATM   27  C   UNL     1       3.273  26.604  47.705  1.00  0.00     0.011 A 
HETATM   28  C   UNL     1       4.354  27.610  47.506  1.00  0.00     0.011 A 
ENDBRANCH  24  26
ENDBRANCH   2  20
TORSDOF 7
ENDMDL
MODEL 5
REMARK VINA RESULT:      -7.9      1.888      4.985
REMARK  7 active torsions:
REMARK  status: ('A' for Active; 'I' for Inactive)
REMARK    1  A    between atoms: C_4  and  C_5 
REMARK    2  A    between atoms: C_5  and  O_6 
REMARK    3  A    between atoms: C_5  and  C_7 
REMARK    4  A    between atoms: C_7  and  N_8 
REMARK       I    between atoms: N_8  and  C_9 
REMARK    5  A    between atoms: N_8  and  C_20 
REMARK    6  A    between atoms: C_9  and  C_10 
REMARK    7  A    between atoms: C_14  and  C_15 
ROOT
HETATM    1  N   UNL     1       6.230  26.817  55.070  1.00  0.00    -0.339 N 
HETATM    2  C   UNL     1       5.867  25.496  54.713  1.00  0.00     0.274 C 
HETATM    3  O   UNL     1       4.775  25.264  54.186  1.00  0.00    -0.266 OA
ENDROOT
BRANCH   1   4
HETATM    4  C   UNL     1       7.575  27.203  55.557  1.00  0.00     0.163 C 
BRANCH   4   5
HETATM    5  C   UNL     1       7.687  27.351  57.095  1.00  0.00     0.169 C 
BRANCH   5   6
HETATM    6  C   UNL     1       8.479  28.589  57.467  1.00  0.00    -0.028 A 
HETATM    7  C   UNL     1       8.021  29.479  58.451  1.00  0.00     0.010 A 
HETATM    8  C   UNL     1       8.774  30.599  58.804  1.00  0.00     0.001 A 
HETATM    9  C   UNL     1       9.998  30.841  58.185  1.00  0.00     0.000 A 
HETATM   10  C   UNL     1      10.470  29.964  57.210  1.00  0.00     0.001 A 
HETATM   11  C   UNL     1       9.716  28.843  56.855  1.00  0.00     0.010 A 
ENDBRANCH   5   6
BRANCH   5  12
HETATM   12  O   UNL     1       8.266  26.211  57.729  1.00  0.00    -0.389 OA
HETATM   13  H   UNL     1       7.533  25.717  58.155  1.00  0.00     0.210 HD
ENDBRANCH   5  12
ENDBRANCH   4   5
ENDBRANCH   1   4
BRANCH   1  14
HETATM   14  C   UNL     1       5.162  27.839  54.970  1.00  0.00     0.087 C 
HETATM   15  C   UNL     1       5.332  28.858  53.829  1.00  0.00     0.025 C 
HETATM   16  C   UNL     1       4.144  29.816  53.759  1.00  0.00     0.002 C 
HETATM   17  C   UNL     1       3.924  30.529  55.090  1.00  0.00     0.000 C 
HETATM   18  C   UNL     1       3.767  29.539  56.240  1.00  0.00     0.002 C 
HETATM   19  C   UNL     1       4.937  28.558  56.313  1.00  0.00     0.025 C 
ENDBRANCH   1  14
BRANCH   2  20
HETATM   20  C   UNL     1       6.799  24.370  54.937  1.00  0.00     0.146 A 
HETATM   21  N   UNL     1       7.182  23.915  56.149  1.00  0.00    -0.169 NA
HETATM   22  N   UNL     1       7.988  22.871  55.875  1.00  0.00    -0.281 N 
HETATM   23  H   UNL     1       8.408  22.364  56.647  1.00  0.00     0.189 HD
HETATM   24  C   UNL     1       8.129  22.626  54.544  1.00  0.00     0.034 A 
HETATM   25  C   UNL     1       7.353  23.557  53.904  1.00  0.00     0.066 A 
BRANCH  24  26
HETATM   26  C   UNL     1       8.958  21.552  53.876  1.00  0.00     0.037 A 
HETATM   27  C   UNL     1       8.696  20.105  54.238  1.00  0.00     0.011 A 
HETATM   28  C   UNL     1       8.287  20.612  52.898  1.00  0.00     0.011 A 
ENDBRANCH  24  26
ENDBRANCH   2  20
TORSDOF 7
ENDMDL
MODEL 6
REMARK VINA RESULT:      -7.8      2.277      6.725
REMARK  7 active torsions:
REMARK  status: ('A' for Active; 'I' for Inactive)
REMARK    1  A    between atoms: C_4  and  C_5 
REMARK    2  A    between atoms: C_5  and  O_6 
REMARK    3  A    between atoms: C_5  and  C_7 
REMARK    4  A    between atoms: C_7  and  N_8 
REMARK       I    between atoms: N_8  and  C_9 
REMARK    5  A    between atoms: N_8  and  C_20 
REMARK    6  A    between atoms: C_9  and  C_10 
REMARK    7  A    between atoms: C_14  and  C_15 
ROOT
HETATM    1  N   UNL     1       7.349  24.282  54.404  1.00  0.00    -0.339 N 
HETATM    2  C   UNL     1       7.678  25.167  53.349  1.00  0.00     0.274 C 
HETATM    3  O   UNL     1       8.396  24.794  52.416  1.00  0.00    -0.266 OA
ENDROOT
BRANCH   1   4
HETATM    4  C   UNL     1       6.372  24.594  55.472  1.00  0.00     0.163 C 
BRANCH   4   5
HETATM    5  C   UNL     1       6.948  25.406  56.659  1.00  0.00     0.169 C 
BRANCH   5   6
HETATM    6  C   UNL     1       6.263  26.753  56.782  1.00  0.00    -0.028 A 
HETATM    7  C   UNL     1       6.918  27.854  57.353  1.00  0.00     0.010 A 
HETATM    8  C   UNL     1       6.285  29.095  57.435  1.00  0.00     0.001 A 
HETATM    9  C   UNL     1       4.993  29.254  56.939  1.00  0.00     0.000 A 
HETATM   10  C   UNL     1       4.331  28.171  56.364  1.00  0.00     0.001 A 
HETATM   11  C   UNL     1       4.962  26.928  56.283  1.00  0.00     0.010 A 
ENDBRANCH   5   6
BRANCH   5  12
HETATM   12  O   UNL     1       8.360  25.601  56.575  1.00  0.00    -0.389 OA
HETATM   13  H   UNL     1       8.644  25.268  55.696  1.00  0.00     0.210 HD
ENDBRANCH   5  12
ENDBRANCH   4   5
ENDBRANCH   1   4
BRANCH   1  14
HETATM   14  C   UNL     1       8.076  22.991  54.425  1.00  0.00     0.087 C 
HETATM   15  C   UNL     1       7.711  22.012  53.294  1.00  0.00     0.025 C 
HETATM   16  C   UNL     1       8.567  20.749  53.355  1.00  0.00     0.002 C 
HETATM   17  C   UNL     1       8.456  20.065  54.715  1.00  0.00     0.000 C 
HETATM   18  C   UNL     1       8.799  21.020  55.854  1.00  0.00     0.002 C 
HETATM   19  C   UNL     1       7.967  22.301  55.798  1.00  0.00     0.025 C 
ENDBRANCH   1  14
BRANCH   2  20
HETATM   20  C   UNL     1       7.144  26.546  53.325  1.00  0.00     0.146 A 
HETATM   21  N   UNL     1       7.750  27.617  53.881  1.00  0.00    -0.169 NA
HETATM   22  N   UNL     1       6.940  28.651  53.583  1.00  0.00    -0.281 N 
HETATM   23  H   UNL     1       7.194  29.578  53.908  1.00  0.00     0.189 HD
HETATM   24  C   UNL     1       5.850  28.296  52.850  1.00  0.00     0.034 A 
HETATM   25  C   UNL     1       5.960  26.946  52.638  1.00  0.00     0.066 A 
BRANCH  24  26
HETATM   26  C   UNL     1       4.733  29.184  52.349  1.00  0.00     0.037 A 
HETATM   27  C   UNL     1       3.350  29.008  52.940  1.00  0.00     0.011 A 
HETATM   28  C   UNL     1       4.146  30.220  53.283  1.00  0.00     0.011 A 
ENDBRANCH  24  26
ENDBRANCH   2  20
TORSDOF 7
ENDMDL
MODEL 7
REMARK VINA RESULT:      -7.8      2.453      6.342
REMARK  7 active torsions:
REMARK  status: ('A' for Active; 'I' for Inactive)
REMARK    1  A    between atoms: C_4  and  C_5 
REMARK    2  A    between atoms: C_5  and  O_6 
REMARK    3  A    between atoms: C_5  and  C_7 
REMARK    4  A    between atoms: C_7  and  N_8 
REMARK       I    between atoms: N_8  and  C_9 
REMARK    5  A    between atoms: N_8  and  C_20 
REMARK    6  A    between atoms: C_9  and  C_10 
REMARK    7  A    between atoms: C_14  and  C_15 
ROOT
HETATM    1  N   UNL     1       7.050  24.075  54.823  1.00  0.00    -0.339 N 
HETATM    2  C   UNL     1       7.146  24.711  56.084  1.00  0.00     0.274 C 
HETATM    3  O   UNL     1       8.014  24.375  56.894  1.00  0.00    -0.266 OA
ENDROOT
BRANCH   1   4
HETATM    4  C   UNL     1       6.147  24.521  53.736  1.00  0.00     0.163 C 
BRANCH   4   5
HETATM    5  C   UNL     1       6.713  25.658  52.851  1.00  0.00     0.169 C 
BRANCH   5   6
HETATM    6  C   UNL     1       5.629  26.652  52.481  1.00  0.00    -0.028 A 
HETATM    7  C   UNL     1       4.717  27.124  53.438  1.00  0.00     0.010 A 
HETATM    8  C   UNL     1       3.742  28.060  53.091  1.00  0.00     0.001 A 
HETATM    9  C   UNL     1       3.670  28.542  51.785  1.00  0.00     0.000 A 
HETATM   10  C   UNL     1       4.573  28.087  50.826  1.00  0.00     0.001 A 
HETATM   11  C   UNL     1       5.547  27.150  51.171  1.00  0.00     0.010 A 
ENDBRANCH   5   6
BRANCH   5  12
HETATM   12  O   UNL     1       7.345  25.185  51.661  1.00  0.00    -0.389 OA
HETATM   13  H   UNL     1       6.630  24.894  51.054  1.00  0.00     0.210 HD
ENDBRANCH   5  12
ENDBRANCH   4   5
ENDBRANCH   1   4
BRANCH   1  14
HETATM   14  C   UNL     1       7.895  22.873  54.631  1.00  0.00     0.087 C 
HETATM   15  C   UNL     1       7.901  22.294  53.205  1.00  0.00     0.025 C 
HETATM   16  C   UNL     1       8.860  21.110  53.091  1.00  0.00     0.002 C 
HETATM   17  C   UNL     1       8.529  20.025  54.110  1.00  0.00     0.000 C 
HETATM   18  C   UNL     1       8.502  20.577  55.532  1.00  0.00     0.002 C 
HETATM   19  C   UNL     1       7.564  21.777  55.662  1.00  0.00     0.025 C 
ENDBRANCH   1  14
BRANCH   2  20
HETATM   20  C   UNL     1       6.227  25.813  56.445  1.00  0.00     0.146 A 
HETATM   21  N   UNL     1       4.941  25.651  56.824  1.00  0.00    -0.169 NA
HETATM   22  N   UNL     1       4.512  26.900  57.093  1.00  0.00    -0.281 N 
HETATM   23  H   UNL     1       3.553  27.030  57.397  1.00  0.00     0.189 HD
HETATM   24  C   UNL     1       5.467  27.853  56.918  1.00  0.00     0.034 A 
HETATM   25  C   UNL     1       6.600  27.187  56.526  1.00  0.00     0.066 A 
BRANCH  24  26
HETATM   26  C   UNL     1       5.340  29.347  57.114  1.00  0.00     0.037 A 
HETATM   27  C   UNL     1       5.062  30.214  55.904  1.00  0.00     0.011 A 
HETATM   28  C   UNL     1       3.990  30.000  56.916  1.00  0.00     0.011 A 
ENDBRANCH  24  26
ENDBRANCH   2  20
TORSDOF 7
ENDMDL
MODEL 8
REMARK VINA RESULT:      -7.5      2.535      5.517
REMARK  7 active torsions:
REMARK  status: ('A' for Active; 'I' for Inactive)
REMARK    1  A    between atoms: C_4  and  C_5 
REMARK    2  A    between atoms: C_5  and  O_6 
REMARK    3  A    between atoms: C_5  and  C_7 
REMARK    4  A    between atoms: C_7  and  N_8 
REMARK       I    between atoms: N_8  and  C_9 
REMARK    5  A    between atoms: N_8  and  C_20 
REMARK    6  A    between atoms: C_9  and  C_10 
REMARK    7  A    between atoms: C_14  and  C_15 
ROOT
HETATM    1  N   UNL     1       5.830  27.075  52.603  1.00  0.00    -0.339 N 
HETATM    2  C   UNL     1       5.654  25.687  52.386  1.00  0.00     0.274 C 
HETATM    3  O   UNL     1       4.935  25.279  51.470  1.00  0.00    -0.266 OA
ENDROOT
BRANCH   1   4
HETATM    4  C   UNL     1       6.794  27.647  53.571  1.00  0.00     0.163 C 
BRANCH   4   5
HETATM    5  C   UNL     1       6.160  28.166  54.885  1.00  0.00     0.169 C 
BRANCH   5   6
HETATM    6  C   UNL     1       7.227  28.614  55.865  1.00  0.00    -0.028 A 
HETATM    7  C   UNL     1       8.515  28.962  55.431  1.00  0.00     0.010 A 
HETATM    8  C   UNL     1       9.479  29.400  56.340  1.00  0.00     0.001 A 
HETATM    9  C   UNL     1       9.166  29.501  57.695  1.00  0.00     0.000 A 
HETATM   10  C   UNL     1       7.889  29.165  58.140  1.00  0.00     0.001 A 
HETATM   11  C   UNL     1       6.925  28.725  57.231  1.00  0.00     0.010 A 
ENDBRANCH   5   6
BRANCH   5  12
HETATM   12  O   UNL     1       5.310  27.210  55.517  1.00  0.00    -0.389 OA
HETATM   13  H   UNL     1       5.890  26.500  55.870  1.00  0.00     0.210 HD
ENDBRANCH   5  12
ENDBRANCH   4   5
ENDBRANCH   1   4
BRANCH   1  14
HETATM   14  C   UNL     1       4.951  27.975  51.820  1.00  0.00     0.087 C 
HETATM   15  C   UNL     1       5.605  29.285  51.347  1.00  0.00     0.025 C 
HETATM   16  C   UNL     1       4.648  30.104  50.483  1.00  0.00     0.002 C 
HETATM   17  C   UNL     1       3.342  30.391  51.219  1.00  0.00     0.000 C 
HETATM   18  C   UNL     1       2.680  29.108  51.712  1.00  0.00     0.002 C 
HETATM   19  C   UNL     1       3.631  28.263  52.560  1.00  0.00     0.025 C 
ENDBRANCH   1  14
BRANCH   2  20
HETATM   20  C   UNL     1       6.354  24.696  53.233  1.00  0.00     0.146 A 
HETATM   21  N   UNL     1       6.194  24.574  54.568  1.00  0.00    -0.169 NA
HETATM   22  N   UNL     1       6.981  23.534  54.905  1.00  0.00    -0.281 N 
HETATM   23  H   UNL     1       7.027  23.253  55.879  1.00  0.00     0.189 HD
HETATM   24  C   UNL     1       7.627  22.974  53.847  1.00  0.00     0.034 A 
HETATM   25  C   UNL     1       7.226  23.681  52.742  1.00  0.00     0.066 A 
BRANCH  24  26
HETATM   26  C   UNL     1       8.591  21.809  53.851  1.00  0.00     0.037 A 
HETATM   27  C   UNL     1       8.112  20.476  54.385  1.00  0.00     0.011 A 
HETATM   28  C   UNL     1       8.335  20.643  52.922  1.00  0.00     0.011 A 
ENDBRANCH  24  26
ENDBRANCH   2  20
TORSDOF 7
ENDMDL
MODEL 9
REMARK VINA RESULT:      -7.4      2.999      6.920
REMARK  7 active torsions:
REMARK  status: ('A' for Active; 'I' for Inactive)
REMARK    1  A    between atoms: C_4  and  C_5 
REMARK    2  A    between atoms: C_5  and  O_6 
REMARK    3  A    between atoms: C_5  and  C_7 
REMARK    4  A    between atoms: C_7  and  N_8 
REMARK       I    between atoms: N_8  and  C_9 
REMARK    5  A    between atoms: N_8  and  C_20 
REMARK    6  A    between atoms: C_9  and  C_10 
REMARK    7  A    between atoms: C_14  and  C_15 
ROOT
HETATM    1  N   UNL     1       6.364  25.670  53.828  1.00  0.00    -0.339 N 
HETATM    2  C   UNL     1       5.124  25.784  53.155  1.00  0.00     0.274 C 
HETATM    3  O   UNL     1       4.410  24.793  52.978  1.00  0.00    -0.266 OA
ENDROOT
BRANCH   1   4
HETATM    4  C   UNL     1       7.204  26.826  54.220  1.00  0.00     0.163 C 
BRANCH   4   5
HETATM    5  C   UNL     1       6.622  27.686  55.369  1.00  0.00     0.169 C 
BRANCH   5   6
HETATM    6  C   UNL     1       7.720  28.436  56.098  1.00  0.00    -0.028 A 
HETATM    7  C   UNL     1       8.847  28.921  55.416  1.00  0.00     0.010 A 
HETATM    8  C   UNL     1       9.836  29.635  56.094  1.00  0.00     0.001 A 
HETATM    9  C   UNL     1       9.710  29.879  57.460  1.00  0.00     0.000 A 
HETATM   10  C   UNL     1       8.594  29.409  58.149  1.00  0.00     0.001 A 
HETATM   11  C   UNL     1       7.604  28.693  57.473  1.00  0.00     0.010 A 
ENDBRANCH   5   6
BRANCH   5  12
HETATM   12  O   UNL     1       5.863  26.929  56.311  1.00  0.00    -0.389 OA
HETATM   13  H   UNL     1       6.036  27.317  57.197  1.00  0.00     0.210 HD
ENDBRANCH   5  12
ENDBRANCH   4   5
ENDBRANCH   1   4
BRANCH   1  14
HETATM   14  C   UNL     1       6.833  24.292  54.106  1.00  0.00     0.087 C 
HETATM   15  C   UNL     1       7.611  24.115  55.422  1.00  0.00     0.025 C 
HETATM   16  C   UNL     1       7.979  22.651  55.657  1.00  0.00     0.002 C 
HETATM   17  C   UNL     1       8.771  22.081  54.483  1.00  0.00     0.000 C 
HETATM   18  C   UNL     1       8.027  22.258  53.163  1.00  0.00     0.002 C 
HETATM   19  C   UNL     1       7.631  23.714  52.921  1.00  0.00     0.025 C 
ENDBRANCH   1  14
BRANCH   2  20
HETATM   20  C   UNL     1       4.643  27.098  52.676  1.00  0.00     0.146 A 
HETATM   21  N   UNL     1       3.797  27.903  53.355  1.00  0.00    -0.169 NA
HETATM   22  N   UNL     1       3.671  28.992  52.572  1.00  0.00    -0.281 N 
HETATM   23  H   UNL     1       3.068  29.747  52.881  1.00  0.00     0.189 HD
HETATM   24  C   UNL     1       4.408  28.930  51.430  1.00  0.00     0.034 A 
HETATM   25  C   UNL     1       5.073  27.732  51.473  1.00  0.00     0.066 A 
BRANCH  24  26
HETATM   26  C   UNL     1       4.502  29.957  50.324  1.00  0.00     0.037 A 
HETATM   27  C   UNL     1       5.393  31.163  50.529  1.00  0.00     0.011 A 
HETATM   28  C   UNL     1       5.804  30.102  49.568  1.00  0.00     0.011 A 
ENDBRANCH  24  26
ENDBRANCH   2  20
TORSDOF 7
ENDMDL
MODEL 10
REMARK VINA RESULT:      -7.4      6.426     10.594
REMARK  7 active torsions:
REMARK  status: ('A' for Active; 'I' for Inactive)
REMARK    1  A    between atoms: C_4  and  C_5 
REMARK    2  A    between atoms: C_5  and  O_6 
REMARK    3  A    between atoms: C_5  and  C_7 
REMARK    4  A    between atoms: C_7  and  N_8 
REMARK       I    between atoms: N_8  and  C_9 
REMARK    5  A    between atoms: N_8  and  C_20 
REMARK    6  A    between atoms: C_9  and  C_10 
REMARK    7  A    between atoms: C_14  and  C_15 
ROOT
HETATM    1  N   UNL     1       4.888  33.825  60.842  1.00  0.00    -0.339 N 
HETATM    2  C   UNL     1       4.311  33.601  59.570  1.00  0.00     0.274 C 
HETATM    3  O   UNL     1       3.869  34.542  58.904  1.00  0.00    -0.266 OA
ENDROOT
BRANCH   1   4
HETATM    4  C   UNL     1       5.581  32.782  61.633  1.00  0.00     0.163 C 
BRANCH   4   5
HETATM    5  C   UNL     1       4.826  32.327  62.906  1.00  0.00     0.169 C 
BRANCH   5   6
HETATM    6  C   UNL     1       5.388  33.000  64.144  1.00  0.00    -0.028 A 
HETATM    7  C   UNL     1       4.544  33.515  65.140  1.00  0.00     0.010 A 
HETATM    8  C   UNL     1       5.075  34.106  66.287  1.00  0.00     0.001 A 
HETATM    9  C   UNL     1       6.456  34.184  66.457  1.00  0.00     0.000 A 
HETATM   10  C   UNL     1       7.307  33.672  65.479  1.00  0.00     0.001 A 
HETATM   11  C   UNL     1       6.777  33.082  64.330  1.00  0.00     0.010 A 
ENDBRANCH   5   6
BRANCH   5  12
HETATM   12  O   UNL     1       4.836  30.912  63.093  1.00  0.00    -0.389 OA
HETATM   13  H   UNL     1       4.275  30.722  63.876  1.00  0.00     0.210 HD
ENDBRANCH   5  12
ENDBRANCH   4   5
ENDBRANCH   1   4
BRANCH   1  14
HETATM   14  C   UNL     1       4.737  35.191  61.398  1.00  0.00     0.087 C 
HETATM   15  C   UNL     1       5.937  35.706  62.212  1.00  0.00     0.025 C 
HETATM   16  C   UNL     1       5.719  37.146  62.672  1.00  0.00     0.002 C 
HETATM   17  C   UNL     1       4.427  37.286  63.472  1.00  0.00     0.000 C 
HETATM   18  C   UNL     1       3.223  36.767  62.692  1.00  0.00     0.002 C 
HETATM   19  C   UNL     1       3.432  35.334  62.204  1.00  0.00     0.025 C 
ENDBRANCH   1  14
BRANCH   2  20
HETATM   20  C   UNL     1       4.252  32.239  58.996  1.00  0.00     0.146 A 
HETATM   21  N   UNL     1       3.268  31.345  59.234  1.00  0.00    -0.169 NA
HETATM   22  N   UNL     1       3.600  30.276  58.483  1.00  0.00    -0.281 N 
HETATM   23  H   UNL     1       2.997  29.460  58.504  1.00  0.00     0.189 HD
HETATM   24  C   UNL     1       4.742  30.448  57.765  1.00  0.00     0.034 A 
HETATM   25  C   UNL     1       5.180  31.716  58.048  1.00  0.00     0.066 A 
BRANCH  24  26
HETATM   26  C   UNL     1       5.415  29.466  56.833  1.00  0.00     0.037 A 
HETATM   27  C   UNL     1       6.501  28.568  57.388  1.00  0.00     0.011 A 
HETATM   28  C   UNL     1       5.177  27.985  57.033  1.00  0.00     0.011 A 
ENDBRANCH  24  26
ENDBRANCH   2  20
TORSDOF 7
ENDMDL
