MODEL 1
REMARK VINA RESULT:      -9.9      0.000      0.000
REMARK  7 active torsions:
REMARK  status: ('A' for Active; 'I' for Inactive)
REMARK    1  A    between atoms: S_2  and  C_3 
REMARK    2  A    between atoms: C_3  and  C_4 
REMARK    3  A    between atoms: C_4  and  C_5 
REMARK    4  A    between atoms: C_5  and  N_6 
REMARK    5  A    between atoms: C_5  and  C_26 
REMARK       I    between atoms: N_6  and  C_7 
REMARK    6  A    between atoms: C_7  and  C_8 
REMARK    7  A    between atoms: C_8  and  N_9 
ROOT
HETATM    1  N   UNL     1       7.301  29.684  58.562  1.00  0.00    -0.348 N 
HETATM    2  C   UNL     1       7.315  28.400  58.059  1.00  0.00     0.236 C 
HETATM    3  O   UNL     1       8.275  27.645  58.139  1.00  0.00    -0.272 OA
HETATM    4  H   UNL     1       6.622  30.304  58.128  1.00  0.00     0.163 HD
ENDROOT
BRANCH   2   5
HETATM    5  C   UNL     1       6.021  28.042  57.324  1.00  0.00     0.239 C 
BRANCH   5   6
HETATM    6  N   UNL     1       6.320  27.291  56.122  1.00  0.00    -0.259 N 
HETATM    7  C   UNL     1       6.830  27.832  54.981  1.00  0.00     0.326 C 
HETATM    8  O   UNL     1       7.134  29.002  54.796  1.00  0.00    -0.247 OA
HETATM    9  N   UNL     1       6.948  26.843  54.039  1.00  0.00    -0.320 N 
HETATM   10  C   UNL     1       6.247  25.635  54.429  1.00  0.00     0.144 C 
HETATM   11  H   UNL     1       7.298  27.028  53.109  1.00  0.00     0.165 HD
HETATM   12  C   UNL     1       7.124  24.410  54.254  1.00  0.00    -0.014 A 
HETATM   13  C   UNL     1       4.915  25.536  53.659  1.00  0.00     0.047 C 
HETATM   14  C   UNL     1       5.917  26.000  55.896  1.00  0.00     0.261 C 
HETATM   15  C   UNL     1       6.914  23.521  53.176  1.00  0.00    -0.049 A 
HETATM   16  C   UNL     1       8.183  24.148  55.144  1.00  0.00     0.011 A 
HETATM   17  C   UNL     1       7.729  22.386  53.039  1.00  0.00     0.007 A 
HETATM   18  C   UNL     1       5.780  23.700  52.193  1.00  0.00     0.039 C 
HETATM   19  C   UNL     1       8.758  22.135  53.944  1.00  0.00     0.001 A 
HETATM   20  C   UNL     1       8.987  23.016  54.993  1.00  0.00     0.001 A 
HETATM   21  C   UNL     1       5.158  25.092  52.221  1.00  0.00     0.008 C 
HETATM   22  O   UNL     1       5.313  25.292  56.691  1.00  0.00    -0.270 OA
ENDBRANCH   5   6
ENDBRANCH   2   5
BRANCH   1  23
HETATM   23  C   UNL     1       8.458  30.306  59.189  1.00  0.00     0.155 C 
BRANCH  23  24
HETATM   24  C   UNL     1       9.170  31.279  58.234  1.00  0.00     0.043 C 
BRANCH  24  25
HETATM   25  C   UNL     1      10.693  31.200  58.367  1.00  0.00     0.076 C 
BRANCH  25  26
HETATM   26  S   UNL     1      11.339  29.836  57.346  1.00  0.00    -0.173 SA
HETATM   27  C   UNL     1      10.096  29.880  56.031  1.00  0.00     0.089 C 
ENDBRANCH  25  26
ENDBRANCH  24  25
ENDBRANCH  23  24
BRANCH  23  28
HETATM   28  C   UNL     1       7.978  31.011  60.431  1.00  0.00     0.128 A 
HETATM   29  N   UNL     1       8.718  31.377  61.460  1.00  0.00    -0.231 NA
HETATM   30  C   UNL     1       7.869  32.022  62.323  1.00  0.00     0.085 A 
HETATM   31  C   UNL     1       6.577  32.058  61.813  1.00  0.00     0.062 A 
HETATM   32  C   UNL     1       8.129  32.612  63.569  1.00  0.00     0.034 A 
HETATM   33  N   UNL     1       6.674  31.423  60.603  1.00  0.00    -0.341 N 
HETATM   34  C   UNL     1       5.503  32.647  62.483  1.00  0.00     0.032 A 
HETATM   35  H   UNL     1       5.919  31.283  59.945  1.00  0.00     0.167 HD
HETATM   36  C   UNL     1       5.781  33.227  63.726  1.00  0.00     0.002 A 
HETATM   37  C   UNL     1       7.072  33.214  64.261  1.00  0.00     0.002 A 
ENDBRANCH  23  28
ENDBRANCH   1  23
TORSDOF 7
ENDMDL
MODEL 2
REMARK VINA RESULT:      -9.7      2.974      9.745
REMARK  7 active torsions:
REMARK  status: ('A' for Active; 'I' for Inactive)
REMARK    1  A    between atoms: S_2  and  C_3 
REMARK    2  A    between atoms: C_3  and  C_4 
REMARK    3  A    between atoms: C_4  and  C_5 
REMARK    4  A    between atoms: C_5  and  N_6 
REMARK    5  A    between atoms: C_5  and  C_26 
REMARK       I    between atoms: N_6  and  C_7 
REMARK    6  A    between atoms: C_7  and  C_8 
REMARK    7  A    between atoms: C_8  and  N_9 
ROOT
HETATM    1  N   UNL     1       5.763  30.725  58.461  1.00  0.00    -0.348 N 
HETATM    2  C   UNL     1       5.268  31.942  58.041  1.00  0.00     0.236 C 
HETATM    3  O   UNL     1       5.914  32.754  57.391  1.00  0.00    -0.272 OA
HETATM    4  H   UNL     1       5.285  30.327  59.265  1.00  0.00     0.163 HD
ENDROOT
BRANCH   2   5
HETATM    5  C   UNL     1       3.844  32.201  58.536  1.00  0.00     0.239 C 
BRANCH   5   6
HETATM    6  N   UNL     1       3.827  32.302  59.981  1.00  0.00    -0.259 N 
HETATM    7  C   UNL     1       3.207  31.418  60.809  1.00  0.00     0.326 C 
HETATM    8  O   UNL     1       2.600  30.407  60.481  1.00  0.00    -0.247 OA
HETATM    9  N   UNL     1       3.360  31.843  62.102  1.00  0.00    -0.320 N 
HETATM   10  C   UNL     1       3.858  33.203  62.172  1.00  0.00     0.144 C 
HETATM   11  H   UNL     1       2.966  31.336  62.883  1.00  0.00     0.165 HD
HETATM   12  C   UNL     1       5.020  33.314  63.142  1.00  0.00    -0.014 A 
HETATM   13  C   UNL     1       2.701  34.163  62.508  1.00  0.00     0.047 C 
HETATM   14  C   UNL     1       4.226  33.410  60.683  1.00  0.00     0.261 C 
HETATM   15  C   UNL     1       4.843  33.903  64.414  1.00  0.00    -0.049 A 
HETATM   16  C   UNL     1       6.290  32.808  62.806  1.00  0.00     0.011 A 
HETATM   17  C   UNL     1       5.934  34.007  65.291  1.00  0.00     0.007 A 
HETATM   18  C   UNL     1       3.526  34.506  64.846  1.00  0.00     0.039 C 
HETATM   19  C   UNL     1       7.187  33.518  64.931  1.00  0.00     0.001 A 
HETATM   20  C   UNL     1       7.364  32.916  63.691  1.00  0.00     0.001 A 
HETATM   21  C   UNL     1       2.343  34.076  63.987  1.00  0.00     0.008 C 
HETATM   22  O   UNL     1       4.703  34.428  60.199  1.00  0.00    -0.270 OA
ENDBRANCH   5   6
ENDBRANCH   2   5
BRANCH   1  23
HETATM   23  C   UNL     1       7.136  30.301  58.230  1.00  0.00     0.155 C 
BRANCH  23  24
HETATM   24  C   UNL     1       7.999  30.451  59.495  1.00  0.00     0.043 C 
BRANCH  24  25
HETATM   25  C   UNL     1       8.431  31.902  59.725  1.00  0.00     0.076 C 
BRANCH  25  26
HETATM   26  S   UNL     1       9.777  31.966  60.953  1.00  0.00    -0.173 SA
HETATM   27  C   UNL     1       9.394  30.437  61.842  1.00  0.00     0.089 C 
ENDBRANCH  25  26
ENDBRANCH  24  25
ENDBRANCH  23  24
BRANCH  23  28
HETATM   28  C   UNL     1       7.098  28.870  57.762  1.00  0.00     0.128 A 
HETATM   29  N   UNL     1       7.947  27.916  58.090  1.00  0.00    -0.231 NA
HETATM   30  C   UNL     1       7.493  26.779  57.468  1.00  0.00     0.085 A 
HETATM   31  C   UNL     1       6.335  27.038  56.745  1.00  0.00     0.062 A 
HETATM   32  C   UNL     1       8.016  25.478  57.479  1.00  0.00     0.034 A 
HETATM   33  N   UNL     1       6.095  28.370  56.959  1.00  0.00    -0.341 N 
HETATM   34  C   UNL     1       5.657  26.067  56.007  1.00  0.00     0.032 A 
HETATM   35  H   UNL     1       5.313  28.898  56.593  1.00  0.00     0.167 HD
HETATM   36  C   UNL     1       6.196  24.775  56.026  1.00  0.00     0.002 A 
HETATM   37  C   UNL     1       7.354  24.481  56.752  1.00  0.00     0.002 A 
ENDBRANCH  23  28
ENDBRANCH   1  23
TORSDOF 7
ENDMDL
MODEL 3
REMARK VINA RESULT:      -9.7      2.402      9.757
REMARK  7 active torsions:
REMARK  status: ('A' for Active; 'I' for Inactive)
REMARK    1  A    between atoms: S_2  and  C_3 
REMARK    2  A    between atoms: C_3  and  C_4 
REMARK    3  A    between atoms: C_4  and  C_5 
REMARK    4  A    between atoms: C_5  and  N_6 
REMARK    5  A    between atoms: C_5  and  C_26 
REMARK       I    between atoms: N_6  and  C_7 
REMARK    6  A    between atoms: C_7  and  C_8 
REMARK    7  A    between atoms: C_8  and  N_9 
ROOT
HETATM    1  N   UNL     1       8.083  27.150  55.601  1.00  0.00    -0.348 N 
HETATM    2  C   UNL     1       8.179  28.470  55.991  1.00  0.00     0.236 C 
HETATM    3  O   UNL     1       7.355  29.329  55.705  1.00  0.00    -0.272 OA
HETATM    4  H   UNL     1       8.966  26.647  55.582  1.00  0.00     0.163 HD
ENDROOT
BRANCH   2   5
HETATM    5  C   UNL     1       9.467  28.764  56.762  1.00  0.00     0.239 C 
BRANCH   5   6
HETATM    6  N   UNL     1       9.247  29.833  57.715  1.00  0.00    -0.259 N 
HETATM    7  C   UNL     1      10.040  30.932  57.838  1.00  0.00     0.326 C 
HETATM    8  O   UNL     1      11.027  31.204  57.169  1.00  0.00    -0.247 OA
HETATM    9  N   UNL     1       9.561  31.709  58.860  1.00  0.00    -0.320 N 
HETATM   10  C   UNL     1       8.574  31.009  59.659  1.00  0.00     0.144 C 
HETATM   11  H   UNL     1      10.009  32.574  59.131  1.00  0.00     0.165 HD
HETATM   12  C   UNL     1       7.338  31.861  59.879  1.00  0.00    -0.014 A 
HETATM   13  C   UNL     1       9.216  30.531  60.976  1.00  0.00     0.047 C 
HETATM   14  C   UNL     1       8.362  29.767  58.760  1.00  0.00     0.261 C 
HETATM   15  C   UNL     1       7.100  32.477  61.128  1.00  0.00    -0.049 A 
HETATM   16  C   UNL     1       6.419  32.080  58.835  1.00  0.00     0.011 A 
HETATM   17  C   UNL     1       5.944  33.251  61.314  1.00  0.00     0.007 A 
HETATM   18  C   UNL     1       8.012  32.268  62.315  1.00  0.00     0.039 C 
HETATM   19  C   UNL     1       5.036  33.438  60.274  1.00  0.00     0.001 A 
HETATM   20  C   UNL     1       5.275  32.855  59.036  1.00  0.00     0.001 A 
HETATM   21  C   UNL     1       9.375  31.693  61.949  1.00  0.00     0.008 C 
HETATM   22  O   UNL     1       7.601  28.837  58.992  1.00  0.00    -0.270 OA
ENDBRANCH   5   6
ENDBRANCH   2   5
BRANCH   1  23
HETATM   23  C   UNL     1       7.017  26.648  54.748  1.00  0.00     0.155 C 
BRANCH  23  24
HETATM   24  C   UNL     1       6.992  27.362  53.385  1.00  0.00     0.043 C 
BRANCH  24  25
HETATM   25  C   UNL     1       5.609  27.931  53.061  1.00  0.00     0.076 C 
BRANCH  25  26
HETATM   26  S   UNL     1       5.331  27.911  51.260  1.00  0.00    -0.173 SA
HETATM   27  C   UNL     1       5.384  26.120  51.006  1.00  0.00     0.089 C 
ENDBRANCH  25  26
ENDBRANCH  24  25
ENDBRANCH  23  24
BRANCH  23  28
HETATM   28  C   UNL     1       7.226  25.165  54.584  1.00  0.00     0.128 A 
HETATM   29  N   UNL     1       7.430  24.523  53.450  1.00  0.00    -0.231 NA
HETATM   30  C   UNL     1       7.612  23.206  53.791  1.00  0.00     0.085 A 
HETATM   31  C   UNL     1       7.522  23.033  55.166  1.00  0.00     0.062 A 
HETATM   32  C   UNL     1       7.865  22.093  52.976  1.00  0.00     0.034 A 
HETATM   33  N   UNL     1       7.291  24.294  55.650  1.00  0.00    -0.341 N 
HETATM   34  C   UNL     1       7.660  21.795  55.795  1.00  0.00     0.032 A 
HETATM   35  H   UNL     1       7.189  24.545  56.625  1.00  0.00     0.167 HD
HETATM   36  C   UNL     1       7.909  20.694  54.966  1.00  0.00     0.002 A 
HETATM   37  C   UNL     1       8.013  20.838  53.580  1.00  0.00     0.002 A 
ENDBRANCH  23  28
ENDBRANCH   1  23
TORSDOF 7
ENDMDL
MODEL 4
REMARK VINA RESULT:      -9.6      2.456      3.309
REMARK  7 active torsions:
REMARK  status: ('A' for Active; 'I' for Inactive)
REMARK    1  A    between atoms: S_2  and  C_3 
REMARK    2  A    between atoms: C_3  and  C_4 
REMARK    3  A    between atoms: C_4  and  C_5 
REMARK    4  A    between atoms: C_5  and  N_6 
REMARK    5  A    between atoms: C_5  and  C_26 
REMARK       I    between atoms: N_6  and  C_7 
REMARK    6  A    between atoms: C_7  and  C_8 
REMARK    7  A    between atoms: C_8  and  N_9 
ROOT
HETATM    1  N   UNL     1       6.703  30.509  58.553  1.00  0.00    -0.348 N 
HETATM    2  C   UNL     1       8.049  30.473  58.251  1.00  0.00     0.236 C 
HETATM    3  O   UNL     1       8.753  31.469  58.147  1.00  0.00    -0.272 OA
HETATM    4  H   UNL     1       6.179  29.690  58.258  1.00  0.00     0.163 HD
ENDROOT
BRANCH   2   5
HETATM    5  C   UNL     1       8.555  29.053  57.989  1.00  0.00     0.239 C 
BRANCH   5   6
HETATM    6  N   UNL     1       8.177  28.625  56.657  1.00  0.00    -0.259 N 
HETATM    7  C   UNL     1       8.779  29.045  55.512  1.00  0.00     0.326 C 
HETATM    8  O   UNL     1       9.727  29.812  55.420  1.00  0.00    -0.247 OA
HETATM    9  N   UNL     1       8.141  28.472  54.443  1.00  0.00    -0.320 N 
HETATM   10  C   UNL     1       6.887  27.853  54.826  1.00  0.00     0.144 C 
HETATM   11  H   UNL     1       8.422  28.657  53.489  1.00  0.00     0.165 HD
HETATM   12  C   UNL     1       6.772  26.449  54.264  1.00  0.00    -0.014 A 
HETATM   13  C   UNL     1       5.713  28.764  54.415  1.00  0.00     0.047 C 
HETATM   14  C   UNL     1       7.029  27.934  56.365  1.00  0.00     0.261 C 
HETATM   15  C   UNL     1       5.929  26.181  53.162  1.00  0.00    -0.049 A 
HETATM   16  C   UNL     1       7.523  25.391  54.809  1.00  0.00     0.011 A 
HETATM   17  C   UNL     1       5.827  24.871  52.666  1.00  0.00     0.007 A 
HETATM   18  C   UNL     1       5.057  27.245  52.536  1.00  0.00     0.039 C 
HETATM   19  C   UNL     1       6.564  23.834  53.234  1.00  0.00     0.001 A 
HETATM   20  C   UNL     1       7.413  24.094  54.302  1.00  0.00     0.001 A 
HETATM   21  C   UNL     1       5.457  28.666  52.915  1.00  0.00     0.008 C 
HETATM   22  O   UNL     1       6.210  27.533  57.181  1.00  0.00    -0.270 OA
ENDBRANCH   5   6
ENDBRANCH   2   5
BRANCH   1  23
HETATM   23  C   UNL     1       5.958  31.748  58.717  1.00  0.00     0.155 C 
BRANCH  23  24
HETATM   24  C   UNL     1       4.448  31.536  58.511  1.00  0.00     0.043 C 
BRANCH  24  25
HETATM   25  C   UNL     1       4.158  30.401  57.526  1.00  0.00     0.076 C 
BRANCH  25  26
HETATM   26  S   UNL     1       3.092  31.001  56.175  1.00  0.00    -0.173 SA
HETATM   27  C   UNL     1       4.255  32.166  55.422  1.00  0.00     0.089 C 
ENDBRANCH  25  26
ENDBRANCH  24  25
ENDBRANCH  23  24
BRANCH  23  28
HETATM   28  C   UNL     1       6.251  32.276  60.097  1.00  0.00     0.128 A 
HETATM   29  N   UNL     1       5.644  33.282  60.697  1.00  0.00    -0.231 NA
HETATM   30  C   UNL     1       6.207  33.370  61.946  1.00  0.00     0.085 A 
HETATM   31  C   UNL     1       7.180  32.393  62.121  1.00  0.00     0.062 A 
HETATM   32  C   UNL     1       5.934  34.261  62.994  1.00  0.00     0.034 A 
HETATM   33  N   UNL     1       7.179  31.701  60.939  1.00  0.00    -0.341 N 
HETATM   34  C   UNL     1       7.921  32.251  63.295  1.00  0.00     0.032 A 
HETATM   35  H   UNL     1       7.759  30.901  60.721  1.00  0.00     0.167 HD
HETATM   36  C   UNL     1       7.638  33.151  64.329  1.00  0.00     0.002 A 
HETATM   37  C   UNL     1       6.660  34.138  64.186  1.00  0.00     0.002 A 
ENDBRANCH  23  28
ENDBRANCH   1  23
TORSDOF 7
ENDMDL
MODEL 5
REMARK VINA RESULT:      -9.5      3.888      6.009
REMARK  7 active torsions:
REMARK  status: ('A' for Active; 'I' for Inactive)
REMARK    1  A    between atoms: S_2  and  C_3 
REMARK    2  A    between atoms: C_3  and  C_4 
REMARK    3  A    between atoms: C_4  and  C_5 
REMARK    4  A    between atoms: C_5  and  N_6 
REMARK    5  A    between atoms: C_5  and  C_26 
REMARK       I    between atoms: N_6  and  C_7 
REMARK    6  A    between atoms: C_7  and  C_8 
REMARK    7  A    between atoms: C_8  and  N_9 
ROOT
HETATM    1  N   UNL     1       5.511  27.661  52.685  1.00  0.00    -0.348 N 
HETATM    2  C   UNL     1       5.612  27.452  51.326  1.00  0.00     0.236 C 
HETATM    3  O   UNL     1       5.512  28.339  50.488  1.00  0.00    -0.272 OA
HETATM    4  H   UNL     1       5.252  26.840  53.224  1.00  0.00     0.163 HD
ENDROOT
BRANCH   2   5
HETATM    5  C   UNL     1       5.793  25.975  50.970  1.00  0.00     0.239 C 
BRANCH   5   6
HETATM    6  N   UNL     1       6.084  25.205  52.162  1.00  0.00    -0.259 N 
HETATM    7  C   UNL     1       5.171  24.895  53.122  1.00  0.00     0.326 C 
HETATM    8  O   UNL     1       3.983  25.184  53.126  1.00  0.00    -0.247 OA
HETATM    9  N   UNL     1       5.800  24.196  54.119  1.00  0.00    -0.320 N 
HETATM   10  C   UNL     1       7.244  24.254  53.997  1.00  0.00     0.144 C 
HETATM   11  H   UNL     1       5.307  23.874  54.941  1.00  0.00     0.165 HD
HETATM   12  C   UNL     1       7.863  22.876  54.123  1.00  0.00    -0.014 A 
HETATM   13  C   UNL     1       7.811  25.264  55.014  1.00  0.00     0.047 C 
HETATM   14  C   UNL     1       7.349  24.893  52.591  1.00  0.00     0.261 C 
HETATM   15  C   UNL     1       8.534  22.493  55.306  1.00  0.00    -0.049 A 
HETATM   16  C   UNL     1       7.757  21.939  53.077  1.00  0.00     0.011 A 
HETATM   17  C   UNL     1       9.111  21.216  55.397  1.00  0.00     0.007 A 
HETATM   18  C   UNL     1       8.729  23.443  56.465  1.00  0.00     0.039 C 
HETATM   19  C   UNL     1       9.013  20.312  54.342  1.00  0.00     0.001 A 
HETATM   20  C   UNL     1       8.334  20.672  53.185  1.00  0.00     0.001 A 
HETATM   21  C   UNL     1       7.820  24.665  56.416  1.00  0.00     0.008 C 
HETATM   22  O   UNL     1       8.388  25.162  52.002  1.00  0.00    -0.270 OA
ENDBRANCH   5   6
ENDBRANCH   2   5
BRANCH   1  23
HETATM   23  C   UNL     1       5.209  28.959  53.270  1.00  0.00     0.155 C 
BRANCH  23  24
HETATM   24  C   UNL     1       3.714  29.099  53.606  1.00  0.00     0.043 C 
BRANCH  24  25
HETATM   25  C   UNL     1       3.224  30.540  53.450  1.00  0.00     0.076 C 
BRANCH  25  26
HETATM   26  S   UNL     1       3.605  31.152  51.776  1.00  0.00    -0.173 SA
HETATM   27  C   UNL     1       2.497  30.067  50.842  1.00  0.00     0.089 C 
ENDBRANCH  25  26
ENDBRANCH  24  25
ENDBRANCH  23  24
BRANCH  23  28
HETATM   28  C   UNL     1       6.062  29.113  54.502  1.00  0.00     0.128 A 
HETATM   29  N   UNL     1       5.643  29.441  55.710  1.00  0.00    -0.231 NA
HETATM   30  C   UNL     1       6.755  29.413  56.514  1.00  0.00     0.085 A 
HETATM   31  C   UNL     1       7.884  29.056  55.786  1.00  0.00     0.062 A 
HETATM   32  C   UNL     1       6.880  29.678  57.885  1.00  0.00     0.034 A 
HETATM   33  N   UNL     1       7.416  28.856  54.515  1.00  0.00    -0.341 N 
HETATM   34  C   UNL     1       9.158  28.955  56.347  1.00  0.00     0.032 A 
HETATM   35  H   UNL     1       7.969  28.564  53.718  1.00  0.00     0.167 HD
HETATM   36  C   UNL     1       9.265  29.226  57.716  1.00  0.00     0.002 A 
HETATM   37  C   UNL     1       8.146  29.579  58.476  1.00  0.00     0.002 A 
ENDBRANCH  23  28
ENDBRANCH   1  23
TORSDOF 7
ENDMDL
MODEL 6
REMARK VINA RESULT:      -9.1      5.168      7.076
REMARK  7 active torsions:
REMARK  status: ('A' for Active; 'I' for Inactive)
REMARK    1  A    between atoms: S_2  and  C_3 
REMARK    2  A    between atoms: C_3  and  C_4 
REMARK    3  A    between atoms: C_4  and  C_5 
REMARK    4  A    between atoms: C_5  and  N_6 
REMARK    5  A    between atoms: C_5  and  C_26 
REMARK       I    between atoms: N_6  and  C_7 
REMARK    6  A    between atoms: C_7  and  C_8 
REMARK    7  A    between atoms: C_8  and  N_9 
ROOT
HETATM    1  N   UNL     1       3.971  27.674  51.198  1.00  0.00    -0.348 N 
HETATM    2  C   UNL     1       5.334  27.466  51.243  1.00  0.00     0.236 C 
HETATM    3  O   UNL     1       6.153  28.349  51.463  1.00  0.00    -0.272 OA
HETATM    4  H   UNL     1       3.453  26.979  50.666  1.00  0.00     0.163 HD
ENDROOT
BRANCH   2   5
HETATM    5  C   UNL     1       5.721  26.022  50.917  1.00  0.00     0.239 C 
BRANCH   5   6
HETATM    6  N   UNL     1       6.022  25.298  52.135  1.00  0.00    -0.259 N 
HETATM    7  C   UNL     1       5.123  25.046  53.125  1.00  0.00     0.326 C 
HETATM    8  O   UNL     1       3.940  25.358  53.139  1.00  0.00    -0.247 OA
HETATM    9  N   UNL     1       5.758  24.378  54.139  1.00  0.00    -0.320 N 
HETATM   10  C   UNL     1       7.200  24.404  53.986  1.00  0.00     0.144 C 
HETATM   11  H   UNL     1       5.276  24.100  54.983  1.00  0.00     0.165 HD
HETATM   12  C   UNL     1       7.797  23.020  54.160  1.00  0.00    -0.014 A 
HETATM   13  C   UNL     1       7.805  25.444  54.949  1.00  0.00     0.047 C 
HETATM   14  C   UNL     1       7.289  24.981  52.553  1.00  0.00     0.261 C 
HETATM   15  C   UNL     1       8.484  22.675  55.345  1.00  0.00    -0.049 A 
HETATM   16  C   UNL     1       7.653  22.042  53.157  1.00  0.00     0.011 A 
HETATM   17  C   UNL     1       9.039  21.392  55.480  1.00  0.00     0.007 A 
HETATM   18  C   UNL     1       8.719  23.669  56.458  1.00  0.00     0.039 C 
HETATM   19  C   UNL     1       8.904  20.446  54.466  1.00  0.00     0.001 A 
HETATM   20  C   UNL     1       8.209  20.770  53.307  1.00  0.00     0.001 A 
HETATM   21  C   UNL     1       7.832  24.905  56.374  1.00  0.00     0.008 C 
HETATM   22  O   UNL     1       8.321  25.204  51.934  1.00  0.00    -0.270 OA
ENDBRANCH   5   6
ENDBRANCH   2   5
BRANCH   1  23
HETATM   23  C   UNL     1       3.361  28.986  51.345  1.00  0.00     0.155 C 
BRANCH  23  24
HETATM   24  C   UNL     1       1.875  28.972  50.945  1.00  0.00     0.043 C 
BRANCH  24  25
HETATM   25  C   UNL     1       1.688  29.072  49.429  1.00  0.00     0.076 C 
BRANCH  25  26
HETATM   26  S   UNL     1       3.008  30.098  48.703  1.00  0.00    -0.173 SA
HETATM   27  C   UNL     1       3.764  28.842  47.642  1.00  0.00     0.089 C 
ENDBRANCH  25  26
ENDBRANCH  24  25
ENDBRANCH  23  24
BRANCH  23  28
HETATM   28  C   UNL     1       3.537  29.412  52.779  1.00  0.00     0.128 A 
HETATM   29  N   UNL     1       3.265  30.601  53.282  1.00  0.00    -0.231 NA
HETATM   30  C   UNL     1       3.535  30.512  54.625  1.00  0.00     0.085 A 
HETATM   31  C   UNL     1       3.978  29.238  54.957  1.00  0.00     0.062 A 
HETATM   32  C   UNL     1       3.420  31.481  55.632  1.00  0.00     0.034 A 
HETATM   33  N   UNL     1       3.957  28.553  53.771  1.00  0.00    -0.341 N 
HETATM   34  C   UNL     1       4.333  28.862  56.254  1.00  0.00     0.032 A 
HETATM   35  H   UNL     1       4.204  27.580  53.644  1.00  0.00     0.167 HD
HETATM   36  C   UNL     1       4.215  29.844  57.246  1.00  0.00     0.002 A 
HETATM   37  C   UNL     1       3.764  31.131  56.943  1.00  0.00     0.002 A 
ENDBRANCH  23  28
ENDBRANCH   1  23
TORSDOF 7
ENDMDL
MODEL 7
REMARK VINA RESULT:      -9.0      2.840      8.320
REMARK  7 active torsions:
REMARK  status: ('A' for Active; 'I' for Inactive)
REMARK    1  A    between atoms: S_2  and  C_3 
REMARK    2  A    between atoms: C_3  and  C_4 
REMARK    3  A    between atoms: C_4  and  C_5 
REMARK    4  A    between atoms: C_5  and  N_6 
REMARK    5  A    between atoms: C_5  and  C_26 
REMARK       I    between atoms: N_6  and  C_7 
REMARK    6  A    between atoms: C_7  and  C_8 
REMARK    7  A    between atoms: C_8  and  N_9 
ROOT
HETATM    1  N   UNL     1       7.750  27.687  56.140  1.00  0.00    -0.348 N 
HETATM    2  C   UNL     1       8.745  28.572  55.780  1.00  0.00     0.236 C 
HETATM    3  O   UNL     1       8.801  29.132  54.693  1.00  0.00    -0.272 OA
HETATM    4  H   UNL     1       8.005  27.040  56.882  1.00  0.00     0.163 HD
ENDROOT
BRANCH   2   5
HETATM    5  C   UNL     1       9.816  28.727  56.862  1.00  0.00     0.239 C 
BRANCH   5   6
HETATM    6  N   UNL     1       9.465  29.808  57.762  1.00  0.00    -0.259 N 
HETATM    7  C   UNL     1      10.208  30.933  57.941  1.00  0.00     0.326 C 
HETATM    8  O   UNL     1      11.251  31.223  57.372  1.00  0.00    -0.247 OA
HETATM    9  N   UNL     1       9.601  31.715  58.889  1.00  0.00    -0.320 N 
HETATM   10  C   UNL     1       8.557  31.000  59.597  1.00  0.00     0.144 C 
HETATM   11  H   UNL     1       9.993  32.599  59.185  1.00  0.00     0.165 HD
HETATM   12  C   UNL     1       7.281  31.817  59.667  1.00  0.00    -0.014 A 
HETATM   13  C   UNL     1       9.072  30.569  60.984  1.00  0.00     0.047 C 
HETATM   14  C   UNL     1       8.477  29.734  58.710  1.00  0.00     0.261 C 
HETATM   15  C   UNL     1       6.895  32.449  60.870  1.00  0.00    -0.049 A 
HETATM   16  C   UNL     1       6.469  31.985  58.528  1.00  0.00     0.011 A 
HETATM   17  C   UNL     1       5.703  33.190  60.916  1.00  0.00     0.007 A 
HETATM   18  C   UNL     1       7.682  32.294  62.150  1.00  0.00     0.039 C 
HETATM   19  C   UNL     1       4.904  33.327  59.783  1.00  0.00     0.001 A 
HETATM   20  C   UNL     1       5.288  32.728  58.590  1.00  0.00     0.001 A 
HETATM   21  C   UNL     1       9.093  31.755  61.941  1.00  0.00     0.008 C 
HETATM   22  O   UNL     1       7.724  28.786  58.883  1.00  0.00    -0.270 OA
ENDBRANCH   5   6
ENDBRANCH   2   5
BRANCH   1  23
HETATM   23  C   UNL     1       6.688  27.272  55.236  1.00  0.00     0.155 C 
BRANCH  23  24
HETATM   24  C   UNL     1       6.086  25.918  55.648  1.00  0.00     0.043 C 
BRANCH  24  25
HETATM   25  C   UNL     1       6.060  24.924  54.484  1.00  0.00     0.076 C 
BRANCH  25  26
HETATM   26  S   UNL     1       7.736  24.281  54.173  1.00  0.00    -0.173 SA
HETATM   27  C   UNL     1       7.954  24.916  52.492  1.00  0.00     0.089 C 
ENDBRANCH  25  26
ENDBRANCH  24  25
ENDBRANCH  23  24
BRANCH  23  28
HETATM   28  C   UNL     1       5.643  28.357  55.233  1.00  0.00     0.128 A 
HETATM   29  N   UNL     1       4.846  28.679  56.233  1.00  0.00    -0.231 NA
HETATM   30  C   UNL     1       4.102  29.745  55.792  1.00  0.00     0.085 A 
HETATM   31  C   UNL     1       4.452  30.090  54.493  1.00  0.00     0.062 A 
HETATM   32  C   UNL     1       3.105  30.480  56.451  1.00  0.00     0.034 A 
HETATM   33  N   UNL     1       5.443  29.204  54.164  1.00  0.00    -0.341 N 
HETATM   34  C   UNL     1       3.853  31.135  53.788  1.00  0.00     0.032 A 
HETATM   35  H   UNL     1       5.948  29.177  53.287  1.00  0.00     0.167 HD
HETATM   36  C   UNL     1       2.857  31.855  54.460  1.00  0.00     0.002 A 
HETATM   37  C   UNL     1       2.490  31.537  55.770  1.00  0.00     0.002 A 
ENDBRANCH  23  28
ENDBRANCH   1  23
TORSDOF 7
ENDMDL
MODEL 8
REMARK VINA RESULT:      -8.9      4.357      8.920
REMARK  7 active torsions:
REMARK  status: ('A' for Active; 'I' for Inactive)
REMARK    1  A    between atoms: S_2  and  C_3 
REMARK    2  A    between atoms: C_3  and  C_4 
REMARK    3  A    between atoms: C_4  and  C_5 
REMARK    4  A    between atoms: C_5  and  N_6 
REMARK    5  A    between atoms: C_5  and  C_26 
REMARK       I    between atoms: N_6  and  C_7 
REMARK    6  A    between atoms: C_7  and  C_8 
REMARK    7  A    between atoms: C_8  and  N_9 
ROOT
HETATM    1  N   UNL     1       5.973  26.241  54.403  1.00  0.00    -0.348 N 
HETATM    2  C   UNL     1       5.587  27.467  53.903  1.00  0.00     0.236 C 
HETATM    3  O   UNL     1       6.264  28.484  53.990  1.00  0.00    -0.272 OA
HETATM    4  H   UNL     1       5.208  25.598  54.591  1.00  0.00     0.163 HD
ENDROOT
BRANCH   2   5
HETATM    5  C   UNL     1       4.186  27.439  53.289  1.00  0.00     0.239 C 
BRANCH   5   6
HETATM    6  N   UNL     1       4.252  27.753  51.877  1.00  0.00    -0.259 N 
HETATM    7  C   UNL     1       5.189  27.261  51.020  1.00  0.00     0.326 C 
HETATM    8  O   UNL     1       6.088  26.476  51.288  1.00  0.00    -0.247 OA
HETATM    9  N   UNL     1       4.975  27.797  49.778  1.00  0.00    -0.320 N 
HETATM   10  C   UNL     1       4.041  28.906  49.818  1.00  0.00     0.144 C 
HETATM   11  H   UNL     1       5.566  27.574  48.988  1.00  0.00     0.165 HD
HETATM   12  C   UNL     1       2.973  28.765  48.750  1.00  0.00    -0.014 A 
HETATM   13  C   UNL     1       4.812  30.238  49.725  1.00  0.00     0.047 C 
HETATM   14  C   UNL     1       3.537  28.755  51.273  1.00  0.00     0.261 C 
HETATM   15  C   UNL     1       3.010  29.561  47.583  1.00  0.00    -0.049 A 
HETATM   16  C   UNL     1       1.940  27.818  48.885  1.00  0.00     0.011 A 
HETATM   17  C   UNL     1       2.005  29.423  46.614  1.00  0.00     0.007 A 
HETATM   18  C   UNL     1       4.059  30.628  47.369  1.00  0.00     0.039 C 
HETATM   19  C   UNL     1       0.979  28.494  46.777  1.00  0.00     0.001 A 
HETATM   20  C   UNL     1       0.949  27.690  47.910  1.00  0.00     0.001 A 
HETATM   21  C   UNL     1       5.265  30.496  48.292  1.00  0.00     0.008 C 
HETATM   22  O   UNL     1       2.708  29.469  51.821  1.00  0.00    -0.270 OA
ENDBRANCH   5   6
ENDBRANCH   2   5
BRANCH   1  23
HETATM   23  C   UNL     1       7.206  26.037  55.148  1.00  0.00     0.155 C 
BRANCH  23  24
HETATM   24  C   UNL     1       7.069  26.488  56.612  1.00  0.00     0.043 C 
BRANCH  24  25
HETATM   25  C   UNL     1       8.289  27.282  57.084  1.00  0.00     0.076 C 
BRANCH  25  26
HETATM   26  S   UNL     1       7.852  29.040  57.286  1.00  0.00    -0.173 SA
HETATM   27  C   UNL     1       6.060  28.847  57.452  1.00  0.00     0.089 C 
ENDBRANCH  25  26
ENDBRANCH  24  25
ENDBRANCH  23  24
BRANCH  23  28
HETATM   28  C   UNL     1       7.556  24.575  55.057  1.00  0.00     0.128 A 
HETATM   29  N   UNL     1       7.508  23.695  56.040  1.00  0.00    -0.231 NA
HETATM   30  C   UNL     1       7.866  22.492  55.484  1.00  0.00     0.085 A 
HETATM   31  C   UNL     1       8.136  22.632  54.129  1.00  0.00     0.062 A 
HETATM   32  C   UNL     1       7.978  21.226  56.077  1.00  0.00     0.034 A 
HETATM   33  N   UNL     1       7.918  23.961  53.877  1.00  0.00    -0.341 N 
HETATM   34  C   UNL     1       8.531  21.572  53.311  1.00  0.00     0.032 A 
HETATM   35  H   UNL     1       8.005  24.416  52.978  1.00  0.00     0.167 HD
HETATM   36  C   UNL     1       8.641  20.317  53.920  1.00  0.00     0.002 A 
HETATM   37  C   UNL     1       8.367  20.142  55.279  1.00  0.00     0.002 A 
ENDBRANCH  23  28
ENDBRANCH   1  23
TORSDOF 7
ENDMDL
MODEL 9
REMARK VINA RESULT:      -8.9      2.626      4.141
REMARK  7 active torsions:
REMARK  status: ('A' for Active; 'I' for Inactive)
REMARK    1  A    between atoms: S_2  and  C_3 
REMARK    2  A    between atoms: C_3  and  C_4 
REMARK    3  A    between atoms: C_4  and  C_5 
REMARK    4  A    between atoms: C_5  and  N_6 
REMARK    5  A    between atoms: C_5  and  C_26 
REMARK       I    between atoms: N_6  and  C_7 
REMARK    6  A    between atoms: C_7  and  C_8 
REMARK    7  A    between atoms: C_8  and  N_9 
ROOT
HETATM    1  N   UNL     1       6.373  29.661  57.904  1.00  0.00    -0.348 N 
HETATM    2  C   UNL     1       7.534  28.946  57.696  1.00  0.00     0.236 C 
HETATM    3  O   UNL     1       8.629  29.461  57.509  1.00  0.00    -0.272 OA
HETATM    4  H   UNL     1       5.518  29.157  57.685  1.00  0.00     0.163 HD
ENDROOT
BRANCH   2   5
HETATM    5  C   UNL     1       7.295  27.435  57.655  1.00  0.00     0.239 C 
BRANCH   5   6
HETATM    6  N   UNL     1       6.507  27.086  56.490  1.00  0.00    -0.259 N 
HETATM    7  C   UNL     1       5.391  26.308  56.520  1.00  0.00     0.326 C 
HETATM    8  O   UNL     1       4.869  25.810  57.508  1.00  0.00    -0.247 OA
HETATM    9  N   UNL     1       4.928  26.152  55.240  1.00  0.00    -0.320 N 
HETATM   10  C   UNL     1       5.894  26.597  54.254  1.00  0.00     0.144 C 
HETATM   11  H   UNL     1       4.108  25.598  55.029  1.00  0.00     0.165 HD
HETATM   12  C   UNL     1       5.251  27.503  53.222  1.00  0.00    -0.014 A 
HETATM   13  C   UNL     1       6.597  25.376  53.629  1.00  0.00     0.047 C 
HETATM   14  C   UNL     1       6.907  27.292  55.195  1.00  0.00     0.261 C 
HETATM   15  C   UNL     1       4.972  27.028  51.920  1.00  0.00    -0.049 A 
HETATM   16  C   UNL     1       4.891  28.825  53.546  1.00  0.00     0.011 A 
HETATM   17  C   UNL     1       4.387  27.887  50.976  1.00  0.00     0.007 A 
HETATM   18  C   UNL     1       5.356  25.637  51.471  1.00  0.00     0.039 C 
HETATM   19  C   UNL     1       4.058  29.198  51.312  1.00  0.00     0.001 A 
HETATM   20  C   UNL     1       4.307  29.665  52.597  1.00  0.00     0.001 A 
HETATM   21  C   UNL     1       5.684  24.690  52.619  1.00  0.00     0.008 C 
HETATM   22  O   UNL     1       7.940  27.851  54.848  1.00  0.00    -0.270 OA
ENDBRANCH   5   6
ENDBRANCH   2   5
BRANCH   1  23
HETATM   23  C   UNL     1       6.314  31.115  57.858  1.00  0.00     0.155 C 
BRANCH  23  24
HETATM   24  C   UNL     1       4.949  31.614  57.352  1.00  0.00     0.043 C 
BRANCH  24  25
HETATM   25  C   UNL     1       4.898  31.691  55.824  1.00  0.00     0.076 C 
BRANCH  25  26
HETATM   26  S   UNL     1       3.833  33.076  55.303  1.00  0.00    -0.173 SA
HETATM   27  C   UNL     1       2.286  32.157  55.107  1.00  0.00     0.089 C 
ENDBRANCH  25  26
ENDBRANCH  24  25
ENDBRANCH  23  24
BRANCH  23  28
HETATM   28  C   UNL     1       6.602  31.626  59.245  1.00  0.00     0.128 A 
HETATM   29  N   UNL     1       5.963  32.596  59.871  1.00  0.00    -0.231 NA
HETATM   30  C   UNL     1       6.536  32.681  61.115  1.00  0.00     0.085 A 
HETATM   31  C   UNL     1       7.548  31.740  61.261  1.00  0.00     0.062 A 
HETATM   32  C   UNL     1       6.242  33.539  62.184  1.00  0.00     0.034 A 
HETATM   33  N   UNL     1       7.561  31.071  60.065  1.00  0.00    -0.341 N 
HETATM   34  C   UNL     1       8.308  31.603  62.424  1.00  0.00     0.032 A 
HETATM   35  H   UNL     1       8.168  30.298  59.825  1.00  0.00     0.167 HD
HETATM   36  C   UNL     1       8.002  32.470  63.479  1.00  0.00     0.002 A 
HETATM   37  C   UNL     1       6.985  33.422  63.366  1.00  0.00     0.002 A 
ENDBRANCH  23  28
ENDBRANCH   1  23
TORSDOF 7
ENDMDL
MODEL 10
REMARK VINA RESULT:      -8.8      4.634      8.070
REMARK  7 active torsions:
REMARK  status: ('A' for Active; 'I' for Inactive)
REMARK    1  A    between atoms: S_2  and  C_3 
REMARK    2  A    between atoms: C_3  and  C_4 
REMARK    3  A    between atoms: C_4  and  C_5 
REMARK    4  A    between atoms: C_5  and  N_6 
REMARK    5  A    between atoms: C_5  and  C_26 
REMARK       I    between atoms: N_6  and  C_7 
REMARK    6  A    between atoms: C_7  and  C_8 
REMARK    7  A    between atoms: C_8  and  N_9 
ROOT
HETATM    1  N   UNL     1       4.987  29.623  53.760  1.00  0.00    -0.348 N 
HETATM    2  C   UNL     1       4.627  28.973  54.922  1.00  0.00     0.236 C 
HETATM    3  O   UNL     1       3.469  28.736  55.241  1.00  0.00    -0.272 OA
HETATM    4  H   UNL     1       5.901  30.067  53.787  1.00  0.00     0.163 HD
ENDROOT
BRANCH   2   5
HETATM    5  C   UNL     1       5.829  28.639  55.808  1.00  0.00     0.239 C 
BRANCH   5   6
HETATM    6  N   UNL     1       6.548  27.503  55.268  1.00  0.00    -0.259 N 
HETATM    7  C   UNL     1       7.683  27.592  54.523  1.00  0.00     0.326 C 
HETATM    8  O   UNL     1       8.282  28.613  54.216  1.00  0.00    -0.247 OA
HETATM    9  N   UNL     1       8.065  26.330  54.149  1.00  0.00    -0.320 N 
HETATM   10  C   UNL     1       7.025  25.351  54.399  1.00  0.00     0.144 C 
HETATM   11  H   UNL     1       8.883  26.164  53.579  1.00  0.00     0.165 HD
HETATM   12  C   UNL     1       7.576  24.133  55.116  1.00  0.00    -0.014 A 
HETATM   13  C   UNL     1       6.314  25.000  53.077  1.00  0.00     0.047 C 
HETATM   14  C   UNL     1       6.058  26.223  55.236  1.00  0.00     0.261 C 
HETATM   15  C   UNL     1       7.781  22.919  54.422  1.00  0.00    -0.049 A 
HETATM   16  C   UNL     1       7.921  24.194  56.480  1.00  0.00     0.011 A 
HETATM   17  C   UNL     1       8.280  21.801  55.108  1.00  0.00     0.007 A 
HETATM   18  C   UNL     1       7.404  22.749  52.968  1.00  0.00     0.039 C 
HETATM   19  C   UNL     1       8.596  21.877  56.462  1.00  0.00     0.001 A 
HETATM   20  C   UNL     1       8.420  23.073  57.147  1.00  0.00     0.001 A 
HETATM   21  C   UNL     1       7.177  24.066  52.235  1.00  0.00     0.008 C 
HETATM   22  O   UNL     1       4.991  25.855  55.710  1.00  0.00    -0.270 OA
ENDBRANCH   5   6
ENDBRANCH   2   5
BRANCH   1  23
HETATM   23  C   UNL     1       4.020  30.158  52.814  1.00  0.00     0.155 C 
BRANCH  23  24
HETATM   24  C   UNL     1       4.191  31.675  52.620  1.00  0.00     0.043 C 
BRANCH  24  25
HETATM   25  C   UNL     1       4.207  32.425  53.954  1.00  0.00     0.076 C 
BRANCH  25  26
HETATM   26  S   UNL     1       2.596  32.250  54.788  1.00  0.00    -0.173 SA
HETATM   27  C   UNL     1       3.199  32.048  56.483  1.00  0.00     0.089 C 
ENDBRANCH  25  26
ENDBRANCH  24  25
ENDBRANCH  23  24
BRANCH  23  28
HETATM   28  C   UNL     1       4.196  29.418  51.514  1.00  0.00     0.128 A 
HETATM   29  N   UNL     1       4.528  29.945  50.351  1.00  0.00    -0.231 NA
HETATM   30  C   UNL     1       4.616  28.893  49.474  1.00  0.00     0.085 A 
HETATM   31  C   UNL     1       4.337  27.690  50.112  1.00  0.00     0.062 A 
HETATM   32  C   UNL     1       4.936  28.885  48.109  1.00  0.00     0.034 A 
HETATM   33  N   UNL     1       4.088  28.047  51.410  1.00  0.00    -0.341 N 
HETATM   34  C   UNL     1       4.346  26.456  49.461  1.00  0.00     0.032 A 
HETATM   35  H   UNL     1       3.866  27.414  52.167  1.00  0.00     0.167 HD
HETATM   36  C   UNL     1       4.664  26.467  48.097  1.00  0.00     0.002 A 
HETATM   37  C   UNL     1       4.958  27.660  47.430  1.00  0.00     0.002 A 
ENDBRANCH  23  28
ENDBRANCH   1  23
TORSDOF 7
ENDMDL
