MODEL 1
REMARK VINA RESULT:      -9.7      0.000      0.000
REMARK  4 active torsions:
REMARK  status: ('A' for Active; 'I' for Inactive)
REMARK    1  A    between atoms: C_7  and  C_8 
REMARK    2  A    between atoms: C_10  and  O_11 
REMARK    3  A    between atoms: C_17  and  C_18 
REMARK    4  A    between atoms: C_25  and  C_26 
REMARK       I    between atoms: C_26  and  N_27 
ROOT
HETATM    1  C   UNL     1       3.188  28.983  52.822  1.00  0.00     0.070 C 
HETATM    2  C   UNL     1       4.103  28.097  53.632  1.00  0.00     0.037 A 
HETATM    3  N   UNL     1       4.508  26.922  53.011  1.00  0.00    -0.192 N 
HETATM    4  C   UNL     1       5.303  26.008  53.598  1.00  0.00     0.726 A 
HETATM    5  N   UNL     1       5.756  26.233  54.866  1.00  0.00    -0.083 N 
HETATM    6  N   UNL     1       6.459  25.182  55.332  1.00  0.00    -0.135 NA
HETATM    7  C   UNL     1       6.489  24.381  54.249  1.00  0.00     0.199 A 
HETATM    8  N   UNL     1       5.757  24.859  53.174  1.00  0.00    -0.041 NA
HETATM    9  C   UNL     1       5.435  27.426  55.657  1.00  0.00     0.202 A 
HETATM   10  C   UNL     1       4.514  28.371  54.896  1.00  0.00     0.062 A 
HETATM   11  H   UNL     1       4.185  26.753  52.062  1.00  0.00     0.184 HD
ENDROOT
BRANCH   7  12
HETATM   12  C   UNL     1       7.225  23.122  54.192  1.00  0.00     0.017 A 
HETATM   13  C   UNL     1       7.586  22.448  55.372  1.00  0.00     0.052 A 
HETATM   14  C   UNL     1       8.311  21.256  55.318  1.00  0.00     0.069 A 
HETATM   15  C   UNL     1       8.671  20.728  54.077  1.00  0.00     0.037 A 
HETATM   16  C   UNL     1       8.320  21.385  52.897  1.00  0.00     0.004 A 
HETATM   17  C   UNL     1       7.601  22.579  52.955  1.00  0.00     0.015 A 
BRANCH  14  18
HETATM   18  O   UNL     1       8.723  20.516  56.394  1.00  0.00    -0.356 OA
HETATM   19  C   UNL     1       8.495  21.077  57.682  1.00  0.00     0.210 C 
ENDBRANCH  14  18
ENDBRANCH   7  12
BRANCH   9  20
HETATM   20  C   UNL     1       6.724  28.077  56.153  1.00  0.00    -0.028 A 
HETATM   21  C   UNL     1       7.712  28.536  55.260  1.00  0.00     0.012 A 
HETATM   22  C   UNL     1       8.889  29.112  55.740  1.00  0.00     0.043 A 
HETATM   23  C   UNL     1       9.090  29.224  57.110  1.00  0.00     0.116 A 
HETATM   24  F   UNL     1      10.222  29.774  57.569  1.00  0.00    -0.206 F 
HETATM   25  C   UNL     1       8.137  28.769  58.012  1.00  0.00     0.043 A 
HETATM   26  C   UNL     1       6.958  28.195  57.536  1.00  0.00     0.012 A 
ENDBRANCH   9  20
BRANCH  10  27
HETATM   27  C   UNL     1       4.155  29.648  55.552  1.00  0.00     0.249 C 
HETATM   28  N   UNL     1       3.343  29.548  56.635  1.00  0.00    -0.366 N 
HETATM   29  H   UNL     1       2.898  28.699  56.949  1.00  0.00     0.159 HD
HETATM   30  H   UNL     1       3.072  30.417  57.080  1.00  0.00     0.159 HD
HETATM   31  O   UNL     1       4.557  30.731  55.151  1.00  0.00    -0.268 OA
ENDBRANCH  10  27
TORSDOF 4
ENDMDL
MODEL 2
REMARK VINA RESULT:      -9.5      1.099      2.050
REMARK  4 active torsions:
REMARK  status: ('A' for Active; 'I' for Inactive)
REMARK    1  A    between atoms: C_7  and  C_8 
REMARK    2  A    between atoms: C_10  and  O_11 
REMARK    3  A    between atoms: C_17  and  C_18 
REMARK    4  A    between atoms: C_25  and  C_26 
REMARK       I    between atoms: C_26  and  N_27 
ROOT
HETATM    1  C   UNL     1       3.521  28.543  52.984  1.00  0.00     0.070 C 
HETATM    2  C   UNL     1       4.406  27.834  53.980  1.00  0.00     0.037 A 
HETATM    3  N   UNL     1       4.795  26.546  53.630  1.00  0.00    -0.192 N 
HETATM    4  C   UNL     1       5.563  25.765  54.412  1.00  0.00     0.726 A 
HETATM    5  N   UNL     1       6.004  26.246  55.610  1.00  0.00    -0.083 N 
HETATM    6  N   UNL     1       6.678  25.306  56.301  1.00  0.00    -0.135 NA
HETATM    7  C   UNL     1       6.706  24.293  55.413  1.00  0.00     0.199 A 
HETATM    8  N   UNL     1       5.998  24.544  54.249  1.00  0.00    -0.041 NA
HETATM    9  C   UNL     1       5.697  27.586  56.124  1.00  0.00     0.202 A 
HETATM   10  C   UNL     1       4.806  28.363  55.164  1.00  0.00     0.062 A 
HETATM   11  H   UNL     1       4.482  26.185  52.733  1.00  0.00     0.184 HD
ENDROOT
BRANCH   7  12
HETATM   12  C   UNL     1       7.416  23.038  55.638  1.00  0.00     0.017 A 
HETATM   13  C   UNL     1       7.603  22.121  54.588  1.00  0.00     0.052 A 
HETATM   14  C   UNL     1       8.263  20.910  54.808  1.00  0.00     0.069 A 
HETATM   15  C   UNL     1       8.745  20.615  56.085  1.00  0.00     0.037 A 
HETATM   16  C   UNL     1       8.567  21.514  57.136  1.00  0.00     0.004 A 
HETATM   17  C   UNL     1       7.904  22.720  56.914  1.00  0.00     0.015 A 
BRANCH  14  18
HETATM   18  O   UNL     1       8.498  19.941  53.871  1.00  0.00    -0.356 OA
HETATM   19  C   UNL     1       8.436  20.341  52.506  1.00  0.00     0.210 C 
ENDBRANCH  14  18
ENDBRANCH   7  12
BRANCH   9  20
HETATM   20  C   UNL     1       6.993  28.304  56.493  1.00  0.00    -0.028 A 
HETATM   21  C   UNL     1       7.245  28.747  57.806  1.00  0.00     0.012 A 
HETATM   22  C   UNL     1       8.431  29.416  58.113  1.00  0.00     0.043 A 
HETATM   23  C   UNL     1       9.365  29.653  57.113  1.00  0.00     0.116 A 
HETATM   24  F   UNL     1      10.501  30.298  57.408  1.00  0.00    -0.206 F 
HETATM   25  C   UNL     1       9.136  29.236  55.807  1.00  0.00     0.043 A 
HETATM   26  C   UNL     1       7.953  28.565  55.497  1.00  0.00     0.012 A 
ENDBRANCH   9  20
BRANCH  10  27
HETATM   27  C   UNL     1       4.465  29.756  55.528  1.00  0.00     0.249 C 
HETATM   28  N   UNL     1       5.195  30.722  54.913  1.00  0.00    -0.366 N 
HETATM   29  H   UNL     1       5.997  30.556  54.325  1.00  0.00     0.159 HD
HETATM   30  H   UNL     1       4.987  31.680  55.170  1.00  0.00     0.159 HD
HETATM   31  O   UNL     1       3.586  30.033  56.332  1.00  0.00    -0.268 OA
ENDBRANCH  10  27
TORSDOF 4
ENDMDL
MODEL 3
REMARK VINA RESULT:      -9.5      1.610      2.179
REMARK  4 active torsions:
REMARK  status: ('A' for Active; 'I' for Inactive)
REMARK    1  A    between atoms: C_7  and  C_8 
REMARK    2  A    between atoms: C_10  and  O_11 
REMARK    3  A    between atoms: C_17  and  C_18 
REMARK    4  A    between atoms: C_25  and  C_26 
REMARK       I    between atoms: C_26  and  N_27 
ROOT
HETATM    1  C   UNL     1       5.231  28.203  49.992  1.00  0.00     0.070 C 
HETATM    2  C   UNL     1       5.413  27.325  51.206  1.00  0.00     0.037 A 
HETATM    3  N   UNL     1       6.197  26.193  51.018  1.00  0.00    -0.192 N 
HETATM    4  C   UNL     1       6.442  25.290  51.985  1.00  0.00     0.726 A 
HETATM    5  N   UNL     1       5.914  25.483  53.229  1.00  0.00    -0.083 N 
HETATM    6  N   UNL     1       6.180  24.445  54.045  1.00  0.00    -0.135 NA
HETATM    7  C   UNL     1       6.975  23.690  53.262  1.00  0.00     0.199 A 
HETATM    8  N   UNL     1       7.128  24.179  51.975  1.00  0.00    -0.041 NA
HETATM    9  C   UNL     1       5.076  26.630  53.599  1.00  0.00     0.202 A 
HETATM   10  C   UNL     1       4.853  27.565  52.418  1.00  0.00     0.062 A 
HETATM   11  H   UNL     1       6.606  26.048  50.098  1.00  0.00     0.184 HD
ENDROOT
BRANCH   7  12
HETATM   12  C   UNL     1       7.630  22.465  53.713  1.00  0.00     0.017 A 
HETATM   13  C   UNL     1       7.845  22.230  55.083  1.00  0.00     0.052 A 
HETATM   14  C   UNL     1       8.492  21.069  55.513  1.00  0.00     0.069 A 
HETATM   15  C   UNL     1       8.920  20.134  54.570  1.00  0.00     0.037 A 
HETATM   16  C   UNL     1       8.713  20.353  53.208  1.00  0.00     0.004 A 
HETATM   17  C   UNL     1       8.072  21.515  52.781  1.00  0.00     0.015 A 
BRANCH  14  18
HETATM   18  O   UNL     1       8.762  20.735  56.813  1.00  0.00    -0.356 OA
HETATM   19  C   UNL     1       8.279  21.621  57.817  1.00  0.00     0.210 C 
ENDBRANCH  14  18
ENDBRANCH   7  12
BRANCH   9  20
HETATM   20  C   UNL     1       5.659  27.313  54.835  1.00  0.00    -0.028 A 
HETATM   21  C   UNL     1       6.977  27.809  54.853  1.00  0.00     0.012 A 
HETATM   22  C   UNL     1       7.490  28.415  56.001  1.00  0.00     0.043 A 
HETATM   23  C   UNL     1       6.696  28.521  57.136  1.00  0.00     0.116 A 
HETATM   24  F   UNL     1       7.192  29.099  58.238  1.00  0.00    -0.206 F 
HETATM   25  C   UNL     1       5.397  28.030  57.148  1.00  0.00     0.043 A 
HETATM   26  C   UNL     1       4.879  27.426  56.002  1.00  0.00     0.012 A 
ENDBRANCH   9  20
BRANCH  10  27
HETATM   27  C   UNL     1       4.074  28.799  52.664  1.00  0.00     0.249 C 
HETATM   28  N   UNL     1       2.729  28.688  52.518  1.00  0.00    -0.366 N 
HETATM   29  H   UNL     1       2.250  27.875  52.162  1.00  0.00     0.159 HD
HETATM   30  H   UNL     1       2.187  29.532  52.661  1.00  0.00     0.159 HD
HETATM   31  O   UNL     1       4.599  29.859  52.978  1.00  0.00    -0.268 OA
ENDBRANCH  10  27
TORSDOF 4
ENDMDL
MODEL 4
REMARK VINA RESULT:      -9.3      3.717      6.890
REMARK  4 active torsions:
REMARK  status: ('A' for Active; 'I' for Inactive)
REMARK    1  A    between atoms: C_7  and  C_8 
REMARK    2  A    between atoms: C_10  and  O_11 
REMARK    3  A    between atoms: C_17  and  C_18 
REMARK    4  A    between atoms: C_25  and  C_26 
REMARK       I    between atoms: C_26  and  N_27 
ROOT
HETATM    1  C   UNL     1       8.808  28.583  56.661  1.00  0.00     0.070 C 
HETATM    2  C   UNL     1       7.899  27.809  55.737  1.00  0.00     0.037 A 
HETATM    3  N   UNL     1       7.452  28.499  54.617  1.00  0.00    -0.192 N 
HETATM    4  C   UNL     1       6.618  27.969  53.703  1.00  0.00     0.726 A 
HETATM    5  N   UNL     1       6.186  26.684  53.859  1.00  0.00    -0.083 N 
HETATM    6  N   UNL     1       5.291  26.346  52.910  1.00  0.00    -0.135 NA
HETATM    7  C   UNL     1       5.299  27.447  52.133  1.00  0.00     0.199 A 
HETATM    8  N   UNL     1       6.091  28.474  52.620  1.00  0.00    -0.041 NA
HETATM    9  C   UNL     1       6.572  25.814  54.976  1.00  0.00     0.202 A 
HETATM   10  C   UNL     1       7.496  26.532  55.951  1.00  0.00     0.062 A 
HETATM   11  H   UNL     1       7.779  29.453  54.486  1.00  0.00     0.184 HD
ENDROOT
BRANCH   7  12
HETATM   12  C   UNL     1       4.551  27.564  50.885  1.00  0.00     0.017 A 
HETATM   13  C   UNL     1       4.734  26.631  49.849  1.00  0.00     0.052 A 
HETATM   14  C   UNL     1       4.036  26.756  48.646  1.00  0.00     0.069 A 
HETATM   15  C   UNL     1       3.143  27.816  48.479  1.00  0.00     0.037 A 
HETATM   16  C   UNL     1       2.950  28.749  49.498  1.00  0.00     0.004 A 
HETATM   17  C   UNL     1       3.653  28.625  50.696  1.00  0.00     0.015 A 
BRANCH  14  18
HETATM   18  O   UNL     1       4.135  25.917  47.569  1.00  0.00    -0.356 OA
HETATM   19  C   UNL     1       2.995  25.119  47.271  1.00  0.00     0.210 C 
ENDBRANCH  14  18
ENDBRANCH   7  12
BRANCH   9  20
HETATM   20  C   UNL     1       7.134  24.501  54.434  1.00  0.00    -0.028 A 
HETATM   21  C   UNL     1       7.731  24.422  53.161  1.00  0.00     0.012 A 
HETATM   22  C   UNL     1       8.222  23.206  52.683  1.00  0.00     0.043 A 
HETATM   23  C   UNL     1       8.113  22.064  53.467  1.00  0.00     0.116 A 
HETATM   24  F   UNL     1       8.581  20.898  53.006  1.00  0.00    -0.206 F 
HETATM   25  C   UNL     1       7.518  22.113  54.722  1.00  0.00     0.043 A 
HETATM   26  C   UNL     1       7.028  23.327  55.204  1.00  0.00     0.012 A 
ENDBRANCH   9  20
BRANCH  10  27
HETATM   27  C   UNL     1       8.015  25.752  57.097  1.00  0.00     0.249 C 
HETATM   28  N   UNL     1       7.177  25.635  58.158  1.00  0.00    -0.366 N 
HETATM   29  H   UNL     1       6.296  26.117  58.258  1.00  0.00     0.159 HD
HETATM   30  H   UNL     1       7.529  25.123  58.959  1.00  0.00     0.159 HD
HETATM   31  O   UNL     1       9.127  25.243  57.099  1.00  0.00    -0.268 OA
ENDBRANCH  10  27
TORSDOF 4
ENDMDL
MODEL 5
REMARK VINA RESULT:      -8.9      3.093      6.596
REMARK  4 active torsions:
REMARK  status: ('A' for Active; 'I' for Inactive)
REMARK    1  A    between atoms: C_7  and  C_8 
REMARK    2  A    between atoms: C_10  and  O_11 
REMARK    3  A    between atoms: C_17  and  C_18 
REMARK    4  A    between atoms: C_25  and  C_26 
REMARK       I    between atoms: C_26  and  N_27 
ROOT
HETATM    1  C   UNL     1       3.050  27.980  52.362  1.00  0.00     0.070 C 
HETATM    2  C   UNL     1       4.417  27.848  52.986  1.00  0.00     0.037 A 
HETATM    3  N   UNL     1       4.676  28.700  54.053  1.00  0.00    -0.192 N 
HETATM    4  C   UNL     1       5.851  28.732  54.709  1.00  0.00     0.726 A 
HETATM    5  N   UNL     1       6.850  27.883  54.332  1.00  0.00    -0.083 N 
HETATM    6  N   UNL     1       7.981  28.110  55.029  1.00  0.00    -0.135 NA
HETATM    7  C   UNL     1       7.569  29.052  55.901  1.00  0.00     0.199 A 
HETATM    8  N   UNL     1       6.264  29.471  55.703  1.00  0.00    -0.041 NA
HETATM    9  C   UNL     1       6.738  26.912  53.237  1.00  0.00     0.202 A 
HETATM   10  C   UNL     1       5.376  26.988  52.560  1.00  0.00     0.062 A 
HETATM   11  H   UNL     1       3.933  29.327  54.349  1.00  0.00     0.184 HD
ENDROOT
BRANCH   7  12
HETATM   12  C   UNL     1       8.408  29.589  56.968  1.00  0.00     0.017 A 
HETATM   13  C   UNL     1       7.870  29.849  58.241  1.00  0.00     0.052 A 
HETATM   14  C   UNL     1       8.667  30.385  59.255  1.00  0.00     0.069 A 
HETATM   15  C   UNL     1      10.012  30.657  58.998  1.00  0.00     0.037 A 
HETATM   16  C   UNL     1      10.560  30.404  57.741  1.00  0.00     0.004 A 
HETATM   17  C   UNL     1       9.760  29.874  56.729  1.00  0.00     0.015 A 
BRANCH  14  18
HETATM   18  O   UNL     1       8.256  30.685  60.526  1.00  0.00    -0.356 OA
HETATM   19  C   UNL     1       9.194  30.459  61.573  1.00  0.00     0.210 C 
ENDBRANCH  14  18
ENDBRANCH   7  12
BRANCH   9  20
HETATM   20  C   UNL     1       7.107  25.520  53.744  1.00  0.00    -0.028 A 
HETATM   21  C   UNL     1       7.933  24.657  53.000  1.00  0.00     0.012 A 
HETATM   22  C   UNL     1       8.242  23.383  53.479  1.00  0.00     0.043 A 
HETATM   23  C   UNL     1       7.721  22.962  54.696  1.00  0.00     0.116 A 
HETATM   24  F   UNL     1       8.015  21.737  55.152  1.00  0.00    -0.206 F 
HETATM   25  C   UNL     1       6.894  23.789  55.444  1.00  0.00     0.043 A 
HETATM   26  C   UNL     1       6.585  25.065  54.970  1.00  0.00     0.012 A 
ENDBRANCH   9  20
BRANCH  10  27
HETATM   27  C   UNL     1       5.101  26.021  51.474  1.00  0.00     0.249 C 
HETATM   28  N   UNL     1       5.463  26.415  50.226  1.00  0.00    -0.366 N 
HETATM   29  H   UNL     1       5.798  27.335  49.984  1.00  0.00     0.159 HD
HETATM   30  H   UNL     1       5.259  25.772  49.471  1.00  0.00     0.159 HD
HETATM   31  O   UNL     1       4.578  24.933  51.675  1.00  0.00    -0.268 OA
ENDBRANCH  10  27
TORSDOF 4
ENDMDL
MODEL 6
REMARK VINA RESULT:      -8.7      1.927      2.906
REMARK  4 active torsions:
REMARK  status: ('A' for Active; 'I' for Inactive)
REMARK    1  A    between atoms: C_7  and  C_8 
REMARK    2  A    between atoms: C_10  and  O_11 
REMARK    3  A    between atoms: C_17  and  C_18 
REMARK    4  A    between atoms: C_25  and  C_26 
REMARK       I    between atoms: C_26  and  N_27 
ROOT
HETATM    1  C   UNL     1       5.157  28.309  49.841  1.00  0.00     0.070 C 
HETATM    2  C   UNL     1       5.227  27.644  51.194  1.00  0.00     0.037 A 
HETATM    3  N   UNL     1       6.088  26.557  51.287  1.00  0.00    -0.192 N 
HETATM    4  C   UNL     1       6.254  25.835  52.410  1.00  0.00     0.726 A 
HETATM    5  N   UNL     1       5.559  26.178  53.534  1.00  0.00    -0.083 N 
HETATM    6  N   UNL     1       5.773  25.300  54.533  1.00  0.00    -0.135 NA
HETATM    7  C   UNL     1       6.702  24.494  53.984  1.00  0.00     0.199 A 
HETATM    8  N   UNL     1       6.994  24.789  52.662  1.00  0.00    -0.041 NA
HETATM    9  C   UNL     1       4.620  27.304  53.611  1.00  0.00     0.202 A 
HETATM   10  C   UNL     1       4.502  28.026  52.275  1.00  0.00     0.062 A 
HETATM   11  H   UNL     1       6.620  26.303  50.458  1.00  0.00     0.184 HD
ENDROOT
BRANCH   7  12
HETATM   12  C   UNL     1       7.357  23.405  54.703  1.00  0.00     0.017 A 
HETATM   13  C   UNL     1       7.707  22.216  54.039  1.00  0.00     0.052 A 
HETATM   14  C   UNL     1       8.312  21.165  54.732  1.00  0.00     0.069 A 
HETATM   15  C   UNL     1       8.577  21.306  56.096  1.00  0.00     0.037 A 
HETATM   16  C   UNL     1       8.237  22.481  56.767  1.00  0.00     0.004 A 
HETATM   17  C   UNL     1       7.627  23.526  56.074  1.00  0.00     0.015 A 
BRANCH  14  18
HETATM   18  O   UNL     1       8.690  19.963  54.198  1.00  0.00    -0.356 OA
HETATM   19  C   UNL     1       8.833  19.906  52.784  1.00  0.00     0.210 C 
ENDBRANCH  14  18
ENDBRANCH   7  12
BRANCH   9  20
HETATM   20  C   UNL     1       5.000  28.210  54.780  1.00  0.00    -0.028 A 
HETATM   21  C   UNL     1       4.053  28.616  55.739  1.00  0.00     0.012 A 
HETATM   22  C   UNL     1       4.423  29.458  56.789  1.00  0.00     0.043 A 
HETATM   23  C   UNL     1       5.735  29.906  56.881  1.00  0.00     0.116 A 
HETATM   24  F   UNL     1       6.087  30.717  57.886  1.00  0.00    -0.206 F 
HETATM   25  C   UNL     1       6.686  29.530  55.941  1.00  0.00     0.043 A 
HETATM   26  C   UNL     1       6.321  28.686  54.892  1.00  0.00     0.012 A 
ENDBRANCH   9  20
BRANCH  10  27
HETATM   27  C   UNL     1       3.633  29.223  52.223  1.00  0.00     0.249 C 
HETATM   28  N   UNL     1       2.320  28.989  51.969  1.00  0.00    -0.366 N 
HETATM   29  H   UNL     1       1.930  28.094  51.716  1.00  0.00     0.159 HD
HETATM   30  H   UNL     1       1.719  29.802  51.908  1.00  0.00     0.159 HD
HETATM   31  O   UNL     1       4.060  30.356  52.395  1.00  0.00    -0.268 OA
ENDBRANCH  10  27
TORSDOF 4
ENDMDL
MODEL 7
REMARK VINA RESULT:      -8.6      3.725      5.209
REMARK  4 active torsions:
REMARK  status: ('A' for Active; 'I' for Inactive)
REMARK    1  A    between atoms: C_7  and  C_8 
REMARK    2  A    between atoms: C_10  and  O_11 
REMARK    3  A    between atoms: C_17  and  C_18 
REMARK    4  A    between atoms: C_25  and  C_26 
REMARK       I    between atoms: C_26  and  N_27 
ROOT
HETATM    1  C   UNL     1       3.424  30.476  54.034  1.00  0.00     0.070 C 
HETATM    2  C   UNL     1       4.295  29.412  53.412  1.00  0.00     0.037 A 
HETATM    3  N   UNL     1       4.550  28.302  54.208  1.00  0.00    -0.192 N 
HETATM    4  C   UNL     1       5.325  27.273  53.820  1.00  0.00     0.726 A 
HETATM    5  N   UNL     1       5.891  27.293  52.579  1.00  0.00    -0.083 N 
HETATM    6  N   UNL     1       6.705  26.236  52.390  1.00  0.00    -0.135 NA
HETATM    7  C   UNL     1       6.509  25.543  53.529  1.00  0.00     0.199 A 
HETATM    8  N   UNL     1       5.681  26.179  54.440  1.00  0.00    -0.041 NA
HETATM    9  C   UNL     1       5.713  28.381  51.609  1.00  0.00     0.202 A 
HETATM   10  C   UNL     1       4.838  29.493  52.171  1.00  0.00     0.062 A 
HETATM   11  H   UNL     1       4.122  28.272  55.130  1.00  0.00     0.184 HD
ENDROOT
BRANCH   7  12
HETATM   12  C   UNL     1       7.102  24.236  53.794  1.00  0.00     0.017 A 
HETATM   13  C   UNL     1       7.355  23.818  55.113  1.00  0.00     0.052 A 
HETATM   14  C   UNL     1       7.944  22.577  55.366  1.00  0.00     0.069 A 
HETATM   15  C   UNL     1       8.275  21.745  54.295  1.00  0.00     0.037 A 
HETATM   16  C   UNL     1       8.029  22.146  52.981  1.00  0.00     0.004 A 
HETATM   17  C   UNL     1       7.446  23.388  52.732  1.00  0.00     0.015 A 
BRANCH  14  18
HETATM   18  O   UNL     1       8.243  22.066  56.600  1.00  0.00    -0.356 OA
HETATM   19  C   UNL     1       8.619  20.695  56.652  1.00  0.00     0.210 C 
ENDBRANCH  14  18
ENDBRANCH   7  12
BRANCH   9  20
HETATM   20  C   UNL     1       5.222  27.810  50.281  1.00  0.00    -0.028 A 
HETATM   21  C   UNL     1       5.571  28.397  49.050  1.00  0.00     0.012 A 
HETATM   22  C   UNL     1       5.094  27.864  47.851  1.00  0.00     0.043 A 
HETATM   23  C   UNL     1       4.262  26.752  47.875  1.00  0.00     0.116 A 
HETATM   24  F   UNL     1       3.803  26.245  46.724  1.00  0.00    -0.206 F 
HETATM   25  C   UNL     1       3.894  26.161  49.077  1.00  0.00     0.043 A 
HETATM   26  C   UNL     1       4.370  26.689  50.278  1.00  0.00     0.012 A 
ENDBRANCH   9  20
BRANCH  10  27
HETATM   27  C   UNL     1       4.523  30.629  51.277  1.00  0.00     0.249 C 
HETATM   28  N   UNL     1       5.510  31.548  51.120  1.00  0.00    -0.366 N 
HETATM   29  H   UNL     1       6.375  31.563  51.638  1.00  0.00     0.159 HD
HETATM   30  H   UNL     1       5.299  32.343  50.528  1.00  0.00     0.159 HD
HETATM   31  O   UNL     1       3.445  30.745  50.711  1.00  0.00    -0.268 OA
ENDBRANCH  10  27
TORSDOF 4
ENDMDL
MODEL 8
REMARK VINA RESULT:      -8.4      2.954      4.384
REMARK  4 active torsions:
REMARK  status: ('A' for Active; 'I' for Inactive)
REMARK    1  A    between atoms: C_7  and  C_8 
REMARK    2  A    between atoms: C_10  and  O_11 
REMARK    3  A    between atoms: C_17  and  C_18 
REMARK    4  A    between atoms: C_25  and  C_26 
REMARK       I    between atoms: C_26  and  N_27 
ROOT
HETATM    1  C   UNL     1       3.118  30.134  57.097  1.00  0.00     0.070 C 
HETATM    2  C   UNL     1       3.953  29.385  56.087  1.00  0.00     0.037 A 
HETATM    3  N   UNL     1       4.249  28.066  56.411  1.00  0.00    -0.192 N 
HETATM    4  C   UNL     1       5.001  27.263  55.637  1.00  0.00     0.726 A 
HETATM    5  N   UNL     1       5.500  27.744  54.461  1.00  0.00    -0.083 N 
HETATM    6  N   UNL     1       6.301  26.843  53.859  1.00  0.00    -0.135 NA
HETATM    7  C   UNL     1       6.165  25.780  54.676  1.00  0.00     0.199 A 
HETATM    8  N   UNL     1       5.388  26.026  55.797  1.00  0.00    -0.041 NA
HETATM    9  C   UNL     1       5.271  29.106  53.964  1.00  0.00     0.202 A 
HETATM   10  C   UNL     1       4.428  29.922  54.936  1.00  0.00     0.062 A 
HETATM   11  H   UNL     1       3.871  27.696  57.280  1.00  0.00     0.184 HD
ENDROOT
BRANCH   7  12
HETATM   12  C   UNL     1       6.770  24.477  54.417  1.00  0.00     0.017 A 
HETATM   13  C   UNL     1       7.034  23.587  55.473  1.00  0.00     0.052 A 
HETATM   14  C   UNL     1       7.635  22.350  55.228  1.00  0.00     0.069 A 
HETATM   15  C   UNL     1       7.966  21.996  53.919  1.00  0.00     0.037 A 
HETATM   16  C   UNL     1       7.709  22.869  52.861  1.00  0.00     0.004 A 
HETATM   17  C   UNL     1       7.115  24.105  53.110  1.00  0.00     0.015 A 
BRANCH  14  18
HETATM   18  O   UNL     1       7.945  21.407  56.171  1.00  0.00    -0.356 OA
HETATM   19  C   UNL     1       8.837  20.372  55.772  1.00  0.00     0.210 C 
ENDBRANCH  14  18
ENDBRANCH   7  12
BRANCH   9  20
HETATM   20  C   UNL     1       4.708  29.048  52.546  1.00  0.00    -0.028 A 
HETATM   21  C   UNL     1       3.360  28.725  52.298  1.00  0.00     0.012 A 
HETATM   22  C   UNL     1       2.875  28.663  50.991  1.00  0.00     0.043 A 
HETATM   23  C   UNL     1       3.732  28.913  49.927  1.00  0.00     0.116 A 
HETATM   24  F   UNL     1       3.266  28.849  48.673  1.00  0.00    -0.206 F 
HETATM   25  C   UNL     1       5.069  29.222  50.143  1.00  0.00     0.043 A 
HETATM   26  C   UNL     1       5.557  29.288  51.449  1.00  0.00     0.012 A 
ENDBRANCH   9  20
BRANCH  10  27
HETATM   27  C   UNL     1       4.067  31.299  54.533  1.00  0.00     0.249 C 
HETATM   28  N   UNL     1       5.058  32.222  54.633  1.00  0.00    -0.366 N 
HETATM   29  H   UNL     1       5.962  32.059  55.049  1.00  0.00     0.159 HD
HETATM   30  H   UNL     1       4.817  33.174  54.382  1.00  0.00     0.159 HD
HETATM   31  O   UNL     1       2.950  31.600  54.137  1.00  0.00    -0.268 OA
ENDBRANCH  10  27
TORSDOF 4
ENDMDL
MODEL 9
REMARK VINA RESULT:      -8.4      5.595     10.130
REMARK  4 active torsions:
REMARK  status: ('A' for Active; 'I' for Inactive)
REMARK    1  A    between atoms: C_7  and  C_8 
REMARK    2  A    between atoms: C_10  and  O_11 
REMARK    3  A    between atoms: C_17  and  C_18 
REMARK    4  A    between atoms: C_25  and  C_26 
REMARK       I    between atoms: C_26  and  N_27 
ROOT
HETATM    1  C   UNL     1      10.932  29.806  56.768  1.00  0.00     0.070 C 
HETATM    2  C   UNL     1       9.740  30.098  57.647  1.00  0.00     0.037 A 
HETATM    3  N   UNL     1       9.955  31.021  58.665  1.00  0.00    -0.192 N 
HETATM    4  C   UNL     1       9.010  31.379  59.553  1.00  0.00     0.726 A 
HETATM    5  N   UNL     1       7.764  30.830  59.462  1.00  0.00    -0.083 N 
HETATM    6  N   UNL     1       6.974  31.227  60.478  1.00  0.00    -0.135 NA
HETATM    7  C   UNL     1       7.773  32.112  61.105  1.00  0.00     0.199 A 
HETATM    8  N   UNL     1       9.046  32.202  60.566  1.00  0.00    -0.041 NA
HETATM    9  C   UNL     1       7.367  29.852  58.442  1.00  0.00     0.202 A 
HETATM   10  C   UNL     1       8.525  29.511  57.513  1.00  0.00     0.062 A 
HETATM   11  H   UNL     1      10.877  31.445  58.732  1.00  0.00     0.184 HD
ENDROOT
BRANCH   7  12
HETATM   12  C   UNL     1       7.351  32.918  62.247  1.00  0.00     0.017 A 
HETATM   13  C   UNL     1       6.422  33.961  62.084  1.00  0.00     0.052 A 
HETATM   14  C   UNL     1       6.035  34.747  63.172  1.00  0.00     0.069 A 
HETATM   15  C   UNL     1       6.575  34.485  64.433  1.00  0.00     0.037 A 
HETATM   16  C   UNL     1       7.497  33.453  64.609  1.00  0.00     0.004 A 
HETATM   17  C   UNL     1       7.885  32.674  63.520  1.00  0.00     0.015 A 
BRANCH  14  18
HETATM   18  O   UNL     1       5.148  35.789  63.136  1.00  0.00    -0.356 OA
HETATM   19  C   UNL     1       4.541  36.157  64.370  1.00  0.00     0.210 C 
ENDBRANCH  14  18
ENDBRANCH   7  12
BRANCH   9  20
HETATM   20  C   UNL     1       6.112  30.341  57.722  1.00  0.00    -0.028 A 
HETATM   21  C   UNL     1       5.941  31.694  57.373  1.00  0.00     0.012 A 
HETATM   22  C   UNL     1       4.777  32.118  56.730  1.00  0.00     0.043 A 
HETATM   23  C   UNL     1       3.777  31.198  56.441  1.00  0.00     0.116 A 
HETATM   24  F   UNL     1       2.659  31.607  55.827  1.00  0.00    -0.206 F 
HETATM   25  C   UNL     1       3.916  29.860  56.785  1.00  0.00     0.043 A 
HETATM   26  C   UNL     1       5.079  29.431  57.425  1.00  0.00     0.012 A 
ENDBRANCH   9  20
BRANCH  10  27
HETATM   27  C   UNL     1       8.250  28.581  56.395  1.00  0.00     0.249 C 
HETATM   28  N   UNL     1       8.093  29.154  55.175  1.00  0.00    -0.366 N 
HETATM   29  H   UNL     1       8.049  30.146  55.002  1.00  0.00     0.159 HD
HETATM   30  H   UNL     1       7.882  28.529  54.405  1.00  0.00     0.159 HD
HETATM   31  O   UNL     1       8.164  27.370  56.550  1.00  0.00    -0.268 OA
ENDBRANCH  10  27
TORSDOF 4
ENDMDL
MODEL 10
REMARK VINA RESULT:      -8.1      3.945      7.858
REMARK  4 active torsions:
REMARK  status: ('A' for Active; 'I' for Inactive)
REMARK    1  A    between atoms: C_7  and  C_8 
REMARK    2  A    between atoms: C_10  and  O_11 
REMARK    3  A    between atoms: C_17  and  C_18 
REMARK    4  A    between atoms: C_25  and  C_26 
REMARK       I    between atoms: C_26  and  N_27 
ROOT
HETATM    1  C   UNL     1       2.798  31.338  54.338  1.00  0.00     0.070 C 
HETATM    2  C   UNL     1       4.004  30.896  55.130  1.00  0.00     0.037 A 
HETATM    3  N   UNL     1       4.193  31.540  56.347  1.00  0.00    -0.192 N 
HETATM    4  C   UNL     1       5.229  31.285  57.168  1.00  0.00     0.726 A 
HETATM    5  N   UNL     1       6.148  30.341  56.811  1.00  0.00    -0.083 N 
HETATM    6  N   UNL     1       7.161  30.279  57.697  1.00  0.00    -0.135 NA
HETATM    7  C   UNL     1       6.744  31.148  58.639  1.00  0.00     0.199 A 
HETATM    8  N   UNL     1       5.565  31.803  58.319  1.00  0.00    -0.041 NA
HETATM    9  C   UNL     1       6.090  29.562  55.569  1.00  0.00     0.202 A 
HETATM   10  C   UNL     1       4.889  29.955  54.718  1.00  0.00     0.062 A 
HETATM   11  H   UNL     1       3.506  32.236  56.627  1.00  0.00     0.184 HD
ENDROOT
BRANCH   7  12
HETATM   12  C   UNL     1       7.453  31.388  59.892  1.00  0.00     0.017 A 
HETATM   13  C   UNL     1       6.963  32.316  60.827  1.00  0.00     0.052 A 
HETATM   14  C   UNL     1       7.654  32.562  62.016  1.00  0.00     0.069 A 
HETATM   15  C   UNL     1       8.839  31.871  62.275  1.00  0.00     0.037 A 
HETATM   16  C   UNL     1       9.337  30.947  61.357  1.00  0.00     0.004 A 
HETATM   17  C   UNL     1       8.648  30.707  60.169  1.00  0.00     0.015 A 
BRANCH  14  18
HETATM   18  O   UNL     1       7.281  33.443  62.995  1.00  0.00    -0.356 OA
HETATM   19  C   UNL     1       7.583  33.076  64.336  1.00  0.00     0.210 C 
ENDBRANCH  14  18
ENDBRANCH   7  12
BRANCH   9  20
HETATM   20  C   UNL     1       6.163  28.071  55.894  1.00  0.00    -0.028 A 
HETATM   21  C   UNL     1       5.147  27.422  56.620  1.00  0.00     0.012 A 
HETATM   22  C   UNL     1       5.247  26.062  56.917  1.00  0.00     0.043 A 
HETATM   23  C   UNL     1       6.363  25.347  56.500  1.00  0.00     0.116 A 
HETATM   24  F   UNL     1       6.459  24.043  56.790  1.00  0.00    -0.206 F 
HETATM   25  C   UNL     1       7.385  25.967  55.793  1.00  0.00     0.043 A 
HETATM   26  C   UNL     1       7.288  27.325  55.491  1.00  0.00     0.012 A 
ENDBRANCH   9  20
BRANCH  10  27
HETATM   27  C   UNL     1       4.672  29.205  53.461  1.00  0.00     0.249 C 
HETATM   28  N   UNL     1       5.430  29.591  52.403  1.00  0.00    -0.366 N 
HETATM   29  H   UNL     1       6.035  30.398  52.388  1.00  0.00     0.159 HD
HETATM   30  H   UNL     1       5.274  29.101  51.531  1.00  0.00     0.159 HD
HETATM   31  O   UNL     1       3.861  28.294  53.368  1.00  0.00    -0.268 OA
ENDBRANCH  10  27
TORSDOF 4
ENDMDL
