MODEL 1
REMARK VINA RESULT:      -8.4      0.000      0.000
REMARK  8 active torsions:
REMARK  status: ('A' for Active; 'I' for Inactive)
REMARK    1  A    between atoms: C_2  and  O_3 
REMARK    2  A    between atoms: O_3  and  C_4 
REMARK    3  A    between atoms: C_4  and  C_5 
REMARK    4  A    between atoms: C_6  and  O_7 
REMARK    5  A    between atoms: C_6  and  C_8 
REMARK    6  A    between atoms: C_16  and  C_17 
REMARK    7  A    between atoms: C_18  and  C_19 
REMARK    8  A    between atoms: N_26  and  C_27 
ROOT
HETATM    1  C   UNL     1       4.505  33.193  60.830  1.00  0.00     0.177 C 
HETATM    2  C   UNL     1       4.034  34.645  60.717  1.00  0.00     0.250 C 
HETATM    3  N   UNL     1       2.720  34.850  61.296  1.00  0.00    -0.303 N 
HETATM    4  C   UNL     1       2.159  34.084  62.254  1.00  0.00     0.319 C 
HETATM    5  O   UNL     1       1.100  34.405  62.778  1.00  0.00    -0.247 OA
HETATM    6  N   UNL     1       2.798  32.943  62.590  1.00  0.00    -0.333 N 
HETATM    7  C   UNL     1       4.143  32.577  62.181  1.00  0.00     0.142 C 
HETATM    8  H   UNL     1       2.212  35.707  61.107  1.00  0.00     0.167 HD
HETATM    9  H   UNL     1       2.373  32.442  63.362  1.00  0.00     0.165 HD
ENDROOT
BRANCH   7  10
HETATM   10  C   UNL     1       5.089  32.920  63.306  1.00  0.00     0.015 A 
HETATM   11  C   UNL     1       6.517  32.794  63.384  1.00  0.00     0.097 A 
HETATM   12  N   UNL     1       6.962  33.208  64.583  1.00  0.00    -0.167 NA
HETATM   13  N   UNL     1       5.874  33.574  65.290  1.00  0.00    -0.244 N 
HETATM   14  C   UNL     1       4.733  33.400  64.556  1.00  0.00     0.130 A 
BRANCH  11  15
HETATM   15  C   UNL     1       7.497  32.277  62.414  1.00  0.00    -0.005 A 
HETATM   16  C   UNL     1       7.785  32.922  61.206  1.00  0.00     0.014 A 
HETATM   17  C   UNL     1       8.735  32.399  60.319  1.00  0.00     0.001 A 
HETATM   18  C   UNL     1       9.421  31.229  60.634  1.00  0.00     0.000 A 
HETATM   19  C   UNL     1       9.161  30.580  61.836  1.00  0.00     0.001 A 
HETATM   20  C   UNL     1       8.207  31.100  62.715  1.00  0.00     0.014 A 
ENDBRANCH  11  15
BRANCH  13  21
HETATM   21  C   UNL     1       5.988  34.051  66.627  1.00  0.00     0.058 A 
HETATM   22  C   UNL     1       7.261  34.280  67.172  1.00  0.00     0.031 A 
HETATM   23  C   UNL     1       7.392  34.747  68.481  1.00  0.00     0.002 A 
HETATM   24  C   UNL     1       6.258  34.986  69.255  1.00  0.00     0.000 A 
HETATM   25  C   UNL     1       4.990  34.757  68.722  1.00  0.00     0.002 A 
HETATM   26  C   UNL     1       4.850  34.293  67.411  1.00  0.00     0.031 A 
ENDBRANCH  13  21
ENDBRANCH   7  10
BRANCH   1  27
HETATM   27  C   UNL     1       3.973  32.289  59.742  1.00  0.00     0.270 C 
HETATM   28  O   UNL     1       2.775  32.112  59.560  1.00  0.00    -0.265 OA
BRANCH  27  29
HETATM   29  O   UNL     1       4.960  31.763  58.975  1.00  0.00    -0.321 OA
BRANCH  29  30
HETATM   30  C   UNL     1       4.606  31.365  57.640  1.00  0.00     0.174 C 
HETATM   31  C   UNL     1       4.726  29.861  57.479  1.00  0.00     0.034 C 
ENDBRANCH  29  30
ENDBRANCH  27  29
ENDBRANCH   1  27
BRANCH   2  32
HETATM   32  O   UNL     1       4.902  35.454  61.537  1.00  0.00    -0.363 OA
HETATM   33  H   UNL     1       4.900  35.057  62.427  1.00  0.00     0.213 HD
ENDBRANCH   2  32
BRANCH   2  34
HETATM   34  C   UNL     1       4.142  35.174  59.245  1.00  0.00     0.439 C 
HETATM   35  F   UNL     1       4.410  36.497  59.207  1.00  0.00    -0.166 F 
HETATM   36  F   UNL     1       5.079  34.539  58.515  1.00  0.00    -0.166 F 
HETATM   37  F   UNL     1       2.954  34.984  58.612  1.00  0.00    -0.166 F 
ENDBRANCH   2  34
TORSDOF 8
ENDMDL
MODEL 2
REMARK VINA RESULT:      -8.2      7.584     10.985
REMARK  8 active torsions:
REMARK  status: ('A' for Active; 'I' for Inactive)
REMARK    1  A    between atoms: C_2  and  O_3 
REMARK    2  A    between atoms: O_3  and  C_4 
REMARK    3  A    between atoms: C_4  and  C_5 
REMARK    4  A    between atoms: C_6  and  O_7 
REMARK    5  A    between atoms: C_6  and  C_8 
REMARK    6  A    between atoms: C_16  and  C_17 
REMARK    7  A    between atoms: C_18  and  C_19 
REMARK    8  A    between atoms: N_26  and  C_27 
ROOT
HETATM    1  C   UNL     1       4.476  28.603  50.961  1.00  0.00     0.177 C 
HETATM    2  C   UNL     1       4.897  29.979  50.439  1.00  0.00     0.250 C 
HETATM    3  N   UNL     1       3.877  30.989  50.647  1.00  0.00    -0.303 N 
HETATM    4  C   UNL     1       2.916  30.947  51.593  1.00  0.00     0.319 C 
HETATM    5  O   UNL     1       2.175  31.904  51.781  1.00  0.00    -0.247 OA
HETATM    6  N   UNL     1       2.790  29.803  52.300  1.00  0.00    -0.333 N 
HETATM    7  C   UNL     1       3.733  28.699  52.294  1.00  0.00     0.142 C 
HETATM    8  H   UNL     1       3.943  31.880  50.170  1.00  0.00     0.167 HD
HETATM    9  H   UNL     1       2.102  29.850  53.043  1.00  0.00     0.165 HD
ENDROOT
BRANCH   7  10
HETATM   10  C   UNL     1       4.624  28.833  53.505  1.00  0.00     0.015 A 
HETATM   11  C   UNL     1       5.666  27.970  53.987  1.00  0.00     0.097 A 
HETATM   12  N   UNL     1       6.202  28.463  55.117  1.00  0.00    -0.167 NA
HETATM   13  N   UNL     1       5.530  29.598  55.396  1.00  0.00    -0.244 N 
HETATM   14  C   UNL     1       4.567  29.840  54.455  1.00  0.00     0.130 A 
BRANCH  11  15
HETATM   15  C   UNL     1       6.176  26.688  53.471  1.00  0.00    -0.005 A 
HETATM   16  C   UNL     1       7.502  26.505  53.064  1.00  0.00     0.014 A 
HETATM   17  C   UNL     1       7.944  25.262  52.592  1.00  0.00     0.001 A 
HETATM   18  C   UNL     1       7.070  24.180  52.533  1.00  0.00     0.000 A 
HETATM   19  C   UNL     1       5.751  24.337  52.946  1.00  0.00     0.001 A 
HETATM   20  C   UNL     1       5.311  25.580  53.409  1.00  0.00     0.014 A 
ENDBRANCH  11  15
BRANCH  13  21
HETATM   21  C   UNL     1       5.835  30.371  56.551  1.00  0.00     0.058 A 
HETATM   22  C   UNL     1       6.898  29.983  57.381  1.00  0.00     0.031 A 
HETATM   23  C   UNL     1       7.212  30.730  58.519  1.00  0.00     0.002 A 
HETATM   24  C   UNL     1       6.468  31.864  58.838  1.00  0.00     0.000 A 
HETATM   25  C   UNL     1       5.408  32.254  58.021  1.00  0.00     0.002 A 
HETATM   26  C   UNL     1       5.090  31.514  56.879  1.00  0.00     0.031 A 
ENDBRANCH  13  21
ENDBRANCH   7  10
BRANCH   1  27
HETATM   27  C   UNL     1       3.616  27.817  49.998  1.00  0.00     0.270 C 
HETATM   28  O   UNL     1       2.525  28.218  49.613  1.00  0.00    -0.265 OA
BRANCH  27  29
HETATM   29  O   UNL     1       4.216  26.676  49.578  1.00  0.00    -0.321 OA
BRANCH  29  30
HETATM   30  C   UNL     1       4.081  26.343  48.187  1.00  0.00     0.174 C 
HETATM   31  C   UNL     1       3.127  25.177  48.004  1.00  0.00     0.034 C 
ENDBRANCH  29  30
ENDBRANCH  27  29
ENDBRANCH   1  27
BRANCH   2  32
HETATM   32  O   UNL     1       6.003  30.435  51.244  1.00  0.00    -0.363 OA
HETATM   33  H   UNL     1       6.169  29.746  51.912  1.00  0.00     0.213 HD
ENDBRANCH   2  32
BRANCH   2  34
HETATM   34  C   UNL     1       5.389  29.905  48.952  1.00  0.00     0.439 C 
HETATM   35  F   UNL     1       6.216  28.857  48.750  1.00  0.00    -0.166 F 
HETATM   36  F   UNL     1       4.385  29.820  48.058  1.00  0.00    -0.166 F 
HETATM   37  F   UNL     1       6.086  31.034  48.654  1.00  0.00    -0.166 F 
ENDBRANCH   2  34
TORSDOF 8
ENDMDL
MODEL 3
REMARK VINA RESULT:      -8.2      8.857     12.602
REMARK  8 active torsions:
REMARK  status: ('A' for Active; 'I' for Inactive)
REMARK    1  A    between atoms: C_2  and  O_3 
REMARK    2  A    between atoms: O_3  and  C_4 
REMARK    3  A    between atoms: C_4  and  C_5 
REMARK    4  A    between atoms: C_6  and  O_7 
REMARK    5  A    between atoms: C_6  and  C_8 
REMARK    6  A    between atoms: C_16  and  C_17 
REMARK    7  A    between atoms: C_18  and  C_19 
REMARK    8  A    between atoms: N_26  and  C_27 
ROOT
HETATM    1  C   UNL     1       5.279  28.452  52.227  1.00  0.00     0.177 C 
HETATM    2  C   UNL     1       3.882  27.897  51.937  1.00  0.00     0.250 C 
HETATM    3  N   UNL     1       3.821  27.170  50.684  1.00  0.00    -0.303 N 
HETATM    4  C   UNL     1       4.867  26.580  50.070  1.00  0.00     0.319 C 
HETATM    5  O   UNL     1       4.702  25.877  49.081  1.00  0.00    -0.247 OA
HETATM    6  N   UNL     1       6.097  26.817  50.574  1.00  0.00    -0.333 N 
HETATM    7  C   UNL     1       6.379  27.462  51.844  1.00  0.00     0.142 C 
HETATM    8  H   UNL     1       2.922  26.933  50.280  1.00  0.00     0.167 HD
HETATM    9  H   UNL     1       6.838  26.294  50.120  1.00  0.00     0.165 HD
ENDROOT
BRANCH   7  10
HETATM   10  C   UNL     1       6.647  26.388  52.870  1.00  0.00     0.015 A 
HETATM   11  C   UNL     1       6.686  26.467  54.303  1.00  0.00     0.097 A 
HETATM   12  N   UNL     1       6.974  25.265  54.834  1.00  0.00    -0.167 NA
HETATM   13  N   UNL     1       7.146  24.420  53.798  1.00  0.00    -0.244 N 
HETATM   14  C   UNL     1       6.970  25.067  52.606  1.00  0.00     0.130 A 
BRANCH  11  15
HETATM   15  C   UNL     1       6.500  27.609  55.214  1.00  0.00    -0.005 A 
HETATM   16  C   UNL     1       7.463  28.610  55.385  1.00  0.00     0.014 A 
HETATM   17  C   UNL     1       7.237  29.685  56.254  1.00  0.00     0.001 A 
HETATM   18  C   UNL     1       6.037  29.782  56.955  1.00  0.00     0.000 A 
HETATM   19  C   UNL     1       5.061  28.806  56.789  1.00  0.00     0.001 A 
HETATM   20  C   UNL     1       5.293  27.730  55.927  1.00  0.00     0.014 A 
ENDBRANCH  11  15
BRANCH  13  21
HETATM   21  C   UNL     1       7.484  23.054  54.009  1.00  0.00     0.058 A 
HETATM   22  C   UNL     1       7.499  22.540  55.315  1.00  0.00     0.031 A 
HETATM   23  C   UNL     1       7.829  21.201  55.541  1.00  0.00     0.002 A 
HETATM   24  C   UNL     1       8.148  20.369  54.469  1.00  0.00     0.000 A 
HETATM   25  C   UNL     1       8.139  20.873  53.170  1.00  0.00     0.002 A 
HETATM   26  C   UNL     1       7.806  22.210  52.935  1.00  0.00     0.031 A 
ENDBRANCH  13  21
ENDBRANCH   7  10
BRANCH   1  27
HETATM   27  C   UNL     1       5.571  29.768  51.542  1.00  0.00     0.270 C 
HETATM   28  O   UNL     1       5.413  30.848  52.096  1.00  0.00    -0.265 OA
BRANCH  27  29
HETATM   29  O   UNL     1       6.078  29.603  50.295  1.00  0.00    -0.321 OA
BRANCH  29  30
HETATM   30  C   UNL     1       5.623  30.514  49.281  1.00  0.00     0.174 C 
HETATM   31  C   UNL     1       4.686  29.815  48.313  1.00  0.00     0.034 C 
ENDBRANCH  29  30
ENDBRANCH  27  29
ENDBRANCH   1  27
BRANCH   2  32
HETATM   32  O   UNL     1       3.594  26.894  52.932  1.00  0.00    -0.363 OA
HETATM   33  H   UNL     1       4.392  26.343  53.018  1.00  0.00     0.213 HD
ENDBRANCH   2  32
BRANCH   2  34
HETATM   34  C   UNL     1       2.784  29.011  52.052  1.00  0.00     0.439 C 
HETATM   35  F   UNL     1       2.872  29.681  53.221  1.00  0.00    -0.166 F 
HETATM   36  F   UNL     1       2.829  29.913  51.053  1.00  0.00    -0.166 F 
HETATM   37  F   UNL     1       1.554  28.434  52.008  1.00  0.00    -0.166 F 
ENDBRANCH   2  34
TORSDOF 8
ENDMDL
MODEL 4
REMARK VINA RESULT:      -8.2      5.214      8.077
REMARK  8 active torsions:
REMARK  status: ('A' for Active; 'I' for Inactive)
REMARK    1  A    between atoms: C_2  and  O_3 
REMARK    2  A    between atoms: O_3  and  C_4 
REMARK    3  A    between atoms: C_4  and  C_5 
REMARK    4  A    between atoms: C_6  and  O_7 
REMARK    5  A    between atoms: C_6  and  C_8 
REMARK    6  A    between atoms: C_16  and  C_17 
REMARK    7  A    between atoms: C_18  and  C_19 
REMARK    8  A    between atoms: N_26  and  C_27 
ROOT
HETATM    1  C   UNL     1       7.027  28.291  56.261  1.00  0.00     0.177 C 
HETATM    2  C   UNL     1       7.883  27.413  57.177  1.00  0.00     0.250 C 
HETATM    3  N   UNL     1       9.292  27.752  57.115  1.00  0.00    -0.303 N 
HETATM    4  C   UNL     1       9.793  28.951  56.753  1.00  0.00     0.319 C 
HETATM    5  O   UNL     1      10.990  29.190  56.854  1.00  0.00    -0.247 OA
HETATM    6  N   UNL     1       8.928  29.860  56.254  1.00  0.00    -0.333 N 
HETATM    7  C   UNL     1       7.480  29.751  56.280  1.00  0.00     0.142 C 
HETATM    8  H   UNL     1       9.981  27.122  57.510  1.00  0.00     0.167 HD
HETATM    9  H   UNL     1       9.343  30.765  56.064  1.00  0.00     0.165 HD
ENDROOT
BRANCH   7  10
HETATM   10  C   UNL     1       6.967  30.556  57.450  1.00  0.00     0.015 A 
HETATM   11  C   UNL     1       5.760  31.320  57.589  1.00  0.00     0.097 A 
HETATM   12  N   UNL     1       5.702  31.895  58.803  1.00  0.00    -0.167 NA
HETATM   13  N   UNL     1       6.837  31.551  59.443  1.00  0.00    -0.244 N 
HETATM   14  C   UNL     1       7.624  30.759  58.653  1.00  0.00     0.130 A 
BRANCH  11  15
HETATM   15  C   UNL     1       4.663  31.575  56.640  1.00  0.00    -0.005 A 
HETATM   16  C   UNL     1       3.370  31.068  56.817  1.00  0.00     0.014 A 
HETATM   17  C   UNL     1       2.355  31.348  55.893  1.00  0.00     0.001 A 
HETATM   18  C   UNL     1       2.614  32.151  54.786  1.00  0.00     0.000 A 
HETATM   19  C   UNL     1       3.887  32.678  54.598  1.00  0.00     0.001 A 
HETATM   20  C   UNL     1       4.900  32.390  55.517  1.00  0.00     0.014 A 
ENDBRANCH  11  15
BRANCH  13  21
HETATM   21  C   UNL     1       7.108  32.012  60.763  1.00  0.00     0.058 A 
HETATM   22  C   UNL     1       8.273  31.583  61.418  1.00  0.00     0.031 A 
HETATM   23  C   UNL     1       8.555  32.025  62.712  1.00  0.00     0.002 A 
HETATM   24  C   UNL     1       7.679  32.892  63.362  1.00  0.00     0.000 A 
HETATM   25  C   UNL     1       6.518  33.319  62.720  1.00  0.00     0.002 A 
HETATM   26  C   UNL     1       6.230  32.885  61.423  1.00  0.00     0.031 A 
ENDBRANCH  13  21
ENDBRANCH   7  10
BRANCH   1  27
HETATM   27  C   UNL     1       6.993  27.828  54.823  1.00  0.00     0.270 C 
HETATM   28  O   UNL     1       7.980  27.855  54.099  1.00  0.00    -0.265 OA
BRANCH  27  29
HETATM   29  O   UNL     1       5.783  27.332  54.465  1.00  0.00    -0.321 OA
BRANCH  29  30
HETATM   30  C   UNL     1       4.624  28.048  54.925  1.00  0.00     0.174 C 
HETATM   31  C   UNL     1       3.913  28.720  53.765  1.00  0.00     0.034 C 
ENDBRANCH  29  30
ENDBRANCH  27  29
ENDBRANCH   1  27
BRANCH   2  32
HETATM   32  O   UNL     1       7.516  27.711  58.540  1.00  0.00    -0.363 OA
HETATM   33  H   UNL     1       8.335  27.961  59.004  1.00  0.00     0.213 HD
ENDBRANCH   2  32
BRANCH   2  34
HETATM   34  C   UNL     1       7.611  25.888  56.934  1.00  0.00     0.439 C 
HETATM   35  F   UNL     1       6.290  25.608  56.947  1.00  0.00    -0.166 F 
HETATM   36  F   UNL     1       8.120  25.431  55.774  1.00  0.00    -0.166 F 
HETATM   37  F   UNL     1       8.188  25.165  57.930  1.00  0.00    -0.166 F 
ENDBRANCH   2  34
TORSDOF 8
ENDMDL
MODEL 5
REMARK VINA RESULT:      -8.1      8.201     11.890
REMARK  8 active torsions:
REMARK  status: ('A' for Active; 'I' for Inactive)
REMARK    1  A    between atoms: C_2  and  O_3 
REMARK    2  A    between atoms: O_3  and  C_4 
REMARK    3  A    between atoms: C_4  and  C_5 
REMARK    4  A    between atoms: C_6  and  O_7 
REMARK    5  A    between atoms: C_6  and  C_8 
REMARK    6  A    between atoms: C_16  and  C_17 
REMARK    7  A    between atoms: C_18  and  C_19 
REMARK    8  A    between atoms: N_26  and  C_27 
ROOT
HETATM    1  C   UNL     1       4.074  28.703  51.058  1.00  0.00     0.177 C 
HETATM    2  C   UNL     1       5.077  29.859  51.084  1.00  0.00     0.250 C 
HETATM    3  N   UNL     1       4.659  30.938  51.960  1.00  0.00    -0.303 N 
HETATM    4  C   UNL     1       3.822  30.813  53.010  1.00  0.00     0.319 C 
HETATM    5  O   UNL     1       3.626  31.750  53.774  1.00  0.00    -0.247 OA
HETATM    6  N   UNL     1       3.194  29.628  53.166  1.00  0.00    -0.333 N 
HETATM    7  C   UNL     1       3.505  28.406  52.446  1.00  0.00     0.142 C 
HETATM    8  H   UNL     1       5.123  31.837  51.910  1.00  0.00     0.167 HD
HETATM    9  H   UNL     1       2.632  29.565  54.008  1.00  0.00     0.165 HD
ENDROOT
BRANCH   7  10
HETATM   10  C   UNL     1       4.391  27.554  53.322  1.00  0.00     0.015 A 
HETATM   11  C   UNL     1       4.888  27.794  54.647  1.00  0.00     0.097 A 
HETATM   12  N   UNL     1       5.660  26.772  55.054  1.00  0.00    -0.167 NA
HETATM   13  N   UNL     1       5.700  25.893  54.033  1.00  0.00    -0.244 N 
HETATM   14  C   UNL     1       4.959  26.339  52.973  1.00  0.00     0.130 A 
BRANCH  11  15
HETATM   15  C   UNL     1       4.711  28.942  55.552  1.00  0.00    -0.005 A 
HETATM   16  C   UNL     1       3.521  29.188  56.246  1.00  0.00     0.014 A 
HETATM   17  C   UNL     1       3.404  30.287  57.107  1.00  0.00     0.001 A 
HETATM   18  C   UNL     1       4.481  31.149  57.298  1.00  0.00     0.000 A 
HETATM   19  C   UNL     1       5.678  30.914  56.630  1.00  0.00     0.001 A 
HETATM   20  C   UNL     1       5.789  29.822  55.765  1.00  0.00     0.014 A 
ENDBRANCH  11  15
BRANCH  13  21
HETATM   21  C   UNL     1       6.456  24.689  54.125  1.00  0.00     0.058 A 
HETATM   22  C   UNL     1       6.949  24.093  52.954  1.00  0.00     0.031 A 
HETATM   23  C   UNL     1       7.692  22.912  53.025  1.00  0.00     0.002 A 
HETATM   24  C   UNL     1       7.944  22.318  54.260  1.00  0.00     0.000 A 
HETATM   25  C   UNL     1       7.453  22.901  55.426  1.00  0.00     0.002 A 
HETATM   26  C   UNL     1       6.712  24.085  55.365  1.00  0.00     0.031 A 
ENDBRANCH  13  21
ENDBRANCH   7  10
BRANCH   1  27
HETATM   27  C   UNL     1       2.915  28.916  50.111  1.00  0.00     0.270 C 
HETATM   28  O   UNL     1       2.068  29.782  50.291  1.00  0.00    -0.265 OA
BRANCH  27  29
HETATM   29  O   UNL     1       2.967  28.095  49.033  1.00  0.00    -0.321 OA
BRANCH  29  30
HETATM   30  C   UNL     1       3.807  26.934  49.139  1.00  0.00     0.174 C 
HETATM   31  C   UNL     1       4.197  26.426  47.763  1.00  0.00     0.034 C 
ENDBRANCH  29  30
ENDBRANCH  27  29
ENDBRANCH   1  27
BRANCH   2  32
HETATM   32  O   UNL     1       6.291  29.373  51.691  1.00  0.00    -0.363 OA
HETATM   33  H   UNL     1       7.024  29.633  51.104  1.00  0.00     0.213 HD
ENDBRANCH   2  32
BRANCH   2  34
HETATM   34  C   UNL     1       5.430  30.349  49.637  1.00  0.00     0.439 C 
HETATM   35  F   UNL     1       5.814  29.327  48.843  1.00  0.00    -0.166 F 
HETATM   36  F   UNL     1       4.416  30.991  49.026  1.00  0.00    -0.166 F 
HETATM   37  F   UNL     1       6.468  31.224  49.701  1.00  0.00    -0.166 F 
ENDBRANCH   2  34
TORSDOF 8
ENDMDL
MODEL 6
REMARK VINA RESULT:      -8.1      9.837     13.244
REMARK  8 active torsions:
REMARK  status: ('A' for Active; 'I' for Inactive)
REMARK    1  A    between atoms: C_2  and  O_3 
REMARK    2  A    between atoms: O_3  and  C_4 
REMARK    3  A    between atoms: C_4  and  C_5 
REMARK    4  A    between atoms: C_6  and  O_7 
REMARK    5  A    between atoms: C_6  and  C_8 
REMARK    6  A    between atoms: C_16  and  C_17 
REMARK    7  A    between atoms: C_18  and  C_19 
REMARK    8  A    between atoms: N_26  and  C_27 
ROOT
HETATM    1  C   UNL     1       3.630  27.781  49.938  1.00  0.00     0.177 C 
HETATM    2  C   UNL     1       4.898  27.631  49.093  1.00  0.00     0.250 C 
HETATM    3  N   UNL     1       5.696  28.842  49.067  1.00  0.00    -0.303 N 
HETATM    4  C   UNL     1       5.685  29.806  50.010  1.00  0.00     0.319 C 
HETATM    5  O   UNL     1       6.486  30.732  49.974  1.00  0.00    -0.247 OA
HETATM    6  N   UNL     1       4.742  29.722  50.974  1.00  0.00    -0.333 N 
HETATM    7  C   UNL     1       3.887  28.575  51.220  1.00  0.00     0.142 C 
HETATM    8  H   UNL     1       6.442  28.941  48.389  1.00  0.00     0.167 HD
HETATM    9  H   UNL     1       4.823  30.431  51.694  1.00  0.00     0.165 HD
ENDROOT
BRANCH   7  10
HETATM   10  C   UNL     1       4.486  27.772  52.349  1.00  0.00     0.015 A 
HETATM   11  C   UNL     1       4.522  28.043  53.758  1.00  0.00     0.097 A 
HETATM   12  N   UNL     1       5.172  27.063  54.411  1.00  0.00    -0.167 NA
HETATM   13  N   UNL     1       5.578  26.183  53.474  1.00  0.00    -0.244 N 
HETATM   14  C   UNL     1       5.193  26.588  52.224  1.00  0.00     0.130 A 
BRANCH  11  15
HETATM   15  C   UNL     1       4.011  29.183  54.537  1.00  0.00    -0.005 A 
HETATM   16  C   UNL     1       3.517  30.351  53.944  1.00  0.00     0.014 A 
HETATM   17  C   UNL     1       3.030  31.405  54.726  1.00  0.00     0.001 A 
HETATM   18  C   UNL     1       3.015  31.302  56.115  1.00  0.00     0.000 A 
HETATM   19  C   UNL     1       3.486  30.145  56.725  1.00  0.00     0.001 A 
HETATM   20  C   UNL     1       3.980  29.098  55.942  1.00  0.00     0.014 A 
ENDBRANCH  11  15
BRANCH  13  21
HETATM   21  C   UNL     1       6.321  25.021  53.825  1.00  0.00     0.058 A 
HETATM   22  C   UNL     1       6.872  24.222  52.812  1.00  0.00     0.031 A 
HETATM   23  C   UNL     1       7.604  23.077  53.138  1.00  0.00     0.002 A 
HETATM   24  C   UNL     1       7.787  22.722  54.473  1.00  0.00     0.000 A 
HETATM   25  C   UNL     1       7.239  23.508  55.485  1.00  0.00     0.002 A 
HETATM   26  C   UNL     1       6.509  24.657  55.167  1.00  0.00     0.031 A 
ENDBRANCH  13  21
ENDBRANCH   7  10
BRANCH   1  27
HETATM   27  C   UNL     1       2.478  28.430  49.206  1.00  0.00     0.270 C 
HETATM   28  O   UNL     1       2.443  29.630  48.965  1.00  0.00    -0.265 OA
BRANCH  27  29
HETATM   29  O   UNL     1       1.545  27.531  48.806  1.00  0.00    -0.321 OA
BRANCH  29  30
HETATM   30  C   UNL     1       0.654  27.940  47.754  1.00  0.00     0.174 C 
HETATM   31  C   UNL     1       0.846  27.076  46.522  1.00  0.00     0.034 C 
ENDBRANCH  29  30
ENDBRANCH  27  29
ENDBRANCH   1  27
BRANCH   2  32
HETATM   32  O   UNL     1       5.750  26.670  49.747  1.00  0.00    -0.363 OA
HETATM   33  H   UNL     1       5.887  25.939  49.118  1.00  0.00     0.213 HD
ENDBRANCH   2  32
BRANCH   2  34
HETATM   34  C   UNL     1       4.574  27.083  47.660  1.00  0.00     0.439 C 
HETATM   35  F   UNL     1       3.836  25.953  47.712  1.00  0.00    -0.166 F 
HETATM   36  F   UNL     1       3.923  27.968  46.881  1.00  0.00    -0.166 F 
HETATM   37  F   UNL     1       5.736  26.778  47.024  1.00  0.00    -0.166 F 
ENDBRANCH   2  34
TORSDOF 8
ENDMDL
MODEL 7
REMARK VINA RESULT:      -8.0     10.060     12.625
REMARK  8 active torsions:
REMARK  status: ('A' for Active; 'I' for Inactive)
REMARK    1  A    between atoms: C_2  and  O_3 
REMARK    2  A    between atoms: O_3  and  C_4 
REMARK    3  A    between atoms: C_4  and  C_5 
REMARK    4  A    between atoms: C_6  and  O_7 
REMARK    5  A    between atoms: C_6  and  C_8 
REMARK    6  A    between atoms: C_16  and  C_17 
REMARK    7  A    between atoms: C_18  and  C_19 
REMARK    8  A    between atoms: N_26  and  C_27 
ROOT
HETATM    1  C   UNL     1       3.645  29.971  50.948  1.00  0.00     0.177 C 
HETATM    2  C   UNL     1       4.764  30.947  51.321  1.00  0.00     0.250 C 
HETATM    3  N   UNL     1       4.610  31.485  52.660  1.00  0.00    -0.303 N 
HETATM    4  C   UNL     1       3.935  30.894  53.667  1.00  0.00     0.319 C 
HETATM    5  O   UNL     1       3.965  31.355  54.801  1.00  0.00    -0.247 OA
HETATM    6  N   UNL     1       3.209  29.795  53.368  1.00  0.00    -0.333 N 
HETATM    7  C   UNL     1       3.266  29.060  52.117  1.00  0.00     0.142 C 
HETATM    8  H   UNL     1       5.160  32.286  52.948  1.00  0.00     0.167 HD
HETATM    9  H   UNL     1       2.780  29.352  54.172  1.00  0.00     0.165 HD
ENDROOT
BRANCH   7  10
HETATM   10  C   UNL     1       4.174  27.870  52.309  1.00  0.00     0.015 A 
HETATM   11  C   UNL     1       4.774  26.998  51.340  1.00  0.00     0.097 A 
HETATM   12  N   UNL     1       5.508  26.050  51.948  1.00  0.00    -0.167 NA
HETATM   13  N   UNL     1       5.384  26.262  53.273  1.00  0.00    -0.244 N 
HETATM   14  C   UNL     1       4.579  27.339  53.523  1.00  0.00     0.130 A 
BRANCH  11  15
HETATM   15  C   UNL     1       4.680  26.975  49.870  1.00  0.00    -0.005 A 
HETATM   16  C   UNL     1       5.343  27.896  49.050  1.00  0.00     0.014 A 
HETATM   17  C   UNL     1       5.233  27.827  47.656  1.00  0.00     0.001 A 
HETATM   18  C   UNL     1       4.470  26.827  47.059  1.00  0.00     0.000 A 
HETATM   19  C   UNL     1       3.814  25.893  47.854  1.00  0.00     0.001 A 
HETATM   20  C   UNL     1       3.919  25.969  49.246  1.00  0.00     0.014 A 
ENDBRANCH  11  15
BRANCH  13  21
HETATM   21  C   UNL     1       6.028  25.415  54.219  1.00  0.00     0.058 A 
HETATM   22  C   UNL     1       6.757  24.304  53.768  1.00  0.00     0.031 A 
HETATM   23  C   UNL     1       7.395  23.462  54.682  1.00  0.00     0.002 A 
HETATM   24  C   UNL     1       7.307  23.719  56.049  1.00  0.00     0.000 A 
HETATM   25  C   UNL     1       6.580  24.817  56.505  1.00  0.00     0.002 A 
HETATM   26  C   UNL     1       5.943  25.667  55.597  1.00  0.00     0.031 A 
ENDBRANCH  13  21
ENDBRANCH   7  10
BRANCH   1  27
HETATM   27  C   UNL     1       2.387  30.642  50.447  1.00  0.00     0.270 C 
HETATM   28  O   UNL     1       1.744  31.429  51.130  1.00  0.00    -0.265 OA
BRANCH  27  29
HETATM   29  O   UNL     1       2.104  30.321  49.161  1.00  0.00    -0.321 OA
BRANCH  29  30
HETATM   30  C   UNL     1       1.617  28.991  48.913  1.00  0.00     0.174 C 
HETATM   31  C   UNL     1       1.359  28.781  47.432  1.00  0.00     0.034 C 
ENDBRANCH  29  30
ENDBRANCH  27  29
ENDBRANCH   1  27
BRANCH   2  32
HETATM   32  O   UNL     1       5.995  30.198  51.390  1.00  0.00    -0.363 OA
HETATM   33  H   UNL     1       6.496  30.547  52.148  1.00  0.00     0.213 HD
ENDBRANCH   2  32
BRANCH   2  34
HETATM   34  C   UNL     1       4.944  32.061  50.232  1.00  0.00     0.439 C 
HETATM   35  F   UNL     1       4.848  31.559  48.982  1.00  0.00    -0.166 F 
HETATM   36  F   UNL     1       4.058  33.068  50.344  1.00  0.00    -0.166 F 
HETATM   37  F   UNL     1       6.182  32.610  50.353  1.00  0.00    -0.166 F 
ENDBRANCH   2  34
TORSDOF 8
ENDMDL
MODEL 8
REMARK VINA RESULT:      -7.7      3.182      7.234
REMARK  8 active torsions:
REMARK  status: ('A' for Active; 'I' for Inactive)
REMARK    1  A    between atoms: C_2  and  O_3 
REMARK    2  A    between atoms: O_3  and  C_4 
REMARK    3  A    between atoms: C_4  and  C_5 
REMARK    4  A    between atoms: C_6  and  O_7 
REMARK    5  A    between atoms: C_6  and  C_8 
REMARK    6  A    between atoms: C_16  and  C_17 
REMARK    7  A    between atoms: C_18  and  C_19 
REMARK    8  A    between atoms: N_26  and  C_27 
ROOT
HETATM    1  C   UNL     1       4.339  34.565  61.003  1.00  0.00     0.177 C 
HETATM    2  C   UNL     1       2.965  34.073  61.464  1.00  0.00     0.250 C 
HETATM    3  N   UNL     1       1.887  34.570  60.631  1.00  0.00    -0.303 N 
HETATM    4  C   UNL     1       2.011  34.966  59.347  1.00  0.00     0.319 C 
HETATM    5  O   UNL     1       1.025  35.250  58.678  1.00  0.00    -0.247 OA
HETATM    6  N   UNL     1       3.260  35.062  58.843  1.00  0.00    -0.333 N 
HETATM    7  C   UNL     1       4.467  34.563  59.480  1.00  0.00     0.142 C 
HETATM    8  H   UNL     1       0.927  34.489  60.944  1.00  0.00     0.167 HD
HETATM    9  H   UNL     1       3.292  35.294  57.857  1.00  0.00     0.165 HD
ENDROOT
BRANCH   7  10
HETATM   10  C   UNL     1       4.799  33.220  58.876  1.00  0.00     0.015 A 
HETATM   11  C   UNL     1       5.771  32.242  59.274  1.00  0.00     0.097 A 
HETATM   12  N   UNL     1       5.743  31.184  58.445  1.00  0.00    -0.167 NA
HETATM   13  N   UNL     1       4.807  31.453  57.513  1.00  0.00    -0.244 N 
HETATM   14  C   UNL     1       4.232  32.674  57.736  1.00  0.00     0.130 A 
BRANCH  11  15
HETATM   15  C   UNL     1       6.754  32.246  60.370  1.00  0.00    -0.005 A 
HETATM   16  C   UNL     1       6.389  32.201  61.720  1.00  0.00     0.014 A 
HETATM   17  C   UNL     1       7.361  32.194  62.729  1.00  0.00     0.001 A 
HETATM   18  C   UNL     1       8.714  32.219  62.402  1.00  0.00     0.000 A 
HETATM   19  C   UNL     1       9.099  32.249  61.066  1.00  0.00     0.001 A 
HETATM   20  C   UNL     1       8.127  32.264  60.062  1.00  0.00     0.014 A 
ENDBRANCH  11  15
BRANCH  13  21
HETATM   21  C   UNL     1       4.531  30.537  56.458  1.00  0.00     0.058 A 
HETATM   22  C   UNL     1       4.736  29.164  56.664  1.00  0.00     0.031 A 
HETATM   23  C   UNL     1       4.471  28.252  55.641  1.00  0.00     0.002 A 
HETATM   24  C   UNL     1       4.004  28.701  54.407  1.00  0.00     0.000 A 
HETATM   25  C   UNL     1       3.803  30.063  54.192  1.00  0.00     0.002 A 
HETATM   26  C   UNL     1       4.062  30.983  55.213  1.00  0.00     0.031 A 
ENDBRANCH  13  21
ENDBRANCH   7  10
BRANCH   1  27
HETATM   27  C   UNL     1       4.697  35.946  61.503  1.00  0.00     0.270 C 
HETATM   28  O   UNL     1       4.131  36.957  61.107  1.00  0.00    -0.265 OA
BRANCH  27  29
HETATM   29  O   UNL     1       5.652  35.918  62.465  1.00  0.00    -0.321 OA
BRANCH  29  30
HETATM   30  C   UNL     1       5.812  37.106  63.259  1.00  0.00     0.174 C 
HETATM   31  C   UNL     1       5.075  36.974  64.578  1.00  0.00     0.034 C 
ENDBRANCH  29  30
ENDBRANCH  27  29
ENDBRANCH   1  27
BRANCH   2  32
HETATM   32  O   UNL     1       2.921  32.645  61.269  1.00  0.00    -0.363 OA
HETATM   33  H   UNL     1       2.635  32.494  60.350  1.00  0.00     0.213 HD
ENDBRANCH   2  32
BRANCH   2  34
HETATM   34  C   UNL     1       2.735  34.352  62.990  1.00  0.00     0.439 C 
HETATM   35  F   UNL     1       3.769  33.914  63.740  1.00  0.00    -0.166 F 
HETATM   36  F   UNL     1       2.539  35.654  63.274  1.00  0.00    -0.166 F 
HETATM   37  F   UNL     1       1.624  33.687  63.405  1.00  0.00    -0.166 F 
ENDBRANCH   2  34
TORSDOF 8
ENDMDL
MODEL 9
REMARK VINA RESULT:      -7.5     10.845     13.959
REMARK  8 active torsions:
REMARK  status: ('A' for Active; 'I' for Inactive)
REMARK    1  A    between atoms: C_2  and  O_3 
REMARK    2  A    between atoms: O_3  and  C_4 
REMARK    3  A    between atoms: C_4  and  C_5 
REMARK    4  A    between atoms: C_6  and  O_7 
REMARK    5  A    between atoms: C_6  and  C_8 
REMARK    6  A    between atoms: C_16  and  C_17 
REMARK    7  A    between atoms: C_18  and  C_19 
REMARK    8  A    between atoms: N_26  and  C_27 
ROOT
HETATM    1  C   UNL     1       3.447  29.073  49.113  1.00  0.00     0.177 C 
HETATM    2  C   UNL     1       2.954  27.798  48.423  1.00  0.00     0.250 C 
HETATM    3  N   UNL     1       3.931  27.250  47.502  1.00  0.00    -0.303 N 
HETATM    4  C   UNL     1       5.264  27.451  47.565  1.00  0.00     0.319 C 
HETATM    5  O   UNL     1       6.028  26.845  46.824  1.00  0.00    -0.247 OA
HETATM    6  N   UNL     1       5.714  28.361  48.456  1.00  0.00    -0.333 N 
HETATM    7  C   UNL     1       4.922  28.977  49.506  1.00  0.00     0.142 C 
HETATM    8  H   UNL     1       3.655  26.537  46.837  1.00  0.00     0.167 HD
HETATM    9  H   UNL     1       6.724  28.421  48.511  1.00  0.00     0.165 HD
ENDROOT
BRANCH   7  10
HETATM   10  C   UNL     1       5.186  28.235  50.794  1.00  0.00     0.015 A 
HETATM   11  C   UNL     1       4.910  28.612  52.151  1.00  0.00     0.097 A 
HETATM   12  N   UNL     1       5.322  27.654  52.999  1.00  0.00    -0.167 NA
HETATM   13  N   UNL     1       5.876  26.685  52.243  1.00  0.00    -0.244 N 
HETATM   14  C   UNL     1       5.822  27.011  50.916  1.00  0.00     0.130 A 
BRANCH  11  15
HETATM   15  C   UNL     1       4.308  29.833  52.712  1.00  0.00    -0.005 A 
HETATM   16  C   UNL     1       4.224  31.036  52.002  1.00  0.00     0.014 A 
HETATM   17  C   UNL     1       3.632  32.170  52.573  1.00  0.00     0.001 A 
HETATM   18  C   UNL     1       3.101  32.113  53.859  1.00  0.00     0.000 A 
HETATM   19  C   UNL     1       3.160  30.923  54.577  1.00  0.00     0.001 A 
HETATM   20  C   UNL     1       3.759  29.796  54.008  1.00  0.00     0.014 A 
ENDBRANCH  11  15
BRANCH  13  21
HETATM   21  C   UNL     1       6.437  25.518  52.834  1.00  0.00     0.058 A 
HETATM   22  C   UNL     1       7.351  24.745  52.102  1.00  0.00     0.031 A 
HETATM   23  C   UNL     1       7.911  23.596  52.665  1.00  0.00     0.002 A 
HETATM   24  C   UNL     1       7.562  23.209  53.958  1.00  0.00     0.000 A 
HETATM   25  C   UNL     1       6.651  23.970  54.690  1.00  0.00     0.002 A 
HETATM   26  C   UNL     1       6.089  25.123  54.135  1.00  0.00     0.031 A 
ENDBRANCH  13  21
ENDBRANCH   7  10
BRANCH   1  27
HETATM   27  C   UNL     1       3.259  30.328  48.293  1.00  0.00     0.270 C 
HETATM   28  O   UNL     1       3.774  30.479  47.192  1.00  0.00    -0.265 OA
BRANCH  27  29
HETATM   29  O   UNL     1       2.420  31.214  48.884  1.00  0.00    -0.321 OA
BRANCH  29  30
HETATM   30  C   UNL     1       1.617  32.030  48.016  1.00  0.00     0.174 C 
HETATM   31  C   UNL     1       0.169  32.033  48.468  1.00  0.00     0.034 C 
ENDBRANCH  29  30
ENDBRANCH  27  29
ENDBRANCH   1  27
BRANCH   2  32
HETATM   32  O   UNL     1       2.820  26.776  49.431  1.00  0.00    -0.363 OA
HETATM   33  H   UNL     1       2.994  27.202  50.290  1.00  0.00     0.213 HD
ENDBRANCH   2  32
BRANCH   2  34
HETATM   34  C   UNL     1       1.546  28.007  47.766  1.00  0.00     0.439 C 
HETATM   35  F   UNL     1       0.756  28.804  48.518  1.00  0.00    -0.166 F 
HETATM   36  F   UNL     1       1.604  28.531  46.527  1.00  0.00    -0.166 F 
HETATM   37  F   UNL     1       0.920  26.805  47.656  1.00  0.00    -0.166 F 
ENDBRANCH   2  34
TORSDOF 8
ENDMDL
MODEL 10
REMARK VINA RESULT:      -7.3      3.642      7.709
REMARK  8 active torsions:
REMARK  status: ('A' for Active; 'I' for Inactive)
REMARK    1  A    between atoms: C_2  and  O_3 
REMARK    2  A    between atoms: O_3  and  C_4 
REMARK    3  A    between atoms: C_4  and  C_5 
REMARK    4  A    between atoms: C_6  and  O_7 
REMARK    5  A    between atoms: C_6  and  C_8 
REMARK    6  A    between atoms: C_16  and  C_17 
REMARK    7  A    between atoms: C_18  and  C_19 
REMARK    8  A    between atoms: N_26  and  C_27 
ROOT
HETATM    1  C   UNL     1       5.284  34.618  63.874  1.00  0.00     0.177 C 
HETATM    2  C   UNL     1       6.244  33.565  63.315  1.00  0.00     0.250 C 
HETATM    3  N   UNL     1       5.569  32.333  62.954  1.00  0.00    -0.303 N 
HETATM    4  C   UNL     1       4.264  32.221  62.633  1.00  0.00     0.319 C 
HETATM    5  O   UNL     1       3.806  31.165  62.215  1.00  0.00    -0.247 OA
HETATM    6  N   UNL     1       3.484  33.308  62.816  1.00  0.00    -0.333 N 
HETATM    7  C   UNL     1       3.959  34.648  63.111  1.00  0.00     0.142 C 
HETATM    8  H   UNL     1       6.110  31.496  62.769  1.00  0.00     0.167 HD
HETATM    9  H   UNL     1       2.530  33.191  62.494  1.00  0.00     0.165 HD
ENDROOT
BRANCH   7  10
HETATM   10  C   UNL     1       3.991  35.432  61.821  1.00  0.00     0.015 A 
HETATM   11  C   UNL     1       4.574  36.711  61.531  1.00  0.00     0.097 A 
HETATM   12  N   UNL     1       4.359  37.047  60.247  1.00  0.00    -0.167 NA
HETATM   13  N   UNL     1       3.640  36.045  59.705  1.00  0.00    -0.244 N 
HETATM   14  C   UNL     1       3.391  35.067  60.628  1.00  0.00     0.130 A 
BRANCH  11  15
HETATM   15  C   UNL     1       5.298  37.662  62.392  1.00  0.00    -0.005 A 
HETATM   16  C   UNL     1       4.985  37.857  63.742  1.00  0.00     0.014 A 
HETATM   17  C   UNL     1       5.710  38.764  64.525  1.00  0.00     0.001 A 
HETATM   18  C   UNL     1       6.769  39.480  63.973  1.00  0.00     0.000 A 
HETATM   19  C   UNL     1       7.107  39.291  62.637  1.00  0.00     0.001 A 
HETATM   20  C   UNL     1       6.376  38.391  61.856  1.00  0.00     0.014 A 
ENDBRANCH  11  15
BRANCH  13  21
HETATM   21  C   UNL     1       3.219  36.090  58.345  1.00  0.00     0.058 A 
HETATM   22  C   UNL     1       2.412  35.061  57.838  1.00  0.00     0.031 A 
HETATM   23  C   UNL     1       1.990  35.088  56.506  1.00  0.00     0.002 A 
HETATM   24  C   UNL     1       2.373  36.137  55.673  1.00  0.00     0.000 A 
HETATM   25  C   UNL     1       3.179  37.161  56.168  1.00  0.00     0.002 A 
HETATM   26  C   UNL     1       3.602  37.143  57.500  1.00  0.00     0.031 A 
ENDBRANCH  13  21
ENDBRANCH   7  10
BRANCH   1  27
HETATM   27  C   UNL     1       4.976  34.450  65.344  1.00  0.00     0.270 C 
HETATM   28  O   UNL     1       4.314  33.515  65.776  1.00  0.00    -0.265 OA
BRANCH  27  29
HETATM   29  O   UNL     1       5.563  35.403  66.110  1.00  0.00    -0.321 OA
BRANCH  29  30
HETATM   30  C   UNL     1       5.459  35.249  67.535  1.00  0.00     0.174 C 
HETATM   31  C   UNL     1       6.678  34.534  68.088  1.00  0.00     0.034 C 
ENDBRANCH  29  30
ENDBRANCH  27  29
ENDBRANCH   1  27
BRANCH   2  32
HETATM   32  O   UNL     1       6.755  34.059  62.060  1.00  0.00    -0.363 OA
HETATM   33  H   UNL     1       7.457  34.699  62.274  1.00  0.00     0.213 HD
ENDBRANCH   2  32
BRANCH   2  34
HETATM   34  C   UNL     1       7.466  33.335  64.270  1.00  0.00     0.439 C 
HETATM   35  F   UNL     1       8.457  32.651  63.658  1.00  0.00    -0.166 F 
HETATM   36  F   UNL     1       7.989  34.477  64.756  1.00  0.00    -0.166 F 
HETATM   37  F   UNL     1       7.067  32.597  65.340  1.00  0.00    -0.166 F 
ENDBRANCH   2  34
TORSDOF 8
ENDMDL
