MODEL 1
REMARK VINA RESULT:      -9.5      0.000      0.000
REMARK  10 active torsions:
REMARK  status: ('A' for Active; 'I' for Inactive)
REMARK    1  A    between atoms: C_6  and  C_7 
REMARK    2  A    between atoms: C_7  and  C_8 
REMARK       I    between atoms: C_8  and  N_9 
REMARK    3  A    between atoms: N_9  and  C_10 
REMARK    4  A    between atoms: C_10  and  C_11 
REMARK    5  A    between atoms: C_11  and  N_12 
REMARK    6  A    between atoms: C_17  and  C_18 
REMARK    7  A    between atoms: C_27  and  C_28 
REMARK    8  A    between atoms: C_28  and  O_29 
REMARK    9  A    between atoms: O_29  and  C_30 
REMARK   10  A    between atoms: C_30  and  C_31 
ROOT
HETATM    1  C   UNL     1       4.947  25.047  53.050  1.00  0.00     0.071 C 
HETATM    2  C   UNL     1       5.468  26.409  53.447  1.00  0.00     0.048 C 
HETATM    3  N   UNL     1       4.885  27.470  52.743  1.00  0.00    -0.229 NA
HETATM    4  C   UNL     1       4.779  28.593  53.382  1.00  0.00     0.170 C 
HETATM    5  N   UNL     1       5.471  28.835  54.764  1.00  0.00    -0.318 N 
HETATM    6  C   UNL     1       4.633  29.431  55.546  1.00  0.00     0.011 C 
HETATM    7  C   UNL     1       6.712  28.046  54.742  1.00  0.00     0.169 C 
HETATM    8  S   UNL     1       3.671  29.861  53.023  1.00  0.00    -0.086 SA
HETATM    9  C   UNL     1       3.551  30.224  54.819  1.00  0.00     0.135 C 
HETATM   10  C   UNL     1       6.277  26.635  54.515  1.00  0.00     0.069 C 
ENDROOT
BRANCH   6  11
HETATM   11  C   UNL     1       4.672  29.262  57.040  1.00  0.00     0.156 C 
BRANCH  11  12
HETATM   12  C   UNL     1       4.875  30.588  57.755  1.00  0.00     0.223 C 
HETATM   13  N   UNL     1       4.013  30.890  58.774  1.00  0.00    -0.359 N 
HETATM   14  H   UNL     1       3.274  30.226  59.013  1.00  0.00     0.162 HD
HETATM   15  O   UNL     1       5.744  31.382  57.396  1.00  0.00    -0.273 OA
BRANCH  13  16
HETATM   16  C   UNL     1       3.906  32.231  59.369  1.00  0.00     0.150 C 
BRANCH  16  17
HETATM   17  C   UNL     1       3.984  32.317  60.916  1.00  0.00     0.253 C 
BRANCH  17  18
HETATM   18  N   UNL     1       5.318  31.861  61.475  1.00  0.00    -0.077 N 
HETATM   19  H   UNL     1       5.423  30.860  61.217  1.00  0.00     0.279 HD
HETATM   20  C   UNL     1       6.508  32.565  60.886  1.00  0.00     0.269 C 
HETATM   21  C   UNL     1       5.353  31.918  62.978  1.00  0.00     0.269 C 
ENDBRANCH  17  18
ENDBRANCH  16  17
ENDBRANCH  13  16
ENDBRANCH  11  12
ENDBRANCH   6  11
BRANCH   7  22
HETATM   22  C   UNL     1       7.925  28.392  55.585  1.00  0.00     0.008 A 
HETATM   23  C   UNL     1       7.927  28.363  56.986  1.00  0.00     0.125 A 
HETATM   24  F   UNL     1       6.867  27.884  57.648  1.00  0.00    -0.205 F 
HETATM   25  C   UNL     1       8.971  28.893  57.741  1.00  0.00     0.043 A 
HETATM   26  C   UNL     1      10.036  29.520  57.105  1.00  0.00     0.003 A 
HETATM   27  C   UNL     1      10.057  29.599  55.717  1.00  0.00     0.001 A 
HETATM   28  C   UNL     1       9.018  29.038  54.964  1.00  0.00     0.013 A 
ENDBRANCH   7  22
BRANCH  10  29
HETATM   29  C   UNL     1       6.324  25.715  55.661  1.00  0.00     0.294 C 
HETATM   30  O   UNL     1       5.383  25.673  56.444  1.00  0.00    -0.259 OA
BRANCH  29  31
HETATM   31  O   UNL     1       7.427  24.960  55.651  1.00  0.00    -0.313 OA
BRANCH  31  32
HETATM   32  C   UNL     1       7.336  23.685  56.301  1.00  0.00     0.217 C 
BRANCH  32  33
HETATM   33  C   UNL     1       7.674  22.661  55.258  1.00  0.00    -0.034 A 
HETATM   34  C   UNL     1       7.785  23.036  53.913  1.00  0.00     0.009 A 
HETATM   35  C   UNL     1       8.026  22.075  52.932  1.00  0.00     0.001 A 
HETATM   36  C   UNL     1       8.152  20.733  53.286  1.00  0.00     0.000 A 
HETATM   37  C   UNL     1       8.043  20.350  54.622  1.00  0.00     0.001 A 
HETATM   38  C   UNL     1       7.802  21.308  55.606  1.00  0.00     0.009 A 
ENDBRANCH  32  33
ENDBRANCH  31  32
ENDBRANCH  29  31
ENDBRANCH  10  29
TORSDOF 10
ENDMDL
MODEL 2
REMARK VINA RESULT:      -9.3      0.900      1.191
REMARK  10 active torsions:
REMARK  status: ('A' for Active; 'I' for Inactive)
REMARK    1  A    between atoms: C_6  and  C_7 
REMARK    2  A    between atoms: C_7  and  C_8 
REMARK       I    between atoms: C_8  and  N_9 
REMARK    3  A    between atoms: N_9  and  C_10 
REMARK    4  A    between atoms: C_10  and  C_11 
REMARK    5  A    between atoms: C_11  and  N_12 
REMARK    6  A    between atoms: C_17  and  C_18 
REMARK    7  A    between atoms: C_27  and  C_28 
REMARK    8  A    between atoms: C_28  and  O_29 
REMARK    9  A    between atoms: O_29  and  C_30 
REMARK   10  A    between atoms: C_30  and  C_31 
ROOT
HETATM    1  C   UNL     1       5.479  25.221  53.343  1.00  0.00     0.071 C 
HETATM    2  C   UNL     1       5.794  26.656  53.698  1.00  0.00     0.048 C 
HETATM    3  N   UNL     1       5.103  27.599  52.926  1.00  0.00    -0.229 NA
HETATM    4  C   UNL     1       4.819  28.721  53.510  1.00  0.00     0.170 C 
HETATM    5  N   UNL     1       5.414  29.109  54.903  1.00  0.00    -0.318 N 
HETATM    6  C   UNL     1       4.471  29.615  55.627  1.00  0.00     0.011 C 
HETATM    7  C   UNL     1       6.750  28.497  54.962  1.00  0.00     0.169 C 
HETATM    8  S   UNL     1       3.567  29.810  53.054  1.00  0.00    -0.086 SA
HETATM    9  C   UNL     1       3.324  30.224  54.826  1.00  0.00     0.135 C 
HETATM   10  C   UNL     1       6.519  27.032  54.782  1.00  0.00     0.069 C 
ENDROOT
BRANCH   6  11
HETATM   11  C   UNL     1       4.469  29.512  57.128  1.00  0.00     0.156 C 
BRANCH  11  12
HETATM   12  C   UNL     1       4.576  30.877  57.789  1.00  0.00     0.223 C 
HETATM   13  N   UNL     1       3.884  31.065  58.954  1.00  0.00    -0.359 N 
HETATM   14  H   UNL     1       3.327  30.295  59.332  1.00  0.00     0.162 HD
HETATM   15  O   UNL     1       5.215  31.791  57.270  1.00  0.00    -0.273 OA
BRANCH  13  16
HETATM   16  C   UNL     1       3.665  32.388  59.558  1.00  0.00     0.150 C 
BRANCH  16  17
HETATM   17  C   UNL     1       3.883  32.502  61.089  1.00  0.00     0.253 C 
BRANCH  17  18
HETATM   18  N   UNL     1       5.221  31.952  61.548  1.00  0.00    -0.077 N 
HETATM   19  H   UNL     1       5.259  30.962  61.236  1.00  0.00     0.279 HD
HETATM   20  C   UNL     1       6.411  32.627  60.924  1.00  0.00     0.269 C 
HETATM   21  C   UNL     1       5.343  31.931  63.047  1.00  0.00     0.269 C 
ENDBRANCH  17  18
ENDBRANCH  16  17
ENDBRANCH  13  16
ENDBRANCH  11  12
ENDBRANCH   6  11
BRANCH   7  22
HETATM   22  C   UNL     1       7.869  29.038  55.832  1.00  0.00     0.008 A 
HETATM   23  C   UNL     1       9.187  29.200  55.384  1.00  0.00     0.125 A 
HETATM   24  F   UNL     1       9.487  29.004  54.095  1.00  0.00    -0.205 F 
HETATM   25  C   UNL     1      10.239  29.487  56.252  1.00  0.00     0.043 A 
HETATM   26  C   UNL     1      10.005  29.572  57.619  1.00  0.00     0.003 A 
HETATM   27  C   UNL     1       8.715  29.385  58.108  1.00  0.00     0.001 A 
HETATM   28  C   UNL     1       7.659  29.127  57.227  1.00  0.00     0.013 A 
ENDBRANCH   7  22
BRANCH  10  29
HETATM   29  C   UNL     1       6.642  26.173  55.969  1.00  0.00     0.294 C 
HETATM   30  O   UNL     1       5.771  26.200  56.830  1.00  0.00    -0.259 OA
BRANCH  29  31
HETATM   31  O   UNL     1       7.721  25.387  55.908  1.00  0.00    -0.313 OA
BRANCH  31  32
HETATM   32  C   UNL     1       7.618  24.106  56.546  1.00  0.00     0.217 C 
BRANCH  32  33
HETATM   33  C   UNL     1       7.851  23.086  55.472  1.00  0.00    -0.034 A 
HETATM   34  C   UNL     1       8.175  23.494  54.171  1.00  0.00     0.009 A 
HETATM   35  C   UNL     1       8.320  22.552  53.153  1.00  0.00     0.001 A 
HETATM   36  C   UNL     1       8.136  21.198  53.425  1.00  0.00     0.000 A 
HETATM   37  C   UNL     1       7.813  20.782  54.715  1.00  0.00     0.001 A 
HETATM   38  C   UNL     1       7.668  21.721  55.736  1.00  0.00     0.009 A 
ENDBRANCH  32  33
ENDBRANCH  31  32
ENDBRANCH  29  31
ENDBRANCH  10  29
TORSDOF 10
ENDMDL
MODEL 3
REMARK VINA RESULT:      -8.5      3.297      5.628
REMARK  10 active torsions:
REMARK  status: ('A' for Active; 'I' for Inactive)
REMARK    1  A    between atoms: C_6  and  C_7 
REMARK    2  A    between atoms: C_7  and  C_8 
REMARK       I    between atoms: C_8  and  N_9 
REMARK    3  A    between atoms: N_9  and  C_10 
REMARK    4  A    between atoms: C_10  and  C_11 
REMARK    5  A    between atoms: C_11  and  N_12 
REMARK    6  A    between atoms: C_17  and  C_18 
REMARK    7  A    between atoms: C_27  and  C_28 
REMARK    8  A    between atoms: C_28  and  O_29 
REMARK    9  A    between atoms: O_29  and  C_30 
REMARK   10  A    between atoms: C_30  and  C_31 
ROOT
HETATM    1  C   UNL     1       5.092  25.157  52.039  1.00  0.00     0.071 C 
HETATM    2  C   UNL     1       5.077  25.861  53.376  1.00  0.00     0.048 C 
HETATM    3  N   UNL     1       5.343  25.022  54.466  1.00  0.00    -0.229 NA
HETATM    4  C   UNL     1       5.942  25.569  55.477  1.00  0.00     0.170 C 
HETATM    5  N   UNL     1       6.144  27.115  55.591  1.00  0.00    -0.318 N 
HETATM    6  C   UNL     1       7.348  27.346  55.997  1.00  0.00     0.011 C 
HETATM    7  C   UNL     1       4.982  27.728  54.928  1.00  0.00     0.169 C 
HETATM    8  S   UNL     1       6.860  24.742  56.676  1.00  0.00    -0.086 SA
HETATM    9  C   UNL     1       7.976  26.196  56.780  1.00  0.00     0.135 C 
HETATM   10  C   UNL     1       5.010  27.209  53.527  1.00  0.00     0.069 C 
ENDROOT
BRANCH   6  11
HETATM   11  C   UNL     1       8.091  28.601  55.632  1.00  0.00     0.156 C 
BRANCH  11  12
HETATM   12  C   UNL     1       8.782  29.222  56.835  1.00  0.00     0.223 C 
HETATM   13  N   UNL     1       7.998  29.909  57.723  1.00  0.00    -0.359 N 
HETATM   14  H   UNL     1       6.994  29.981  57.547  1.00  0.00     0.162 HD
HETATM   15  O   UNL     1      10.002  29.156  56.978  1.00  0.00    -0.273 OA
BRANCH  13  16
HETATM   16  C   UNL     1       8.544  30.785  58.770  1.00  0.00     0.150 C 
BRANCH  16  17
HETATM   17  C   UNL     1       7.545  31.302  59.838  1.00  0.00     0.253 C 
BRANCH  17  18
HETATM   18  N   UNL     1       7.818  30.757  61.227  1.00  0.00    -0.077 N 
HETATM   19  H   UNL     1       7.366  29.822  61.274  1.00  0.00     0.279 HD
HETATM   20  C   UNL     1       9.273  30.527  61.526  1.00  0.00     0.269 C 
HETATM   21  C   UNL     1       7.177  31.593  62.302  1.00  0.00     0.269 C 
ENDBRANCH  17  18
ENDBRANCH  16  17
ENDBRANCH  13  16
ENDBRANCH  11  12
ENDBRANCH   6  11
BRANCH   7  22
HETATM   22  C   UNL     1       4.478  29.118  55.265  1.00  0.00     0.008 A 
HETATM   23  C   UNL     1       4.400  29.617  56.573  1.00  0.00     0.125 A 
HETATM   24  F   UNL     1       4.910  28.913  57.590  1.00  0.00    -0.205 F 
HETATM   25  C   UNL     1       3.733  30.801  56.881  1.00  0.00     0.043 A 
HETATM   26  C   UNL     1       3.074  31.504  55.880  1.00  0.00     0.003 A 
HETATM   27  C   UNL     1       3.098  31.026  54.574  1.00  0.00     0.001 A 
HETATM   28  C   UNL     1       3.795  29.851  54.268  1.00  0.00     0.013 A 
ENDBRANCH   7  22
BRANCH  10  29
HETATM   29  C   UNL     1       5.447  28.131  52.468  1.00  0.00     0.294 C 
HETATM   30  O   UNL     1       6.585  28.584  52.490  1.00  0.00    -0.259 OA
BRANCH  29  31
HETATM   31  O   UNL     1       4.504  28.307  51.539  1.00  0.00    -0.313 OA
BRANCH  31  32
HETATM   32  C   UNL     1       4.957  28.431  50.182  1.00  0.00     0.217 C 
BRANCH  32  33
HETATM   33  C   UNL     1       3.984  27.653  49.347  1.00  0.00    -0.034 A 
HETATM   34  C   UNL     1       4.395  26.486  48.689  1.00  0.00     0.009 A 
HETATM   35  C   UNL     1       3.513  25.802  47.853  1.00  0.00     0.001 A 
HETATM   36  C   UNL     1       2.219  26.281  47.663  1.00  0.00     0.000 A 
HETATM   37  C   UNL     1       1.800  27.440  48.313  1.00  0.00     0.001 A 
HETATM   38  C   UNL     1       2.678  28.127  49.150  1.00  0.00     0.009 A 
ENDBRANCH  32  33
ENDBRANCH  31  32
ENDBRANCH  29  31
ENDBRANCH  10  29
TORSDOF 10
ENDMDL
MODEL 4
REMARK VINA RESULT:      -8.3      1.788      2.357
REMARK  10 active torsions:
REMARK  status: ('A' for Active; 'I' for Inactive)
REMARK    1  A    between atoms: C_6  and  C_7 
REMARK    2  A    between atoms: C_7  and  C_8 
REMARK       I    between atoms: C_8  and  N_9 
REMARK    3  A    between atoms: N_9  and  C_10 
REMARK    4  A    between atoms: C_10  and  C_11 
REMARK    5  A    between atoms: C_11  and  N_12 
REMARK    6  A    between atoms: C_17  and  C_18 
REMARK    7  A    between atoms: C_27  and  C_28 
REMARK    8  A    between atoms: C_28  and  O_29 
REMARK    9  A    between atoms: O_29  and  C_30 
REMARK   10  A    between atoms: C_30  and  C_31 
ROOT
HETATM    1  C   UNL     1       3.856  27.680  53.053  1.00  0.00     0.071 C 
HETATM    2  C   UNL     1       4.529  28.813  53.794  1.00  0.00     0.048 C 
HETATM    3  N   UNL     1       4.055  30.084  53.443  1.00  0.00    -0.229 NA
HETATM    4  C   UNL     1       4.082  30.983  54.377  1.00  0.00     0.170 C 
HETATM    5  N   UNL     1       4.816  30.751  55.738  1.00  0.00    -0.318 N 
HETATM    6  C   UNL     1       4.059  31.181  56.693  1.00  0.00     0.011 C 
HETATM    7  C   UNL     1       5.963  29.879  55.440  1.00  0.00     0.169 C 
HETATM    8  S   UNL     1       3.114  32.406  54.438  1.00  0.00    -0.086 SA
HETATM    9  C   UNL     1       3.061  32.253  56.267  1.00  0.00     0.135 C 
HETATM   10  C   UNL     1       5.373  28.643  54.844  1.00  0.00     0.069 C 
ENDROOT
BRANCH   6  11
HETATM   11  C   UNL     1       4.101  30.591  58.076  1.00  0.00     0.156 C 
BRANCH  11  12
HETATM   12  C   UNL     1       3.977  31.659  59.151  1.00  0.00     0.223 C 
HETATM   13  N   UNL     1       5.129  32.279  59.554  1.00  0.00    -0.359 N 
HETATM   14  H   UNL     1       6.017  32.005  59.128  1.00  0.00     0.162 HD
HETATM   15  O   UNL     1       2.895  31.917  59.676  1.00  0.00    -0.273 OA
BRANCH  13  16
HETATM   16  C   UNL     1       5.214  33.119  60.758  1.00  0.00     0.150 C 
BRANCH  16  17
HETATM   17  C   UNL     1       5.673  32.423  62.066  1.00  0.00     0.253 C 
BRANCH  17  18
HETATM   18  N   UNL     1       7.154  32.591  62.347  1.00  0.00    -0.077 N 
HETATM   19  H   UNL     1       7.472  33.409  61.792  1.00  0.00     0.279 HD
HETATM   20  C   UNL     1       7.477  32.916  63.780  1.00  0.00     0.269 C 
HETATM   21  C   UNL     1       7.960  31.414  61.871  1.00  0.00     0.269 C 
ENDBRANCH  17  18
ENDBRANCH  16  17
ENDBRANCH  13  16
ENDBRANCH  11  12
ENDBRANCH   6  11
BRANCH   7  22
HETATM   22  C   UNL     1       7.218  29.847  56.290  1.00  0.00     0.008 A 
HETATM   23  C   UNL     1       8.428  29.283  55.864  1.00  0.00     0.125 A 
HETATM   24  F   UNL     1       8.561  28.859  54.601  1.00  0.00    -0.205 F 
HETATM   25  C   UNL     1       9.496  29.065  56.731  1.00  0.00     0.043 A 
HETATM   26  C   UNL     1       9.364  29.366  58.081  1.00  0.00     0.003 A 
HETATM   27  C   UNL     1       8.167  29.898  58.552  1.00  0.00     0.001 A 
HETATM   28  C   UNL     1       7.109  30.141  57.669  1.00  0.00     0.013 A 
ENDBRANCH   7  22
BRANCH  10  29
HETATM   29  C   UNL     1       5.335  27.435  55.682  1.00  0.00     0.294 C 
HETATM   30  O   UNL     1       4.565  27.381  56.633  1.00  0.00    -0.259 OA
BRANCH  29  31
HETATM   31  O   UNL     1       6.151  26.482  55.222  1.00  0.00    -0.313 OA
BRANCH  31  32
HETATM   32  C   UNL     1       5.956  25.162  55.749  1.00  0.00     0.217 C 
BRANCH  32  33
HETATM   33  C   UNL     1       6.771  24.245  54.887  1.00  0.00    -0.034 A 
HETATM   34  C   UNL     1       6.965  24.541  53.531  1.00  0.00     0.009 A 
HETATM   35  C   UNL     1       7.661  23.654  52.710  1.00  0.00     0.001 A 
HETATM   36  C   UNL     1       8.161  22.464  53.234  1.00  0.00     0.000 A 
HETATM   37  C   UNL     1       7.973  22.160  54.581  1.00  0.00     0.001 A 
HETATM   38  C   UNL     1       7.278  23.045  55.406  1.00  0.00     0.009 A 
ENDBRANCH  32  33
ENDBRANCH  31  32
ENDBRANCH  29  31
ENDBRANCH  10  29
TORSDOF 10
ENDMDL
MODEL 5
REMARK VINA RESULT:      -8.3      1.683      2.229
REMARK  10 active torsions:
REMARK  status: ('A' for Active; 'I' for Inactive)
REMARK    1  A    between atoms: C_6  and  C_7 
REMARK    2  A    between atoms: C_7  and  C_8 
REMARK       I    between atoms: C_8  and  N_9 
REMARK    3  A    between atoms: N_9  and  C_10 
REMARK    4  A    between atoms: C_10  and  C_11 
REMARK    5  A    between atoms: C_11  and  N_12 
REMARK    6  A    between atoms: C_17  and  C_18 
REMARK    7  A    between atoms: C_27  and  C_28 
REMARK    8  A    between atoms: C_28  and  O_29 
REMARK    9  A    between atoms: O_29  and  C_30 
REMARK   10  A    between atoms: C_30  and  C_31 
ROOT
HETATM    1  C   UNL     1       5.501  26.045  50.794  1.00  0.00     0.071 C 
HETATM    2  C   UNL     1       5.792  27.208  51.714  1.00  0.00     0.048 C 
HETATM    3  N   UNL     1       5.590  28.464  51.125  1.00  0.00    -0.229 NA
HETATM    4  C   UNL     1       5.212  29.415  51.921  1.00  0.00     0.170 C 
HETATM    5  N   UNL     1       5.211  29.252  53.476  1.00  0.00    -0.318 N 
HETATM    6  C   UNL     1       4.113  29.748  53.942  1.00  0.00     0.011 C 
HETATM    7  C   UNL     1       6.327  28.347  53.792  1.00  0.00     0.169 C 
HETATM    8  S   UNL     1       4.388  30.853  51.456  1.00  0.00    -0.086 SA
HETATM    9  C   UNL     1       3.476  30.809  53.049  1.00  0.00     0.135 C 
HETATM   10  C   UNL     1       6.036  27.087  53.044  1.00  0.00     0.069 C 
ENDROOT
BRANCH   6  11
HETATM   11  C   UNL     1       3.476  29.239  55.206  1.00  0.00     0.156 C 
BRANCH  11  12
HETATM   12  C   UNL     1       3.318  30.339  56.243  1.00  0.00     0.223 C 
HETATM   13  N   UNL     1       4.290  30.443  57.201  1.00  0.00    -0.359 N 
HETATM   14  H   UNL     1       5.074  29.786  57.187  1.00  0.00     0.162 HD
HETATM   15  O   UNL     1       2.330  31.072  56.254  1.00  0.00    -0.273 OA
BRANCH  13  16
HETATM   16  C   UNL     1       4.144  31.260  58.415  1.00  0.00     0.150 C 
BRANCH  16  17
HETATM   17  C   UNL     1       5.329  32.192  58.777  1.00  0.00     0.253 C 
BRANCH  17  18
HETATM   18  N   UNL     1       6.303  31.570  59.760  1.00  0.00    -0.077 N 
HETATM   19  H   UNL     1       5.845  30.715  60.133  1.00  0.00     0.279 HD
HETATM   20  C   UNL     1       7.594  31.109  59.143  1.00  0.00     0.269 C 
HETATM   21  C   UNL     1       6.564  32.462  60.943  1.00  0.00     0.269 C 
ENDBRANCH  17  18
ENDBRANCH  16  17
ENDBRANCH  13  16
ENDBRANCH  11  12
ENDBRANCH   6  11
BRANCH   7  22
HETATM   22  C   UNL     1       7.034  28.346  55.134  1.00  0.00     0.008 A 
HETATM   23  C   UNL     1       8.400  28.617  55.289  1.00  0.00     0.125 A 
HETATM   24  F   UNL     1       9.125  29.031  54.243  1.00  0.00    -0.205 F 
HETATM   25  C   UNL     1       9.072  28.396  56.490  1.00  0.00     0.043 A 
HETATM   26  C   UNL     1       8.396  27.843  57.570  1.00  0.00     0.003 A 
HETATM   27  C   UNL     1       7.046  27.529  57.447  1.00  0.00     0.001 A 
HETATM   28  C   UNL     1       6.371  27.781  56.247  1.00  0.00     0.013 A 
ENDBRANCH   7  22
BRANCH  10  29
HETATM   29  C   UNL     1       5.561  25.931  53.818  1.00  0.00     0.294 C 
HETATM   30  O   UNL     1       4.359  25.770  53.991  1.00  0.00    -0.259 OA
BRANCH  29  31
HETATM   31  O   UNL     1       6.565  25.133  54.193  1.00  0.00    -0.313 OA
BRANCH  31  32
HETATM   32  C   UNL     1       7.185  24.355  53.159  1.00  0.00     0.217 C 
BRANCH  32  33
HETATM   33  C   UNL     1       7.526  23.034  53.781  1.00  0.00    -0.034 A 
HETATM   34  C   UNL     1       7.867  21.942  52.972  1.00  0.00     0.009 A 
HETATM   35  C   UNL     1       8.113  20.693  53.543  1.00  0.00     0.001 A 
HETATM   36  C   UNL     1       8.016  20.526  54.922  1.00  0.00     0.000 A 
HETATM   37  C   UNL     1       7.679  21.606  55.735  1.00  0.00     0.001 A 
HETATM   38  C   UNL     1       7.432  22.856  55.169  1.00  0.00     0.009 A 
ENDBRANCH  32  33
ENDBRANCH  31  32
ENDBRANCH  29  31
ENDBRANCH  10  29
TORSDOF 10
ENDMDL
MODEL 6
REMARK VINA RESULT:      -7.7      5.500      8.588
REMARK  10 active torsions:
REMARK  status: ('A' for Active; 'I' for Inactive)
REMARK    1  A    between atoms: C_6  and  C_7 
REMARK    2  A    between atoms: C_7  and  C_8 
REMARK       I    between atoms: C_8  and  N_9 
REMARK    3  A    between atoms: N_9  and  C_10 
REMARK    4  A    between atoms: C_10  and  C_11 
REMARK    5  A    between atoms: C_11  and  N_12 
REMARK    6  A    between atoms: C_17  and  C_18 
REMARK    7  A    between atoms: C_27  and  C_28 
REMARK    8  A    between atoms: C_28  and  O_29 
REMARK    9  A    between atoms: O_29  and  C_30 
REMARK   10  A    between atoms: C_30  and  C_31 
ROOT
HETATM    1  C   UNL     1       4.285  28.716  54.916  1.00  0.00     0.071 C 
HETATM    2  C   UNL     1       3.826  29.255  53.581  1.00  0.00     0.048 C 
HETATM    3  N   UNL     1       3.129  30.468  53.665  1.00  0.00    -0.229 NA
HETATM    4  C   UNL     1       3.249  31.269  52.652  1.00  0.00     0.170 C 
HETATM    5  N   UNL     1       3.925  30.826  51.313  1.00  0.00    -0.318 N 
HETATM    6  C   UNL     1       4.707  31.773  50.913  1.00  0.00     0.011 C 
HETATM    7  C   UNL     1       3.632  29.392  51.163  1.00  0.00     0.169 C 
HETATM    8  S   UNL     1       2.992  32.970  52.674  1.00  0.00    -0.086 SA
HETATM    9  C   UNL     1       4.330  33.158  51.431  1.00  0.00     0.135 C 
HETATM   10  C   UNL     1       4.204  28.744  52.381  1.00  0.00     0.069 C 
ENDROOT
BRANCH   6  11
HETATM   11  C   UNL     1       5.938  31.503  50.093  1.00  0.00     0.156 C 
BRANCH  11  12
HETATM   12  C   UNL     1       5.809  32.050  48.680  1.00  0.00     0.223 C 
HETATM   13  N   UNL     1       6.603  33.113  48.345  1.00  0.00    -0.359 N 
HETATM   14  H   UNL     1       7.242  33.498  49.044  1.00  0.00     0.162 HD
HETATM   15  O   UNL     1       4.987  31.592  47.889  1.00  0.00    -0.273 OA
BRANCH  13  16
HETATM   16  C   UNL     1       6.401  33.919  47.131  1.00  0.00     0.150 C 
BRANCH  16  17
HETATM   17  C   UNL     1       7.451  33.755  46.001  1.00  0.00     0.253 C 
BRANCH  17  18
HETATM   18  N   UNL     1       6.848  33.310  44.681  1.00  0.00    -0.077 N 
HETATM   19  H   UNL     1       7.247  32.374  44.472  1.00  0.00     0.279 HD
HETATM   20  C   UNL     1       5.357  33.124  44.716  1.00  0.00     0.269 C 
HETATM   21  C   UNL     1       7.249  34.208  43.543  1.00  0.00     0.269 C 
ENDBRANCH  17  18
ENDBRANCH  16  17
ENDBRANCH  13  16
ENDBRANCH  11  12
ENDBRANCH   6  11
BRANCH   7  22
HETATM   22  C   UNL     1       3.595  28.694  49.817  1.00  0.00     0.008 A 
HETATM   23  C   UNL     1       2.431  28.147  49.261  1.00  0.00     0.125 A 
HETATM   24  F   UNL     1       1.247  28.344  49.854  1.00  0.00    -0.205 F 
HETATM   25  C   UNL     1       2.457  27.322  48.137  1.00  0.00     0.043 A 
HETATM   26  C   UNL     1       3.673  26.979  47.560  1.00  0.00     0.003 A 
HETATM   27  C   UNL     1       4.855  27.474  48.101  1.00  0.00     0.001 A 
HETATM   28  C   UNL     1       4.818  28.325  49.212  1.00  0.00     0.013 A 
ENDBRANCH   7  22
BRANCH  10  29
HETATM   29  C   UNL     1       5.448  27.976  52.222  1.00  0.00     0.294 C 
HETATM   30  O   UNL     1       6.520  28.565  52.153  1.00  0.00    -0.259 OA
BRANCH  29  31
HETATM   31  O   UNL     1       5.228  26.658  52.241  1.00  0.00    -0.313 OA
BRANCH  31  32
HETATM   32  C   UNL     1       6.232  25.832  51.635  1.00  0.00     0.217 C 
BRANCH  32  33
HETATM   33  C   UNL     1       6.699  24.892  52.707  1.00  0.00    -0.034 A 
HETATM   34  C   UNL     1       6.216  25.021  54.016  1.00  0.00     0.009 A 
HETATM   35  C   UNL     1       6.703  24.196  55.030  1.00  0.00     0.001 A 
HETATM   36  C   UNL     1       7.679  23.242  54.745  1.00  0.00     0.000 A 
HETATM   37  C   UNL     1       8.165  23.107  53.446  1.00  0.00     0.001 A 
HETATM   38  C   UNL     1       7.681  23.929  52.429  1.00  0.00     0.009 A 
ENDBRANCH  32  33
ENDBRANCH  31  32
ENDBRANCH  29  31
ENDBRANCH  10  29
TORSDOF 10
ENDMDL
MODEL 7
REMARK VINA RESULT:      -7.4      5.316      8.124
REMARK  10 active torsions:
REMARK  status: ('A' for Active; 'I' for Inactive)
REMARK    1  A    between atoms: C_6  and  C_7 
REMARK    2  A    between atoms: C_7  and  C_8 
REMARK       I    between atoms: C_8  and  N_9 
REMARK    3  A    between atoms: N_9  and  C_10 
REMARK    4  A    between atoms: C_10  and  C_11 
REMARK    5  A    between atoms: C_11  and  N_12 
REMARK    6  A    between atoms: C_17  and  C_18 
REMARK    7  A    between atoms: C_27  and  C_28 
REMARK    8  A    between atoms: C_28  and  O_29 
REMARK    9  A    between atoms: O_29  and  C_30 
REMARK   10  A    between atoms: C_30  and  C_31 
ROOT
HETATM    1  C   UNL     1       4.416  28.748  55.113  1.00  0.00     0.071 C 
HETATM    2  C   UNL     1       3.891  29.258  53.791  1.00  0.00     0.048 C 
HETATM    3  N   UNL     1       3.211  30.480  53.882  1.00  0.00    -0.229 NA
HETATM    4  C   UNL     1       3.284  31.255  52.845  1.00  0.00     0.170 C 
HETATM    5  N   UNL     1       3.883  30.772  51.483  1.00  0.00    -0.318 N 
HETATM    6  C   UNL     1       4.651  31.701  51.019  1.00  0.00     0.011 C 
HETATM    7  C   UNL     1       3.569  29.338  51.385  1.00  0.00     0.169 C 
HETATM    8  S   UNL     1       3.044  32.959  52.838  1.00  0.00    -0.086 SA
HETATM    9  C   UNL     1       4.315  33.102  51.521  1.00  0.00     0.135 C 
HETATM   10  C   UNL     1       4.200  28.714  52.586  1.00  0.00     0.069 C 
ENDROOT
BRANCH   6  11
HETATM   11  C   UNL     1       5.834  31.399  50.141  1.00  0.00     0.156 C 
BRANCH  11  12
HETATM   12  C   UNL     1       5.651  31.945  48.735  1.00  0.00     0.223 C 
HETATM   13  N   UNL     1       6.557  32.873  48.299  1.00  0.00    -0.359 N 
HETATM   14  H   UNL     1       7.311  33.164  48.925  1.00  0.00     0.162 HD
HETATM   15  O   UNL     1       4.696  31.607  48.036  1.00  0.00    -0.273 OA
BRANCH  13  16
HETATM   16  C   UNL     1       6.360  33.688  47.091  1.00  0.00     0.150 C 
BRANCH  16  17
HETATM   17  C   UNL     1       7.638  34.219  46.390  1.00  0.00     0.253 C 
BRANCH  17  18
HETATM   18  N   UNL     1       8.100  35.562  46.923  1.00  0.00    -0.077 N 
HETATM   19  H   UNL     1       8.516  36.074  46.120  1.00  0.00     0.279 HD
HETATM   20  C   UNL     1       6.991  36.436  47.438  1.00  0.00     0.269 C 
HETATM   21  C   UNL     1       9.192  35.421  47.948  1.00  0.00     0.269 C 
ENDBRANCH  17  18
ENDBRANCH  16  17
ENDBRANCH  13  16
ENDBRANCH  11  12
ENDBRANCH   6  11
BRANCH   7  22
HETATM   22  C   UNL     1       3.454  28.608  50.060  1.00  0.00     0.008 A 
HETATM   23  C   UNL     1       4.545  28.364  49.215  1.00  0.00     0.125 A 
HETATM   24  F   UNL     1       5.786  28.654  49.621  1.00  0.00    -0.205 F 
HETATM   25  C   UNL     1       4.388  27.893  47.913  1.00  0.00     0.043 A 
HETATM   26  C   UNL     1       3.113  27.698  47.396  1.00  0.00     0.003 A 
HETATM   27  C   UNL     1       2.002  27.961  48.191  1.00  0.00     0.001 A 
HETATM   28  C   UNL     1       2.169  28.405  49.508  1.00  0.00     0.013 A 
ENDBRANCH   7  22
BRANCH  10  29
HETATM   29  C   UNL     1       5.427  27.929  52.380  1.00  0.00     0.294 C 
HETATM   30  O   UNL     1       6.511  28.497  52.351  1.00  0.00    -0.259 OA
BRANCH  29  31
HETATM   31  O   UNL     1       5.176  26.619  52.314  1.00  0.00    -0.313 OA
BRANCH  31  32
HETATM   32  C   UNL     1       6.151  25.813  51.637  1.00  0.00     0.217 C 
BRANCH  32  33
HETATM   33  C   UNL     1       6.737  24.907  52.679  1.00  0.00    -0.034 A 
HETATM   34  C   UNL     1       7.735  23.986  52.330  1.00  0.00     0.009 A 
HETATM   35  C   UNL     1       8.229  23.092  53.279  1.00  0.00     0.001 A 
HETATM   36  C   UNL     1       7.728  23.107  54.580  1.00  0.00     0.000 A 
HETATM   37  C   UNL     1       6.737  24.019  54.936  1.00  0.00     0.001 A 
HETATM   38  C   UNL     1       6.240  24.915  53.990  1.00  0.00     0.009 A 
ENDBRANCH  32  33
ENDBRANCH  31  32
ENDBRANCH  29  31
ENDBRANCH  10  29
TORSDOF 10
ENDMDL
MODEL 8
REMARK VINA RESULT:      -7.2      4.900      7.192
REMARK  10 active torsions:
REMARK  status: ('A' for Active; 'I' for Inactive)
REMARK    1  A    between atoms: C_6  and  C_7 
REMARK    2  A    between atoms: C_7  and  C_8 
REMARK       I    between atoms: C_8  and  N_9 
REMARK    3  A    between atoms: N_9  and  C_10 
REMARK    4  A    between atoms: C_10  and  C_11 
REMARK    5  A    between atoms: C_11  and  N_12 
REMARK    6  A    between atoms: C_17  and  C_18 
REMARK    7  A    between atoms: C_27  and  C_28 
REMARK    8  A    between atoms: C_28  and  O_29 
REMARK    9  A    between atoms: O_29  and  C_30 
REMARK   10  A    between atoms: C_30  and  C_31 
ROOT
HETATM    1  C   UNL     1       5.398  25.196  51.517  1.00  0.00     0.071 C 
HETATM    2  C   UNL     1       5.061  26.405  50.675  1.00  0.00     0.048 C 
HETATM    3  N   UNL     1       4.558  26.092  49.405  1.00  0.00    -0.229 NA
HETATM    4  C   UNL     1       3.711  26.935  48.901  1.00  0.00     0.170 C 
HETATM    5  N   UNL     1       3.440  28.334  49.546  1.00  0.00    -0.318 N 
HETATM    6  C   UNL     1       2.166  28.547  49.549  1.00  0.00     0.011 C 
HETATM    7  C   UNL     1       4.711  28.752  50.159  1.00  0.00     0.169 C 
HETATM    8  S   UNL     1       2.550  26.591  47.678  1.00  0.00    -0.086 SA
HETATM    9  C   UNL     1       1.399  27.776  48.479  1.00  0.00     0.135 C 
HETATM   10  C   UNL     1       5.046  27.680  51.142  1.00  0.00     0.069 C 
ENDROOT
BRANCH   6  11
HETATM   11  C   UNL     1       1.499  29.404  50.590  1.00  0.00     0.156 C 
BRANCH  11  12
HETATM   12  C   UNL     1       0.905  30.667  49.989  1.00  0.00     0.223 C 
HETATM   13  N   UNL     1      -0.044  31.324  50.722  1.00  0.00    -0.359 N 
HETATM   14  H   UNL     1      -0.318  30.948  51.633  1.00  0.00     0.162 HD
HETATM   15  O   UNL     1       1.225  31.052  48.865  1.00  0.00    -0.273 OA
BRANCH  13  16
HETATM   16  C   UNL     1      -0.900  32.385  50.170  1.00  0.00     0.150 C 
BRANCH  16  17
HETATM   17  C   UNL     1      -2.327  32.512  50.763  1.00  0.00     0.253 C 
BRANCH  17  18
HETATM   18  N   UNL     1      -2.468  31.869  52.130  1.00  0.00    -0.077 N 
HETATM   19  H   UNL     1      -1.693  31.183  52.218  1.00  0.00     0.279 HD
HETATM   20  C   UNL     1      -2.306  32.823  53.281  1.00  0.00     0.269 C 
HETATM   21  C   UNL     1      -3.746  31.086  52.260  1.00  0.00     0.269 C 
ENDBRANCH  17  18
ENDBRANCH  16  17
ENDBRANCH  13  16
ENDBRANCH  11  12
ENDBRANCH   6  11
BRANCH   7  22
HETATM   22  C   UNL     1       5.074  30.207  50.393  1.00  0.00     0.008 A 
HETATM   23  C   UNL     1       4.405  31.033  51.307  1.00  0.00     0.125 A 
HETATM   24  F   UNL     1       3.483  30.517  52.128  1.00  0.00    -0.205 F 
HETATM   25  C   UNL     1       4.604  32.412  51.349  1.00  0.00     0.043 A 
HETATM   26  C   UNL     1       5.453  33.017  50.430  1.00  0.00     0.003 A 
HETATM   27  C   UNL     1       6.110  32.236  49.485  1.00  0.00     0.001 A 
HETATM   28  C   UNL     1       5.929  30.849  49.469  1.00  0.00     0.013 A 
ENDBRANCH   7  22
BRANCH  10  29
HETATM   29  C   UNL     1       4.858  27.981  52.569  1.00  0.00     0.294 C 
HETATM   30  O   UNL     1       3.753  27.836  53.079  1.00  0.00    -0.259 OA
BRANCH  29  31
HETATM   31  O   UNL     1       6.003  28.332  53.161  1.00  0.00    -0.313 OA
BRANCH  31  32
HETATM   32  C   UNL     1       6.069  28.154  54.584  1.00  0.00     0.217 C 
BRANCH  32  33
HETATM   33  C   UNL     1       6.489  26.731  54.806  1.00  0.00    -0.034 A 
HETATM   34  C   UNL     1       7.557  26.190  54.078  1.00  0.00     0.009 A 
HETATM   35  C   UNL     1       7.903  24.847  54.228  1.00  0.00     0.001 A 
HETATM   36  C   UNL     1       7.182  24.035  55.101  1.00  0.00     0.000 A 
HETATM   37  C   UNL     1       6.119  24.564  55.830  1.00  0.00     0.001 A 
HETATM   38  C   UNL     1       5.770  25.907  55.683  1.00  0.00     0.009 A 
ENDBRANCH  32  33
ENDBRANCH  31  32
ENDBRANCH  29  31
ENDBRANCH  10  29
TORSDOF 10
ENDMDL
MODEL 9
REMARK VINA RESULT:      -7.1      5.093      7.956
REMARK  10 active torsions:
REMARK  status: ('A' for Active; 'I' for Inactive)
REMARK    1  A    between atoms: C_6  and  C_7 
REMARK    2  A    between atoms: C_7  and  C_8 
REMARK       I    between atoms: C_8  and  N_9 
REMARK    3  A    between atoms: N_9  and  C_10 
REMARK    4  A    between atoms: C_10  and  C_11 
REMARK    5  A    between atoms: C_11  and  N_12 
REMARK    6  A    between atoms: C_17  and  C_18 
REMARK    7  A    between atoms: C_27  and  C_28 
REMARK    8  A    between atoms: C_28  and  O_29 
REMARK    9  A    between atoms: O_29  and  C_30 
REMARK   10  A    between atoms: C_30  and  C_31 
ROOT
HETATM    1  C   UNL     1       5.344  25.214  51.879  1.00  0.00     0.071 C 
HETATM    2  C   UNL     1       5.064  26.394  50.977  1.00  0.00     0.048 C 
HETATM    3  N   UNL     1       4.649  26.039  49.687  1.00  0.00    -0.229 NA
HETATM    4  C   UNL     1       3.837  26.862  49.100  1.00  0.00     0.170 C 
HETATM    5  N   UNL     1       3.524  28.281  49.679  1.00  0.00    -0.318 N 
HETATM    6  C   UNL     1       2.253  28.492  49.589  1.00  0.00     0.011 C 
HETATM    7  C   UNL     1       4.751  28.723  50.361  1.00  0.00     0.169 C 
HETATM    8  S   UNL     1       2.762  26.476  47.813  1.00  0.00    -0.086 SA
HETATM    9  C   UNL     1       1.560  27.684  48.495  1.00  0.00     0.135 C 
HETATM   10  C   UNL     1       5.019  27.683  51.400  1.00  0.00     0.069 C 
ENDROOT
BRANCH   6  11
HETATM   11  C   UNL     1       1.518  29.381  50.554  1.00  0.00     0.156 C 
BRANCH  11  12
HETATM   12  C   UNL     1       1.123  30.703  49.917  1.00  0.00     0.223 C 
HETATM   13  N   UNL     1      -0.038  31.286  50.349  1.00  0.00    -0.359 N 
HETATM   14  H   UNL     1      -0.591  30.817  51.070  1.00  0.00     0.162 HD
HETATM   15  O   UNL     1       1.791  31.203  49.012  1.00  0.00    -0.273 OA
BRANCH  13  16
HETATM   16  C   UNL     1      -0.689  32.403  49.649  1.00  0.00     0.150 C 
BRANCH  16  17
HETATM   17  C   UNL     1      -1.557  32.045  48.415  1.00  0.00     0.253 C 
BRANCH  17  18
HETATM   18  N   UNL     1      -0.744  31.809  47.156  1.00  0.00    -0.077 N 
HETATM   19  H   UNL     1       0.246  32.010  47.399  1.00  0.00     0.279 HD
HETATM   20  C   UNL     1      -0.766  30.389  46.664  1.00  0.00     0.269 C 
HETATM   21  C   UNL     1      -1.113  32.763  46.054  1.00  0.00     0.269 C 
ENDBRANCH  17  18
ENDBRANCH  16  17
ENDBRANCH  13  16
ENDBRANCH  11  12
ENDBRANCH   6  11
BRANCH   7  22
HETATM   22  C   UNL     1       5.097  30.184  50.571  1.00  0.00     0.008 A 
HETATM   23  C   UNL     1       4.401  31.025  51.450  1.00  0.00     0.125 A 
HETATM   24  F   UNL     1       3.463  30.520  52.260  1.00  0.00    -0.205 F 
HETATM   25  C   UNL     1       4.588  32.406  51.466  1.00  0.00     0.043 A 
HETATM   26  C   UNL     1       5.454  32.998  50.554  1.00  0.00     0.003 A 
HETATM   27  C   UNL     1       6.140  32.202  49.643  1.00  0.00     0.001 A 
HETATM   28  C   UNL     1       5.969  30.812  49.653  1.00  0.00     0.013 A 
ENDBRANCH   7  22
BRANCH  10  29
HETATM   29  C   UNL     1       4.734  28.031  52.800  1.00  0.00     0.294 C 
HETATM   30  O   UNL     1       3.599  27.899  53.239  1.00  0.00    -0.259 OA
BRANCH  29  31
HETATM   31  O   UNL     1       5.837  28.406  53.456  1.00  0.00    -0.313 OA
BRANCH  31  32
HETATM   32  C   UNL     1       5.738  28.480  54.885  1.00  0.00     0.217 C 
BRANCH  32  33
HETATM   33  C   UNL     1       6.114  27.123  55.400  1.00  0.00    -0.034 A 
HETATM   34  C   UNL     1       7.228  26.455  54.875  1.00  0.00     0.009 A 
HETATM   35  C   UNL     1       7.537  25.162  55.299  1.00  0.00     0.001 A 
HETATM   36  C   UNL     1       6.734  24.527  56.244  1.00  0.00     0.000 A 
HETATM   37  C   UNL     1       5.624  25.183  56.772  1.00  0.00     0.001 A 
HETATM   38  C   UNL     1       5.311  26.476  56.351  1.00  0.00     0.009 A 
ENDBRANCH  32  33
ENDBRANCH  31  32
ENDBRANCH  29  31
ENDBRANCH  10  29
TORSDOF 10
ENDMDL
MODEL 10
REMARK VINA RESULT:      -7.0      3.069      4.079
REMARK  10 active torsions:
REMARK  status: ('A' for Active; 'I' for Inactive)
REMARK    1  A    between atoms: C_6  and  C_7 
REMARK    2  A    between atoms: C_7  and  C_8 
REMARK       I    between atoms: C_8  and  N_9 
REMARK    3  A    between atoms: N_9  and  C_10 
REMARK    4  A    between atoms: C_10  and  C_11 
REMARK    5  A    between atoms: C_11  and  N_12 
REMARK    6  A    between atoms: C_17  and  C_18 
REMARK    7  A    between atoms: C_27  and  C_28 
REMARK    8  A    between atoms: C_28  and  O_29 
REMARK    9  A    between atoms: O_29  and  C_30 
REMARK   10  A    between atoms: C_30  and  C_31 
ROOT
HETATM    1  C   UNL     1       4.835  26.584  49.861  1.00  0.00     0.071 C 
HETATM    2  C   UNL     1       5.324  27.667  50.794  1.00  0.00     0.048 C 
HETATM    3  N   UNL     1       5.609  28.882  50.157  1.00  0.00    -0.229 NA
HETATM    4  C   UNL     1       5.424  29.956  50.860  1.00  0.00     0.170 C 
HETATM    5  N   UNL     1       5.134  29.907  52.396  1.00  0.00    -0.318 N 
HETATM    6  C   UNL     1       4.183  30.739  52.663  1.00  0.00     0.011 C 
HETATM    7  C   UNL     1       5.857  28.733  52.911  1.00  0.00     0.169 C 
HETATM    8  S   UNL     1       5.161  31.539  50.238  1.00  0.00    -0.086 SA
HETATM    9  C   UNL     1       4.046  31.878  51.657  1.00  0.00     0.135 C 
HETATM   10  C   UNL     1       5.312  27.570  52.148  1.00  0.00     0.069 C 
ENDROOT
BRANCH   6  11
HETATM   11  C   UNL     1       3.235  30.532  53.812  1.00  0.00     0.156 C 
BRANCH  11  12
HETATM   12  C   UNL     1       3.493  31.514  54.944  1.00  0.00     0.223 C 
HETATM   13  N   UNL     1       4.329  32.565  54.683  1.00  0.00    -0.359 N 
HETATM   14  H   UNL     1       4.746  32.651  53.753  1.00  0.00     0.162 HD
HETATM   15  O   UNL     1       3.014  31.341  56.064  1.00  0.00    -0.273 OA
BRANCH  13  16
HETATM   16  C   UNL     1       4.890  33.430  55.732  1.00  0.00     0.150 C 
BRANCH  16  17
HETATM   17  C   UNL     1       4.706  34.959  55.549  1.00  0.00     0.253 C 
BRANCH  17  18
HETATM   18  N   UNL     1       5.061  35.444  54.156  1.00  0.00    -0.077 N 
HETATM   19  H   UNL     1       5.076  34.605  53.543  1.00  0.00     0.279 HD
HETATM   20  C   UNL     1       4.049  36.377  53.551  1.00  0.00     0.269 C 
HETATM   21  C   UNL     1       6.441  36.039  54.096  1.00  0.00     0.269 C 
ENDBRANCH  17  18
ENDBRANCH  16  17
ENDBRANCH  13  16
ENDBRANCH  11  12
ENDBRANCH   6  11
BRANCH   7  22
HETATM   22  C   UNL     1       6.314  28.613  54.352  1.00  0.00     0.008 A 
HETATM   23  C   UNL     1       7.609  28.225  54.723  1.00  0.00     0.125 A 
HETATM   24  F   UNL     1       8.557  28.073  53.790  1.00  0.00    -0.205 F 
HETATM   25  C   UNL     1       7.945  27.908  56.038  1.00  0.00     0.043 A 
HETATM   26  C   UNL     1       6.967  27.923  57.024  1.00  0.00     0.003 A 
HETATM   27  C   UNL     1       5.661  28.270  56.692  1.00  0.00     0.001 A 
HETATM   28  C   UNL     1       5.339  28.616  55.375  1.00  0.00     0.013 A 
ENDBRANCH   7  22
BRANCH  10  29
HETATM   29  C   UNL     1       4.392  26.665  52.853  1.00  0.00     0.294 C 
HETATM   30  O   UNL     1       3.264  27.047  53.136  1.00  0.00    -0.259 OA
BRANCH  29  31
HETATM   31  O   UNL     1       4.929  25.456  53.041  1.00  0.00    -0.313 OA
BRANCH  31  32
HETATM   32  C   UNL     1       5.337  25.137  54.379  1.00  0.00     0.217 C 
BRANCH  32  33
HETATM   33  C   UNL     1       6.579  24.306  54.249  1.00  0.00    -0.034 A 
HETATM   34  C   UNL     1       6.916  23.733  53.015  1.00  0.00     0.009 A 
HETATM   35  C   UNL     1       8.030  22.901  52.907  1.00  0.00     0.001 A 
HETATM   36  C   UNL     1       8.810  22.630  54.030  1.00  0.00     0.000 A 
HETATM   37  C   UNL     1       8.482  23.195  55.261  1.00  0.00     0.001 A 
HETATM   38  C   UNL     1       7.370  24.028  55.373  1.00  0.00     0.009 A 
ENDBRANCH  32  33
ENDBRANCH  31  32
ENDBRANCH  29  31
ENDBRANCH  10  29
TORSDOF 10
ENDMDL
