MODEL 1
REMARK VINA RESULT:      -9.6      0.000      0.000
REMARK  5 active torsions:
REMARK  status: ('A' for Active; 'I' for Inactive)
REMARK    1  A    between atoms: C_4  and  C_5 
REMARK    2  A    between atoms: C_5  and  N_6 
REMARK    3  A    between atoms: C_9  and  N_10 
REMARK       I    between atoms: N_10  and  C_11 
REMARK       I    between atoms: C_11  and  N_12 
REMARK    4  A    between atoms: N_12  and  N_13 
REMARK       I    between atoms: N_13  and  C_14 
REMARK    5  A    between atoms: C_14  and  C_15 
ROOT
HETATM    1  N   UNL     1       7.852  29.365  57.899  1.00  0.00    -0.336 N 
HETATM    2  C   UNL     1       8.166  29.998  59.069  1.00  0.00     0.335 C 
HETATM    3  N   UNL     1       7.094  30.647  59.628  1.00  0.00    -0.249 N 
HETATM    4  O   UNL     1       9.308  30.032  59.524  1.00  0.00    -0.246 OA
HETATM    5  H   UNL     1       6.874  29.390  57.631  1.00  0.00     0.164 HD
HETATM    6  H   UNL     1       6.160  30.255  59.497  1.00  0.00     0.192 HD
ENDROOT
BRANCH   1   7
HETATM    7  C   UNL     1       8.737  28.531  57.074  1.00  0.00     0.112 C 
HETATM    8  C   UNL     1       8.435  27.012  57.100  1.00  0.00     0.260 C 
HETATM    9  N   UNL     1       7.253  26.675  56.225  1.00  0.00    -0.065 N 
HETATM   10  H   UNL     1       6.478  27.259  56.605  1.00  0.00     0.280 HD
HETATM   11  C   UNL     1       7.435  27.109  54.803  1.00  0.00     0.235 C 
HETATM   12  C   UNL     1       7.655  28.616  54.756  1.00  0.00     0.030 C 
HETATM   13  C   UNL     1       8.824  29.055  55.633  1.00  0.00     0.028 C 
BRANCH   9  14
HETATM   14  C   UNL     1       6.740  25.268  56.390  1.00  0.00     0.273 C 
BRANCH  14  15
HETATM   15  C   UNL     1       7.386  24.237  55.505  1.00  0.00    -0.033 A 
HETATM   16  C   UNL     1       8.553  23.573  55.918  1.00  0.00     0.009 A 
HETATM   17  C   UNL     1       9.165  22.631  55.089  1.00  0.00     0.001 A 
HETATM   18  C   UNL     1       8.616  22.338  53.843  1.00  0.00     0.000 A 
HETATM   19  C   UNL     1       7.454  22.981  53.426  1.00  0.00     0.001 A 
HETATM   20  C   UNL     1       6.839  23.923  54.252  1.00  0.00     0.009 A 
ENDBRANCH  14  15
ENDBRANCH   9  14
ENDBRANCH   1   7
BRANCH   3  21
HETATM   21  N   UNL     1       7.270  31.217  60.901  1.00  0.00    -0.261 N 
HETATM   22  C   UNL     1       6.315  32.108  61.365  1.00  0.00     0.277 C 
HETATM   23  O   UNL     1       5.356  32.405  60.649  1.00  0.00    -0.265 OA
HETATM   24  H   UNL     1       8.029  30.882  61.488  1.00  0.00     0.190 HD
BRANCH  22  25
HETATM   25  C   UNL     1       6.520  32.641  62.702  1.00  0.00     0.075 A 
HETATM   26  S   UNL     1       5.220  33.182  63.683  1.00  0.00    -0.077 SA
HETATM   27  C   UNL     1       6.265  33.584  64.952  1.00  0.00     0.052 A 
HETATM   28 BR   UNL     1       5.671  34.302  66.577  1.00  0.00    -0.043 Br
HETATM   29  C   UNL     1       7.582  33.333  64.670  1.00  0.00     0.028 A 
HETATM   30  C   UNL     1       7.731  32.786  63.360  1.00  0.00     0.026 A 
ENDBRANCH  22  25
ENDBRANCH   3  21
TORSDOF 5
ENDMDL
MODEL 2
REMARK VINA RESULT:      -9.4      1.799      2.513
REMARK  5 active torsions:
REMARK  status: ('A' for Active; 'I' for Inactive)
REMARK    1  A    between atoms: C_4  and  C_5 
REMARK    2  A    between atoms: C_5  and  N_6 
REMARK    3  A    between atoms: C_9  and  N_10 
REMARK       I    between atoms: N_10  and  C_11 
REMARK       I    between atoms: C_11  and  N_12 
REMARK    4  A    between atoms: N_12  and  N_13 
REMARK       I    between atoms: N_13  and  C_14 
REMARK    5  A    between atoms: C_14  and  C_15 
ROOT
HETATM    1  N   UNL     1       6.652  29.139  55.387  1.00  0.00    -0.336 N 
HETATM    2  C   UNL     1       7.266  29.458  56.566  1.00  0.00     0.335 C 
HETATM    3  N   UNL     1       6.504  30.282  57.357  1.00  0.00    -0.249 N 
HETATM    4  O   UNL     1       8.406  29.094  56.844  1.00  0.00    -0.246 OA
HETATM    5  H   UNL     1       5.704  29.482  55.274  1.00  0.00     0.164 HD
HETATM    6  H   UNL     1       5.487  30.195  57.320  1.00  0.00     0.192 HD
ENDROOT
BRANCH   1   7
HETATM    7  C   UNL     1       7.152  28.237  54.340  1.00  0.00     0.112 C 
HETATM    8  C   UNL     1       7.371  26.767  54.776  1.00  0.00     0.260 C 
HETATM    9  N   UNL     1       6.064  26.016  54.840  1.00  0.00    -0.065 N 
HETATM   10  H   UNL     1       5.485  26.567  55.509  1.00  0.00     0.280 HD
HETATM   11  C   UNL     1       5.317  26.031  53.542  1.00  0.00     0.235 C 
HETATM   12  C   UNL     1       5.025  27.471  53.140  1.00  0.00     0.030 C 
HETATM   13  C   UNL     1       6.294  28.317  53.069  1.00  0.00     0.028 C 
BRANCH   9  14
HETATM   14  C   UNL     1       6.159  24.663  55.495  1.00  0.00     0.273 C 
BRANCH  14  15
HETATM   15  C   UNL     1       7.175  23.726  54.898  1.00  0.00    -0.033 A 
HETATM   16  C   UNL     1       7.047  23.286  53.571  1.00  0.00     0.009 A 
HETATM   17  C   UNL     1       7.977  22.401  53.023  1.00  0.00     0.001 A 
HETATM   18  C   UNL     1       9.048  21.952  53.792  1.00  0.00     0.000 A 
HETATM   19  C   UNL     1       9.193  22.388  55.106  1.00  0.00     0.001 A 
HETATM   20  C   UNL     1       8.265  23.273  55.657  1.00  0.00     0.009 A 
ENDBRANCH  14  15
ENDBRANCH   9  14
ENDBRANCH   1   7
BRANCH   3  21
HETATM   21  N   UNL     1       6.978  30.562  58.651  1.00  0.00    -0.261 N 
HETATM   22  C   UNL     1       6.757  31.825  59.177  1.00  0.00     0.277 C 
HETATM   23  O   UNL     1       6.183  32.679  58.498  1.00  0.00    -0.265 OA
HETATM   24  H   UNL     1       7.373  29.807  59.204  1.00  0.00     0.190 HD
BRANCH  22  25
HETATM   25  C   UNL     1       7.232  32.055  60.531  1.00  0.00     0.075 A 
HETATM   26  S   UNL     1       6.328  32.955  61.680  1.00  0.00    -0.077 SA
HETATM   27  C   UNL     1       7.507  32.731  62.874  1.00  0.00     0.052 A 
HETATM   28 BR   UNL     1       7.348  33.420  64.609  1.00  0.00    -0.043 Br
HETATM   29  C   UNL     1       8.582  31.999  62.444  1.00  0.00     0.028 A 
HETATM   30  C   UNL     1       8.423  31.608  61.080  1.00  0.00     0.026 A 
ENDBRANCH  22  25
ENDBRANCH   3  21
TORSDOF 5
ENDMDL
MODEL 3
REMARK VINA RESULT:      -9.4      2.130      3.157
REMARK  5 active torsions:
REMARK  status: ('A' for Active; 'I' for Inactive)
REMARK    1  A    between atoms: C_4  and  C_5 
REMARK    2  A    between atoms: C_5  and  N_6 
REMARK    3  A    between atoms: C_9  and  N_10 
REMARK       I    between atoms: N_10  and  C_11 
REMARK       I    between atoms: C_11  and  N_12 
REMARK    4  A    between atoms: N_12  and  N_13 
REMARK       I    between atoms: N_13  and  C_14 
REMARK    5  A    between atoms: C_14  and  C_15 
ROOT
HETATM    1  N   UNL     1       7.597  27.917  55.736  1.00  0.00    -0.336 N 
HETATM    2  C   UNL     1       7.167  28.692  56.776  1.00  0.00     0.335 C 
HETATM    3  N   UNL     1       7.944  28.556  57.899  1.00  0.00    -0.249 N 
HETATM    4  O   UNL     1       6.150  29.380  56.718  1.00  0.00    -0.246 OA
HETATM    5  H   UNL     1       8.458  27.404  55.893  1.00  0.00     0.164 HD
HETATM    6  H   UNL     1       8.940  28.365  57.786  1.00  0.00     0.192 HD
ENDROOT
BRANCH   1   7
HETATM    7  C   UNL     1       7.041  27.862  54.377  1.00  0.00     0.112 C 
HETATM    8  C   UNL     1       7.702  26.831  53.428  1.00  0.00     0.260 C 
HETATM    9  N   UNL     1       7.213  25.433  53.716  1.00  0.00    -0.065 N 
HETATM   10  H   UNL     1       7.446  25.282  54.721  1.00  0.00     0.280 HD
HETATM   11  C   UNL     1       5.725  25.300  53.615  1.00  0.00     0.235 C 
HETATM   12  C   UNL     1       5.062  26.254  54.601  1.00  0.00     0.030 C 
HETATM   13  C   UNL     1       5.515  27.698  54.398  1.00  0.00     0.028 C 
BRANCH   9  14
HETATM   14  C   UNL     1       7.989  24.349  53.013  1.00  0.00     0.273 C 
BRANCH  14  15
HETATM   15  C   UNL     1       7.954  22.998  53.675  1.00  0.00    -0.033 A 
HETATM   16  C   UNL     1       7.920  22.889  55.075  1.00  0.00     0.009 A 
HETATM   17  C   UNL     1       7.909  21.637  55.690  1.00  0.00     0.001 A 
HETATM   18  C   UNL     1       7.926  20.479  54.916  1.00  0.00     0.000 A 
HETATM   19  C   UNL     1       7.949  20.572  53.527  1.00  0.00     0.001 A 
HETATM   20  C   UNL     1       7.960  21.823  52.907  1.00  0.00     0.009 A 
ENDBRANCH  14  15
ENDBRANCH   9  14
ENDBRANCH   1   7
BRANCH   3  21
HETATM   21  N   UNL     1       7.674  29.409  58.984  1.00  0.00    -0.261 N 
HETATM   22  C   UNL     1       8.642  30.326  59.360  1.00  0.00     0.277 C 
HETATM   23  O   UNL     1       9.722  30.355  58.765  1.00  0.00    -0.265 OA
HETATM   24  H   UNL     1       6.743  29.406  59.392  1.00  0.00     0.190 HD
BRANCH  22  25
HETATM   25  C   UNL     1       8.303  31.211  60.462  1.00  0.00     0.075 A 
HETATM   26  S   UNL     1       6.946  32.261  60.411  1.00  0.00    -0.077 SA
HETATM   27  C   UNL     1       7.269  32.853  61.963  1.00  0.00     0.052 A 
HETATM   28 BR   UNL     1       6.206  34.146  62.805  1.00  0.00    -0.043 Br
HETATM   29  C   UNL     1       8.380  32.294  62.537  1.00  0.00     0.028 A 
HETATM   30  C   UNL     1       8.983  31.341  61.662  1.00  0.00     0.026 A 
ENDBRANCH  22  25
ENDBRANCH   3  21
TORSDOF 5
ENDMDL
MODEL 4
REMARK VINA RESULT:      -9.3      7.130     10.107
REMARK  5 active torsions:
REMARK  status: ('A' for Active; 'I' for Inactive)
REMARK    1  A    between atoms: C_4  and  C_5 
REMARK    2  A    between atoms: C_5  and  N_6 
REMARK    3  A    between atoms: C_9  and  N_10 
REMARK       I    between atoms: N_10  and  C_11 
REMARK       I    between atoms: C_11  and  N_12 
REMARK    4  A    between atoms: N_12  and  N_13 
REMARK       I    between atoms: N_13  and  C_14 
REMARK    5  A    between atoms: C_14  and  C_15 
ROOT
HETATM    1  N   UNL     1       6.130  28.674  54.050  1.00  0.00    -0.336 N 
HETATM    2  C   UNL     1       5.166  28.561  53.088  1.00  0.00     0.335 C 
HETATM    3  N   UNL     1       5.671  28.657  51.815  1.00  0.00    -0.249 N 
HETATM    4  O   UNL     1       3.970  28.455  53.351  1.00  0.00    -0.246 OA
HETATM    5  H   UNL     1       7.085  28.740  53.715  1.00  0.00     0.164 HD
HETATM    6  H   UNL     1       6.614  28.309  51.634  1.00  0.00     0.192 HD
ENDROOT
BRANCH   1   7
HETATM    7  C   UNL     1       5.953  28.558  55.504  1.00  0.00     0.112 C 
HETATM    8  C   UNL     1       5.726  27.121  56.036  1.00  0.00     0.260 C 
HETATM    9  N   UNL     1       7.023  26.353  56.104  1.00  0.00    -0.065 N 
HETATM   10  H   UNL     1       7.391  26.383  55.128  1.00  0.00     0.280 HD
HETATM   11  C   UNL     1       8.058  27.026  56.952  1.00  0.00     0.235 C 
HETATM   12  C   UNL     1       8.348  28.414  56.394  1.00  0.00     0.030 C 
HETATM   13  C   UNL     1       7.084  29.260  56.269  1.00  0.00     0.028 C 
BRANCH   9  14
HETATM   14  C   UNL     1       6.858  24.879  56.367  1.00  0.00     0.273 C 
BRANCH  14  15
HETATM   15  C   UNL     1       7.282  23.971  55.244  1.00  0.00    -0.033 A 
HETATM   16  C   UNL     1       7.486  24.482  53.952  1.00  0.00     0.009 A 
HETATM   17  C   UNL     1       7.860  23.637  52.906  1.00  0.00     0.001 A 
HETATM   18  C   UNL     1       8.038  22.276  53.138  1.00  0.00     0.000 A 
HETATM   19  C   UNL     1       7.849  21.758  54.416  1.00  0.00     0.001 A 
HETATM   20  C   UNL     1       7.476  22.599  55.466  1.00  0.00     0.009 A 
ENDBRANCH  14  15
ENDBRANCH   9  14
ENDBRANCH   1   7
BRANCH   3  21
HETATM   21  N   UNL     1       4.789  28.418  50.746  1.00  0.00    -0.261 N 
HETATM   22  C   UNL     1       4.769  27.156  50.175  1.00  0.00     0.277 C 
HETATM   23  O   UNL     1       5.537  26.284  50.590  1.00  0.00    -0.265 OA
HETATM   24  H   UNL     1       4.120  29.138  50.491  1.00  0.00     0.190 HD
BRANCH  22  25
HETATM   25  C   UNL     1       3.815  26.946  49.099  1.00  0.00     0.075 A 
HETATM   26  S   UNL     1       2.485  27.998  48.833  1.00  0.00    -0.077 SA
HETATM   27  C   UNL     1       1.962  27.098  47.498  1.00  0.00     0.052 A 
HETATM   28 BR   UNL     1       0.450  27.553  46.490  1.00  0.00    -0.043 Br
HETATM   29  C   UNL     1       2.752  26.011  47.234  1.00  0.00     0.028 A 
HETATM   30  C   UNL     1       3.828  25.921  48.166  1.00  0.00     0.026 A 
ENDBRANCH  22  25
ENDBRANCH   3  21
TORSDOF 5
ENDMDL
MODEL 5
REMARK VINA RESULT:      -9.3      7.738     10.524
REMARK  5 active torsions:
REMARK  status: ('A' for Active; 'I' for Inactive)
REMARK    1  A    between atoms: C_4  and  C_5 
REMARK    2  A    between atoms: C_5  and  N_6 
REMARK    3  A    between atoms: C_9  and  N_10 
REMARK       I    between atoms: N_10  and  C_11 
REMARK       I    between atoms: C_11  and  N_12 
REMARK    4  A    between atoms: N_12  and  N_13 
REMARK       I    between atoms: N_13  and  C_14 
REMARK    5  A    between atoms: C_14  and  C_15 
ROOT
HETATM    1  N   UNL     1       5.265  26.727  53.818  1.00  0.00    -0.336 N 
HETATM    2  C   UNL     1       4.408  27.357  52.959  1.00  0.00     0.335 C 
HETATM    3  N   UNL     1       4.677  27.081  51.642  1.00  0.00    -0.249 N 
HETATM    4  O   UNL     1       3.537  28.137  53.338  1.00  0.00    -0.246 OA
HETATM    5  H   UNL     1       5.932  26.093  53.392  1.00  0.00     0.164 HD
HETATM    6  H   UNL     1       5.058  26.165  51.400  1.00  0.00     0.192 HD
ENDROOT
BRANCH   1   7
HETATM    7  C   UNL     1       5.229  26.751  55.287  1.00  0.00     0.112 C 
HETATM    8  C   UNL     1       5.623  25.425  55.984  1.00  0.00     0.260 C 
HETATM    9  N   UNL     1       7.120  25.239  55.995  1.00  0.00    -0.065 N 
HETATM   10  H   UNL     1       7.391  25.276  54.989  1.00  0.00     0.280 HD
HETATM   11  C   UNL     1       7.846  26.369  56.657  1.00  0.00     0.235 C 
HETATM   12  C   UNL     1       7.528  27.671  55.931  1.00  0.00     0.030 C 
HETATM   13  C   UNL     1       6.027  27.934  55.853  1.00  0.00     0.028 C 
BRANCH   9  14
HETATM   14  C   UNL     1       7.570  23.867  56.425  1.00  0.00     0.273 C 
BRANCH  14  15
HETATM   15  C   UNL     1       7.697  22.853  55.320  1.00  0.00    -0.033 A 
HETATM   16  C   UNL     1       7.758  21.481  55.614  1.00  0.00     0.009 A 
HETATM   17  C   UNL     1       7.896  20.541  54.592  1.00  0.00     0.001 A 
HETATM   18  C   UNL     1       7.970  20.959  53.266  1.00  0.00     0.000 A 
HETATM   19  C   UNL     1       7.901  22.315  52.959  1.00  0.00     0.001 A 
HETATM   20  C   UNL     1       7.762  23.259  53.978  1.00  0.00     0.009 A 
ENDBRANCH  14  15
ENDBRANCH   9  14
ENDBRANCH   1   7
BRANCH   3  21
HETATM   21  N   UNL     1       3.774  27.565  50.678  1.00  0.00    -0.261 N 
HETATM   22  C   UNL     1       3.964  27.205  49.354  1.00  0.00     0.277 C 
HETATM   23  O   UNL     1       4.928  26.500  49.043  1.00  0.00    -0.265 OA
HETATM   24  H   UNL     1       2.951  28.074  50.988  1.00  0.00     0.190 HD
BRANCH  22  25
HETATM   25  C   UNL     1       2.984  27.698  48.400  1.00  0.00     0.075 A 
HETATM   26  S   UNL     1       1.754  26.694  47.747  1.00  0.00    -0.077 SA
HETATM   27  C   UNL     1       1.119  27.967  46.829  1.00  0.00     0.052 A 
HETATM   28 BR   UNL     1      -0.374  27.776  45.714  1.00  0.00    -0.043 Br
HETATM   29  C   UNL     1       1.804  29.143  46.985  1.00  0.00     0.028 A 
HETATM   30  C   UNL     1       2.891  28.986  47.897  1.00  0.00     0.026 A 
ENDBRANCH  22  25
ENDBRANCH   3  21
TORSDOF 5
ENDMDL
MODEL 6
REMARK VINA RESULT:      -9.1      4.983     10.774
REMARK  5 active torsions:
REMARK  status: ('A' for Active; 'I' for Inactive)
REMARK    1  A    between atoms: C_4  and  C_5 
REMARK    2  A    between atoms: C_5  and  N_6 
REMARK    3  A    between atoms: C_9  and  N_10 
REMARK       I    between atoms: N_10  and  C_11 
REMARK       I    between atoms: C_11  and  N_12 
REMARK    4  A    between atoms: N_12  and  N_13 
REMARK       I    between atoms: N_13  and  C_14 
REMARK    5  A    between atoms: C_14  and  C_15 
ROOT
HETATM    1  N   UNL     1       7.624  29.421  58.572  1.00  0.00    -0.336 N 
HETATM    2  C   UNL     1       8.108  28.558  57.628  1.00  0.00     0.335 C 
HETATM    3  N   UNL     1       7.421  27.370  57.591  1.00  0.00    -0.249 N 
HETATM    4  O   UNL     1       9.097  28.807  56.942  1.00  0.00    -0.246 OA
HETATM    5  H   UNL     1       6.793  29.115  59.066  1.00  0.00     0.164 HD
HETATM    6  H   UNL     1       6.425  27.372  57.814  1.00  0.00     0.192 HD
ENDROOT
BRANCH   1   7
HETATM    7  C   UNL     1       8.079  30.792  58.841  1.00  0.00     0.112 C 
HETATM    8  C   UNL     1       6.972  31.792  59.256  1.00  0.00     0.260 C 
HETATM    9  N   UNL     1       6.584  31.606  60.702  1.00  0.00    -0.065 N 
HETATM   10  H   UNL     1       6.287  30.608  60.762  1.00  0.00     0.280 HD
HETATM   11  C   UNL     1       7.741  31.746  61.642  1.00  0.00     0.235 C 
HETATM   12  C   UNL     1       8.807  30.715  61.293  1.00  0.00     0.030 C 
HETATM   13  C   UNL     1       9.249  30.814  59.835  1.00  0.00     0.028 C 
BRANCH   9  14
HETATM   14  C   UNL     1       5.346  32.361  61.114  1.00  0.00     0.273 C 
BRANCH  14  15
HETATM   15  C   UNL     1       5.485  33.201  62.354  1.00  0.00    -0.033 A 
HETATM   16  C   UNL     1       5.246  32.646  63.622  1.00  0.00     0.009 A 
HETATM   17  C   UNL     1       5.354  33.430  64.772  1.00  0.00     0.001 A 
HETATM   18  C   UNL     1       5.707  34.773  64.670  1.00  0.00     0.000 A 
HETATM   19  C   UNL     1       5.957  35.334  63.420  1.00  0.00     0.001 A 
HETATM   20  C   UNL     1       5.850  34.553  62.268  1.00  0.00     0.009 A 
ENDBRANCH  14  15
ENDBRANCH   9  14
ENDBRANCH   1   7
BRANCH   3  21
HETATM   21  N   UNL     1       7.746  26.464  56.565  1.00  0.00    -0.261 N 
HETATM   22  C   UNL     1       6.985  25.313  56.435  1.00  0.00     0.277 C 
HETATM   23  O   UNL     1       6.068  25.093  57.229  1.00  0.00    -0.265 OA
HETATM   24  H   UNL     1       8.455  26.724  55.886  1.00  0.00     0.190 HD
BRANCH  22  25
HETATM   25  C   UNL     1       7.334  24.426  55.338  1.00  0.00     0.075 A 
HETATM   26  S   UNL     1       7.532  22.734  55.554  1.00  0.00    -0.077 SA
HETATM   27  C   UNL     1       7.882  22.505  53.913  1.00  0.00     0.052 A 
HETATM   28 BR   UNL     1       8.255  20.825  53.174  1.00  0.00    -0.043 Br
HETATM   29  C   UNL     1       7.864  23.666  53.187  1.00  0.00     0.028 A 
HETATM   30  C   UNL     1       7.548  24.784  54.016  1.00  0.00     0.026 A 
ENDBRANCH  22  25
ENDBRANCH   3  21
TORSDOF 5
ENDMDL
MODEL 7
REMARK VINA RESULT:      -8.7      8.420     11.705
REMARK  5 active torsions:
REMARK  status: ('A' for Active; 'I' for Inactive)
REMARK    1  A    between atoms: C_4  and  C_5 
REMARK    2  A    between atoms: C_5  and  N_6 
REMARK    3  A    between atoms: C_9  and  N_10 
REMARK       I    between atoms: N_10  and  C_11 
REMARK       I    between atoms: C_11  and  N_12 
REMARK    4  A    between atoms: N_12  and  N_13 
REMARK       I    between atoms: N_13  and  C_14 
REMARK    5  A    between atoms: C_14  and  C_15 
ROOT
HETATM    1  N   UNL     1       5.933  25.635  51.236  1.00  0.00    -0.336 N 
HETATM    2  C   UNL     1       5.206  26.586  50.576  1.00  0.00     0.335 C 
HETATM    3  N   UNL     1       4.193  26.053  49.820  1.00  0.00    -0.249 N 
HETATM    4  O   UNL     1       5.485  27.783  50.612  1.00  0.00    -0.246 OA
HETATM    5  H   UNL     1       5.599  24.681  51.146  1.00  0.00     0.164 HD
HETATM    6  H   UNL     1       3.737  25.198  50.143  1.00  0.00     0.192 HD
ENDROOT
BRANCH   1   7
HETATM    7  C   UNL     1       7.043  25.855  52.173  1.00  0.00     0.112 C 
HETATM    8  C   UNL     1       6.629  26.215  53.622  1.00  0.00     0.260 C 
HETATM    9  N   UNL     1       6.190  24.990  54.385  1.00  0.00    -0.065 N 
HETATM   10  H   UNL     1       5.409  24.600  53.815  1.00  0.00     0.280 HD
HETATM   11  C   UNL     1       7.238  23.922  54.431  1.00  0.00     0.235 C 
HETATM   12  C   UNL     1       7.598  23.502  53.012  1.00  0.00     0.030 C 
HETATM   13  C   UNL     1       8.038  24.686  52.155  1.00  0.00     0.028 C 
BRANCH   9  14
HETATM   14  C   UNL     1       5.536  25.287  55.710  1.00  0.00     0.273 C 
BRANCH  14  15
HETATM   15  C   UNL     1       6.045  26.511  56.421  1.00  0.00    -0.033 A 
HETATM   16  C   UNL     1       5.216  27.632  56.595  1.00  0.00     0.009 A 
HETATM   17  C   UNL     1       5.694  28.775  57.236  1.00  0.00     0.001 A 
HETATM   18  C   UNL     1       7.001  28.812  57.716  1.00  0.00     0.000 A 
HETATM   19  C   UNL     1       7.830  27.705  57.560  1.00  0.00     0.001 A 
HETATM   20  C   UNL     1       7.356  26.558  56.920  1.00  0.00     0.009 A 
ENDBRANCH  14  15
ENDBRANCH   9  14
ENDBRANCH   1   7
BRANCH   3  21
HETATM   21  N   UNL     1       3.297  26.948  49.209  1.00  0.00    -0.261 N 
HETATM   22  C   UNL     1       3.239  26.984  47.825  1.00  0.00     0.277 C 
HETATM   23  O   UNL     1       3.987  26.261  47.162  1.00  0.00    -0.265 OA
HETATM   24  H   UNL     1       2.644  27.464  49.792  1.00  0.00     0.190 HD
BRANCH  22  25
HETATM   25  C   UNL     1       2.272  27.897  47.240  1.00  0.00     0.075 A 
HETATM   26  S   UNL     1       0.701  27.390  46.765  1.00  0.00    -0.077 SA
HETATM   27  C   UNL     1       0.287  28.949  46.252  1.00  0.00     0.052 A 
HETATM   28 BR   UNL     1      -1.389  29.376  45.532  1.00  0.00    -0.043 Br
HETATM   29  C   UNL     1       1.297  29.860  46.416  1.00  0.00     0.028 A 
HETATM   30  C   UNL     1       2.452  29.248  46.988  1.00  0.00     0.026 A 
ENDBRANCH  22  25
ENDBRANCH   3  21
TORSDOF 5
ENDMDL
MODEL 8
REMARK VINA RESULT:      -8.7      4.997     10.312
REMARK  5 active torsions:
REMARK  status: ('A' for Active; 'I' for Inactive)
REMARK    1  A    between atoms: C_4  and  C_5 
REMARK    2  A    between atoms: C_5  and  N_6 
REMARK    3  A    between atoms: C_9  and  N_10 
REMARK       I    between atoms: N_10  and  C_11 
REMARK       I    between atoms: C_11  and  N_12 
REMARK    4  A    between atoms: N_12  and  N_13 
REMARK       I    between atoms: N_13  and  C_14 
REMARK    5  A    between atoms: C_14  and  C_15 
ROOT
HETATM    1  N   UNL     1       4.997  29.879  58.086  1.00  0.00    -0.336 N 
HETATM    2  C   UNL     1       5.088  28.841  57.201  1.00  0.00     0.335 C 
HETATM    3  N   UNL     1       6.216  28.081  57.386  1.00  0.00    -0.249 N 
HETATM    4  O   UNL     1       4.274  28.661  56.298  1.00  0.00    -0.246 OA
HETATM    5  H   UNL     1       5.718  29.917  58.799  1.00  0.00     0.164 HD
HETATM    6  H   UNL     1       6.588  27.977  58.331  1.00  0.00     0.192 HD
ENDROOT
BRANCH   1   7
HETATM    7  C   UNL     1       3.900  30.847  58.211  1.00  0.00     0.112 C 
HETATM    8  C   UNL     1       3.443  31.152  59.660  1.00  0.00     0.260 C 
HETATM    9  N   UNL     1       4.396  32.100  60.345  1.00  0.00    -0.065 N 
HETATM   10  H   UNL     1       5.319  31.618  60.292  1.00  0.00     0.280 HD
HETATM   11  C   UNL     1       4.567  33.393  59.608  1.00  0.00     0.235 C 
HETATM   12  C   UNL     1       5.091  33.112  58.205  1.00  0.00     0.030 C 
HETATM   13  C   UNL     1       4.197  32.141  57.439  1.00  0.00     0.028 C 
BRANCH   9  14
HETATM   14  C   UNL     1       4.165  32.248  61.826  1.00  0.00     0.273 C 
BRANCH  14  15
HETATM   15  C   UNL     1       5.397  32.515  62.648  1.00  0.00    -0.033 A 
HETATM   16  C   UNL     1       6.648  32.023  62.240  1.00  0.00     0.009 A 
HETATM   17  C   UNL     1       7.787  32.253  63.012  1.00  0.00     0.001 A 
HETATM   18  C   UNL     1       7.693  32.979  64.196  1.00  0.00     0.000 A 
HETATM   19  C   UNL     1       6.461  33.481  64.608  1.00  0.00     0.001 A 
HETATM   20  C   UNL     1       5.319  33.255  63.838  1.00  0.00     0.009 A 
ENDBRANCH  14  15
ENDBRANCH   9  14
ENDBRANCH   1   7
BRANCH   3  21
HETATM   21  N   UNL     1       6.341  26.907  56.622  1.00  0.00    -0.261 N 
HETATM   22  C   UNL     1       7.354  26.016  56.940  1.00  0.00     0.277 C 
HETATM   23  O   UNL     1       8.136  26.279  57.857  1.00  0.00    -0.265 OA
HETATM   24  H   UNL     1       5.628  26.692  55.931  1.00  0.00     0.190 HD
BRANCH  22  25
HETATM   25  C   UNL     1       7.420  24.800  56.147  1.00  0.00     0.075 A 
HETATM   26  S   UNL     1       8.137  23.356  56.738  1.00  0.00    -0.077 SA
HETATM   27  C   UNL     1       7.794  22.526  55.303  1.00  0.00     0.052 A 
HETATM   28 BR   UNL     1       8.248  20.729  55.030  1.00  0.00    -0.043 Br
HETATM   29  C   UNL     1       7.156  23.298  54.369  1.00  0.00     0.028 A 
HETATM   30  C   UNL     1       6.941  24.622  54.859  1.00  0.00     0.026 A 
ENDBRANCH  22  25
ENDBRANCH   3  21
TORSDOF 5
ENDMDL
MODEL 9
REMARK VINA RESULT:      -8.4      5.296      9.967
REMARK  5 active torsions:
REMARK  status: ('A' for Active; 'I' for Inactive)
REMARK    1  A    between atoms: C_4  and  C_5 
REMARK    2  A    between atoms: C_5  and  N_6 
REMARK    3  A    between atoms: C_9  and  N_10 
REMARK       I    between atoms: N_10  and  C_11 
REMARK       I    between atoms: C_11  and  N_12 
REMARK    4  A    between atoms: N_12  and  N_13 
REMARK       I    between atoms: N_13  and  C_14 
REMARK    5  A    between atoms: C_14  and  C_15 
ROOT
HETATM    1  N   UNL     1       5.493  29.867  56.242  1.00  0.00    -0.336 N 
HETATM    2  C   UNL     1       5.553  28.524  56.000  1.00  0.00     0.335 C 
HETATM    3  N   UNL     1       6.805  28.106  55.624  1.00  0.00    -0.249 N 
HETATM    4  O   UNL     1       4.566  27.792  56.050  1.00  0.00    -0.246 OA
HETATM    5  H   UNL     1       6.374  30.367  56.187  1.00  0.00     0.164 HD
HETATM    6  H   UNL     1       7.619  28.590  56.004  1.00  0.00     0.192 HD
ENDROOT
BRANCH   1   7
HETATM    7  C   UNL     1       4.333  30.635  56.718  1.00  0.00     0.112 C 
HETATM    8  C   UNL     1       4.330  30.968  58.231  1.00  0.00     0.260 C 
HETATM    9  N   UNL     1       5.255  32.119  58.538  1.00  0.00    -0.065 N 
HETATM   10  H   UNL     1       6.184  31.804  58.183  1.00  0.00     0.280 HD
HETATM   11  C   UNL     1       4.922  33.360  57.767  1.00  0.00     0.235 C 
HETATM   12  C   UNL     1       4.997  33.066  56.274  1.00  0.00     0.030 C 
HETATM   13  C   UNL     1       4.105  31.895  55.872  1.00  0.00     0.028 C 
BRANCH   9  14
HETATM   14  C   UNL     1       5.502  32.341  60.007  1.00  0.00     0.273 C 
BRANCH  14  15
HETATM   15  C   UNL     1       6.933  32.194  60.451  1.00  0.00    -0.033 A 
HETATM   16  C   UNL     1       7.953  31.979  59.510  1.00  0.00     0.009 A 
HETATM   17  C   UNL     1       9.277  31.821  59.922  1.00  0.00     0.001 A 
HETATM   18  C   UNL     1       9.598  31.882  61.276  1.00  0.00     0.000 A 
HETATM   19  C   UNL     1       8.598  32.105  62.219  1.00  0.00     0.001 A 
HETATM   20  C   UNL     1       7.272  32.263  61.811  1.00  0.00     0.009 A 
ENDBRANCH  14  15
ENDBRANCH   9  14
ENDBRANCH   1   7
BRANCH   3  21
HETATM   21  N   UNL     1       7.014  26.722  55.483  1.00  0.00    -0.261 N 
HETATM   22  C   UNL     1       7.278  26.219  54.219  1.00  0.00     0.277 C 
HETATM   23  O   UNL     1       7.296  26.979  53.248  1.00  0.00    -0.265 OA
HETATM   24  H   UNL     1       7.071  26.147  56.318  1.00  0.00     0.190 HD
BRANCH  22  25
HETATM   25  C   UNL     1       7.525  24.789  54.129  1.00  0.00     0.075 A 
HETATM   26  S   UNL     1       7.471  23.761  55.503  1.00  0.00    -0.077 SA
HETATM   27  C   UNL     1       7.827  22.394  54.570  1.00  0.00     0.052 A 
HETATM   28 BR   UNL     1       7.974  20.673  55.293  1.00  0.00    -0.043 Br
HETATM   29  C   UNL     1       7.996  22.675  53.240  1.00  0.00     0.028 A 
HETATM   30  C   UNL     1       7.822  24.068  52.984  1.00  0.00     0.026 A 
ENDBRANCH  22  25
ENDBRANCH   3  21
TORSDOF 5
ENDMDL
MODEL 10
REMARK VINA RESULT:      -8.4      5.542      9.363
REMARK  5 active torsions:
REMARK  status: ('A' for Active; 'I' for Inactive)
REMARK    1  A    between atoms: C_4  and  C_5 
REMARK    2  A    between atoms: C_5  and  N_6 
REMARK    3  A    between atoms: C_9  and  N_10 
REMARK       I    between atoms: N_10  and  C_11 
REMARK       I    between atoms: C_11  and  N_12 
REMARK    4  A    between atoms: N_12  and  N_13 
REMARK       I    between atoms: N_13  and  C_14 
REMARK    5  A    between atoms: C_14  and  C_15 
ROOT
HETATM    1  N   UNL     1       4.341  29.206  55.493  1.00  0.00    -0.336 N 
HETATM    2  C   UNL     1       4.609  27.866  55.439  1.00  0.00     0.335 C 
HETATM    3  N   UNL     1       5.111  27.472  54.224  1.00  0.00    -0.249 N 
HETATM    4  O   UNL     1       4.357  27.098  56.365  1.00  0.00    -0.246 OA
HETATM    5  H   UNL     1       4.606  29.744  54.676  1.00  0.00     0.164 HD
HETATM    6  H   UNL     1       5.688  28.128  53.696  1.00  0.00     0.192 HD
ENDROOT
BRANCH   1   7
HETATM    7  C   UNL     1       3.855  29.970  56.651  1.00  0.00     0.112 C 
HETATM    8  C   UNL     1       4.831  30.052  57.851  1.00  0.00     0.260 C 
HETATM    9  N   UNL     1       5.919  31.067  57.601  1.00  0.00    -0.065 N 
HETATM   10  H   UNL     1       6.372  30.745  56.718  1.00  0.00     0.280 HD
HETATM   11  C   UNL     1       5.388  32.437  57.313  1.00  0.00     0.235 C 
HETATM   12  C   UNL     1       4.487  32.385  56.086  1.00  0.00     0.030 C 
HETATM   13  C   UNL     1       3.362  31.364  56.240  1.00  0.00     0.028 C 
BRANCH   9  14
HETATM   14  C   UNL     1       7.045  31.028  58.602  1.00  0.00     0.273 C 
BRANCH  14  15
HETATM   15  C   UNL     1       8.374  30.572  58.062  1.00  0.00    -0.033 A 
HETATM   16  C   UNL     1       8.461  29.423  57.260  1.00  0.00     0.009 A 
HETATM   17  C   UNL     1       9.696  28.987  56.776  1.00  0.00     0.001 A 
HETATM   18  C   UNL     1      10.854  29.696  57.083  1.00  0.00     0.000 A 
HETATM   19  C   UNL     1      10.781  30.843  57.869  1.00  0.00     0.001 A 
HETATM   20  C   UNL     1       9.548  31.282  58.355  1.00  0.00     0.009 A 
ENDBRANCH  14  15
ENDBRANCH   9  14
ENDBRANCH   1   7
BRANCH   3  21
HETATM   21  N   UNL     1       5.550  26.142  54.103  1.00  0.00    -0.261 N 
HETATM   22  C   UNL     1       6.913  25.891  54.126  1.00  0.00     0.277 C 
HETATM   23  O   UNL     1       7.707  26.830  54.222  1.00  0.00    -0.265 OA
HETATM   24  H   UNL     1       4.862  25.395  54.108  1.00  0.00     0.190 HD
BRANCH  22  25
HETATM   25  C   UNL     1       7.317  24.498  54.036  1.00  0.00     0.075 A 
HETATM   26  S   UNL     1       7.334  23.457  55.401  1.00  0.00    -0.077 SA
HETATM   27  C   UNL     1       7.867  22.147  54.471  1.00  0.00     0.052 A 
HETATM   28 BR   UNL     1       8.180  20.445  55.188  1.00  0.00    -0.043 Br
HETATM   29  C   UNL     1       8.046  22.457  53.148  1.00  0.00     0.028 A 
HETATM   30  C   UNL     1       7.729  23.826  52.896  1.00  0.00     0.026 A 
ENDBRANCH  22  25
ENDBRANCH   3  21
TORSDOF 5
ENDMDL
