MODEL 1
REMARK VINA RESULT:      -9.9      0.000      0.000
REMARK  6 active torsions:
REMARK  status: ('A' for Active; 'I' for Inactive)
REMARK    1  A    between atoms: C_2  and  O_3 
REMARK    2  A    between atoms: C_2  and  C_4 
REMARK    3  A    between atoms: C_6  and  N_7 
REMARK       I    between atoms: N_7  and  C_8 
REMARK    4  A    between atoms: C_8  and  C_9 
REMARK    5  A    between atoms: C_12  and  C_13 
REMARK    6  A    between atoms: C_18  and  C_19 
ROOT
HETATM    1  C   UNL     1       6.990  27.585  55.832  1.00  0.00     0.096 C 
HETATM    2  C   UNL     1       6.840  26.338  55.253  1.00  0.00     0.138 C 
HETATM    3  N   UNL     1       5.898  26.490  54.262  1.00  0.00    -0.240 N 
HETATM    4  C   UNL     1       5.390  25.405  53.442  1.00  0.00     0.221 C 
HETATM    5  C   UNL     1       6.316  24.178  53.533  1.00  0.00     0.067 C 
HETATM    6  C   UNL     1       6.730  23.921  54.988  1.00  0.00     0.125 C 
HETATM    7  N   UNL     1       7.404  25.123  55.509  1.00  0.00    -0.365 N 
HETATM    8  N   UNL     1       5.315  27.698  54.266  1.00  0.00    -0.181 NA
HETATM    9  C   UNL     1       6.000  28.371  55.195  1.00  0.00     0.160 C 
HETATM   10  H   UNL     1       7.760  24.958  56.453  1.00  0.00     0.162 HD
ENDROOT
BRANCH   1  11
HETATM   11  C   UNL     1       7.894  28.009  56.888  1.00  0.00     0.261 C 
HETATM   12  N   UNL     1       7.711  29.325  57.265  1.00  0.00    -0.323 N 
HETATM   13  H   UNL     1       6.895  29.779  56.871  1.00  0.00     0.169 HD
HETATM   14  O   UNL     1       8.696  27.220  57.374  1.00  0.00    -0.267 OA
BRANCH  12  15
HETATM   15  C   UNL     1       8.483  30.086  58.164  1.00  0.00     0.035 A 
HETATM   16  C   UNL     1       8.271  30.106  59.544  1.00  0.00     0.039 A 
HETATM   17  C   UNL     1       9.099  30.860  60.397  1.00  0.00    -0.028 A 
HETATM   18  C   UNL     1      10.150  31.598  59.836  1.00  0.00     0.010 A 
HETATM   19  C   UNL     1      10.366  31.588  58.460  1.00  0.00     0.003 A 
HETATM   20  C   UNL     1       9.538  30.832  57.628  1.00  0.00     0.029 A 
BRANCH  17  21
HETATM   21  C   UNL     1       8.861  30.820  61.891  1.00  0.00     0.147 C 
HETATM   22  C   UNL     1       7.461  31.310  62.243  1.00  0.00     0.044 C 
BRANCH  21  23
HETATM   23  O   UNL     1       9.025  29.492  62.389  1.00  0.00    -0.391 OA
HETATM   24  H   UNL     1       8.135  29.155  62.587  1.00  0.00     0.210 HD
ENDBRANCH  21  23
ENDBRANCH  17  21
ENDBRANCH  12  15
ENDBRANCH   1  11
BRANCH   4  25
HETATM   25  C   UNL     1       5.237  25.817  51.993  1.00  0.00     0.409 C 
HETATM   26  F   UNL     1       6.429  26.001  51.382  1.00  0.00    -0.169 F 
HETATM   27  F   UNL     1       4.600  24.829  51.307  1.00  0.00    -0.169 F 
HETATM   28  F   UNL     1       4.495  26.928  51.821  1.00  0.00    -0.169 F 
ENDBRANCH   4  25
BRANCH   6  29
HETATM   29  C   UNL     1       7.605  22.694  55.076  1.00  0.00     0.005 A 
HETATM   30  S   UNL     1       8.362  22.281  56.559  1.00  0.00    -0.104 SA
HETATM   31  C   UNL     1       9.097  20.898  55.875  1.00  0.00     0.050 A 
HETATM   32  C   UNL     1       8.776  20.747  54.545  1.00  0.00     0.008 A 
HETATM   33  C   UNL     1       7.916  21.783  54.083  1.00  0.00     0.017 A 
ENDBRANCH   6  29
TORSDOF 6
ENDMDL
MODEL 2
REMARK VINA RESULT:      -9.5      4.628      8.323
REMARK  6 active torsions:
REMARK  status: ('A' for Active; 'I' for Inactive)
REMARK    1  A    between atoms: C_2  and  O_3 
REMARK    2  A    between atoms: C_2  and  C_4 
REMARK    3  A    between atoms: C_6  and  N_7 
REMARK       I    between atoms: N_7  and  C_8 
REMARK    4  A    between atoms: C_8  and  C_9 
REMARK    5  A    between atoms: C_12  and  C_13 
REMARK    6  A    between atoms: C_18  and  C_19 
ROOT
HETATM    1  C   UNL     1       5.952  26.804  52.965  1.00  0.00     0.096 C 
HETATM    2  C   UNL     1       6.642  25.878  53.726  1.00  0.00     0.138 C 
HETATM    3  N   UNL     1       6.925  26.502  54.920  1.00  0.00    -0.240 N 
HETATM    4  C   UNL     1       7.700  25.905  55.993  1.00  0.00     0.221 C 
HETATM    5  C   UNL     1       7.804  24.380  55.802  1.00  0.00     0.067 C 
HETATM    6  C   UNL     1       8.115  24.039  54.339  1.00  0.00     0.125 C 
HETATM    7  N   UNL     1       7.054  24.601  53.485  1.00  0.00    -0.365 N 
HETATM    8  N   UNL     1       6.612  27.807  54.922  1.00  0.00    -0.181 NA
HETATM    9  C   UNL     1       5.994  27.981  53.750  1.00  0.00     0.160 C 
HETATM   10  H   UNL     1       7.191  24.327  52.509  1.00  0.00     0.162 HD
ENDROOT
BRANCH   1  11
HETATM   11  C   UNL     1       5.367  26.657  51.643  1.00  0.00     0.261 C 
HETATM   12  N   UNL     1       5.269  27.852  50.957  1.00  0.00    -0.323 N 
HETATM   13  H   UNL     1       5.737  28.640  51.389  1.00  0.00     0.169 HD
HETATM   14  O   UNL     1       5.040  25.553  51.225  1.00  0.00    -0.267 OA
BRANCH  12  15
HETATM   15  C   UNL     1       4.651  28.092  49.714  1.00  0.00     0.035 A 
HETATM   16  C   UNL     1       3.285  27.916  49.480  1.00  0.00     0.039 A 
HETATM   17  C   UNL     1       2.719  28.206  48.224  1.00  0.00    -0.028 A 
HETATM   18  C   UNL     1       3.552  28.679  47.202  1.00  0.00     0.010 A 
HETATM   19  C   UNL     1       4.916  28.853  47.425  1.00  0.00     0.003 A 
HETATM   20  C   UNL     1       5.462  28.564  48.677  1.00  0.00     0.029 A 
BRANCH  17  21
HETATM   21  C   UNL     1       1.227  28.042  48.026  1.00  0.00     0.147 C 
HETATM   22  C   UNL     1       0.837  28.232  46.565  1.00  0.00     0.044 C 
BRANCH  21  23
HETATM   23  O   UNL     1       0.804  26.747  48.452  1.00  0.00    -0.391 OA
HETATM   24  H   UNL     1      -0.166  26.773  48.510  1.00  0.00     0.210 HD
ENDBRANCH  21  23
ENDBRANCH  17  21
ENDBRANCH  12  15
ENDBRANCH   1  11
BRANCH   4  25
HETATM   25  C   UNL     1       7.106  26.206  57.352  1.00  0.00     0.409 C 
HETATM   26  F   UNL     1       5.777  25.963  57.398  1.00  0.00    -0.169 F 
HETATM   27  F   UNL     1       7.679  25.397  58.285  1.00  0.00    -0.169 F 
HETATM   28  F   UNL     1       7.323  27.469  57.771  1.00  0.00    -0.169 F 
ENDBRANCH   4  25
BRANCH   6  29
HETATM   29  C   UNL     1       8.255  22.547  54.166  1.00  0.00     0.005 A 
HETATM   30  S   UNL     1       8.750  21.570  55.487  1.00  0.00    -0.104 SA
HETATM   31  C   UNL     1       8.665  20.144  54.550  1.00  0.00     0.050 A 
HETATM   32  C   UNL     1       8.267  20.398  53.256  1.00  0.00     0.008 A 
HETATM   33  C   UNL     1       8.032  21.784  53.034  1.00  0.00     0.017 A 
ENDBRANCH   6  29
TORSDOF 6
ENDMDL
MODEL 3
REMARK VINA RESULT:      -9.4      2.625      4.274
REMARK  6 active torsions:
REMARK  status: ('A' for Active; 'I' for Inactive)
REMARK    1  A    between atoms: C_2  and  O_3 
REMARK    2  A    between atoms: C_2  and  C_4 
REMARK    3  A    between atoms: C_6  and  N_7 
REMARK       I    between atoms: N_7  and  C_8 
REMARK    4  A    between atoms: C_8  and  C_9 
REMARK    5  A    between atoms: C_12  and  C_13 
REMARK    6  A    between atoms: C_18  and  C_19 
ROOT
HETATM    1  C   UNL     1       7.433  26.330  56.464  1.00  0.00     0.096 C 
HETATM    2  C   UNL     1       7.246  25.980  55.139  1.00  0.00     0.138 C 
HETATM    3  N   UNL     1       7.907  24.785  54.966  1.00  0.00    -0.240 N 
HETATM    4  C   UNL     1       8.021  24.089  53.696  1.00  0.00     0.221 C 
HETATM    5  C   UNL     1       6.985  24.625  52.690  1.00  0.00     0.067 C 
HETATM    6  C   UNL     1       6.935  26.158  52.732  1.00  0.00     0.125 C 
HETATM    7  N   UNL     1       6.601  26.585  54.102  1.00  0.00    -0.365 N 
HETATM    8  N   UNL     1       8.637  24.424  56.031  1.00  0.00    -0.181 NA
HETATM    9  C   UNL     1       8.324  25.343  56.949  1.00  0.00     0.160 C 
HETATM   10  H   UNL     1       6.486  27.600  54.147  1.00  0.00     0.162 HD
ENDROOT
BRANCH   1  11
HETATM   11  C   UNL     1       6.908  27.469  57.199  1.00  0.00     0.261 C 
HETATM   12  N   UNL     1       7.879  28.394  57.532  1.00  0.00    -0.323 N 
HETATM   13  H   UNL     1       8.787  28.241  57.110  1.00  0.00     0.169 HD
HETATM   14  O   UNL     1       5.711  27.555  57.442  1.00  0.00    -0.267 OA
BRANCH  12  15
HETATM   15  C   UNL     1       7.743  29.543  58.335  1.00  0.00     0.035 A 
HETATM   16  C   UNL     1       8.435  29.738  59.534  1.00  0.00     0.039 A 
HETATM   17  C   UNL     1       8.283  30.925  60.275  1.00  0.00    -0.028 A 
HETATM   18  C   UNL     1       7.423  31.919  59.790  1.00  0.00     0.010 A 
HETATM   19  C   UNL     1       6.725  31.730  58.599  1.00  0.00     0.003 A 
HETATM   20  C   UNL     1       6.888  30.549  57.873  1.00  0.00     0.029 A 
BRANCH  17  21
HETATM   21  C   UNL     1       9.084  31.114  61.546  1.00  0.00     0.147 C 
HETATM   22  C   UNL     1       8.388  32.076  62.502  1.00  0.00     0.044 C 
BRANCH  21  23
HETATM   23  O   UNL     1       9.276  29.864  62.208  1.00  0.00    -0.391 OA
HETATM   24  H   UNL     1       9.226  29.174  61.525  1.00  0.00     0.210 HD
ENDBRANCH  21  23
ENDBRANCH  17  21
ENDBRANCH  12  15
ENDBRANCH   1  11
BRANCH   4  25
HETATM   25  C   UNL     1       7.845  22.594  53.855  1.00  0.00     0.409 C 
HETATM   26  F   UNL     1       7.328  22.017  52.747  1.00  0.00    -0.169 F 
HETATM   27  F   UNL     1       9.060  22.016  54.061  1.00  0.00    -0.169 F 
HETATM   28  F   UNL     1       7.083  22.246  54.911  1.00  0.00    -0.169 F 
ENDBRANCH   4  25
BRANCH   6  29
HETATM   29  C   UNL     1       5.948  26.679  51.716  1.00  0.00     0.005 A 
HETATM   30  S   UNL     1       5.470  28.326  51.746  1.00  0.00    -0.104 SA
HETATM   31  C   UNL     1       4.437  28.120  50.400  1.00  0.00     0.050 A 
HETATM   32  C   UNL     1       4.452  26.825  49.931  1.00  0.00     0.008 A 
HETATM   33  C   UNL     1       5.322  25.993  50.691  1.00  0.00     0.017 A 
ENDBRANCH   6  29
TORSDOF 6
ENDMDL
MODEL 4
REMARK VINA RESULT:      -9.3      3.696      8.242
REMARK  6 active torsions:
REMARK  status: ('A' for Active; 'I' for Inactive)
REMARK    1  A    between atoms: C_2  and  O_3 
REMARK    2  A    between atoms: C_2  and  C_4 
REMARK    3  A    between atoms: C_6  and  N_7 
REMARK       I    between atoms: N_7  and  C_8 
REMARK    4  A    between atoms: C_8  and  C_9 
REMARK    5  A    between atoms: C_12  and  C_13 
REMARK    6  A    between atoms: C_18  and  C_19 
ROOT
HETATM    1  C   UNL     1       6.404  28.455  55.943  1.00  0.00     0.096 C 
HETATM    2  C   UNL     1       6.434  29.482  56.870  1.00  0.00     0.138 C 
HETATM    3  N   UNL     1       5.441  30.359  56.497  1.00  0.00    -0.240 N 
HETATM    4  C   UNL     1       5.167  31.619  57.165  1.00  0.00     0.221 C 
HETATM    5  C   UNL     1       5.831  31.650  58.555  1.00  0.00     0.067 C 
HETATM    6  C   UNL     1       7.264  31.107  58.481  1.00  0.00     0.125 C 
HETATM    7  N   UNL     1       7.224  29.732  57.952  1.00  0.00    -0.365 N 
HETATM    8  N   UNL     1       4.884  30.057  55.314  1.00  0.00    -0.181 NA
HETATM    9  C   UNL     1       5.445  28.887  54.996  1.00  0.00     0.160 C 
HETATM   10  H   UNL     1       8.157  29.313  57.961  1.00  0.00     0.162 HD
ENDROOT
BRANCH   1  11
HETATM   11  C   UNL     1       7.198  27.239  55.890  1.00  0.00     0.261 C 
HETATM   12  N   UNL     1       6.847  26.407  54.845  1.00  0.00    -0.323 N 
HETATM   13  H   UNL     1       6.195  26.802  54.176  1.00  0.00     0.169 HD
HETATM   14  O   UNL     1       8.095  27.045  56.701  1.00  0.00    -0.267 OA
BRANCH  12  15
HETATM   15  C   UNL     1       7.323  25.111  54.569  1.00  0.00     0.035 A 
HETATM   16  C   UNL     1       7.466  24.115  55.538  1.00  0.00     0.039 A 
HETATM   17  C   UNL     1       7.916  22.825  55.195  1.00  0.00    -0.028 A 
HETATM   18  C   UNL     1       8.219  22.551  53.854  1.00  0.00     0.010 A 
HETATM   19  C   UNL     1       8.084  23.541  52.883  1.00  0.00     0.003 A 
HETATM   20  C   UNL     1       7.635  24.813  53.238  1.00  0.00     0.029 A 
BRANCH  17  21
HETATM   21  C   UNL     1       8.016  21.763  56.268  1.00  0.00     0.147 C 
HETATM   22  C   UNL     1       9.126  20.765  55.960  1.00  0.00     0.044 C 
BRANCH  21  23
HETATM   23  O   UNL     1       8.271  22.358  57.540  1.00  0.00    -0.391 OA
HETATM   24  H   UNL     1       7.545  22.982  57.708  1.00  0.00     0.210 HD
ENDBRANCH  21  23
ENDBRANCH  17  21
ENDBRANCH  12  15
ENDBRANCH   1  11
BRANCH   4  25
HETATM   25  C   UNL     1       3.682  31.870  57.309  1.00  0.00     0.409 C 
HETATM   26  F   UNL     1       2.996  30.744  57.607  1.00  0.00    -0.169 F 
HETATM   27  F   UNL     1       3.466  32.737  58.336  1.00  0.00    -0.169 F 
HETATM   28  F   UNL     1       3.120  32.435  56.221  1.00  0.00    -0.169 F 
ENDBRANCH   4  25
BRANCH   6  29
HETATM   29  C   UNL     1       7.923  31.177  59.837  1.00  0.00     0.005 A 
HETATM   30  S   UNL     1       7.164  32.027  61.119  1.00  0.00    -0.104 SA
HETATM   31  C   UNL     1       8.434  31.659  62.202  1.00  0.00     0.050 A 
HETATM   32  C   UNL     1       9.419  30.903  61.607  1.00  0.00     0.008 A 
HETATM   33  C   UNL     1       9.125  30.626  60.242  1.00  0.00     0.017 A 
ENDBRANCH   6  29
TORSDOF 6
ENDMDL
MODEL 5
REMARK VINA RESULT:      -9.2      4.470      9.257
REMARK  6 active torsions:
REMARK  status: ('A' for Active; 'I' for Inactive)
REMARK    1  A    between atoms: C_2  and  O_3 
REMARK    2  A    between atoms: C_2  and  C_4 
REMARK    3  A    between atoms: C_6  and  N_7 
REMARK       I    between atoms: N_7  and  C_8 
REMARK    4  A    between atoms: C_8  and  C_9 
REMARK    5  A    between atoms: C_12  and  C_13 
REMARK    6  A    between atoms: C_18  and  C_19 
ROOT
HETATM    1  C   UNL     1       5.687  25.682  53.517  1.00  0.00     0.096 C 
HETATM    2  C   UNL     1       6.194  26.048  54.751  1.00  0.00     0.138 C 
HETATM    3  N   UNL     1       6.766  24.913  55.278  1.00  0.00    -0.240 N 
HETATM    4  C   UNL     1       7.364  24.835  56.599  1.00  0.00     0.221 C 
HETATM    5  C   UNL     1       7.644  26.245  57.151  1.00  0.00     0.067 C 
HETATM    6  C   UNL     1       6.449  27.173  56.895  1.00  0.00     0.125 C 
HETATM    7  N   UNL     1       6.189  27.221  55.445  1.00  0.00    -0.365 N 
HETATM    8  N   UNL     1       6.524  23.811  54.552  1.00  0.00    -0.181 NA
HETATM    9  C   UNL     1       5.898  24.284  53.469  1.00  0.00     0.160 C 
HETATM   10  H   UNL     1       5.445  27.891  55.233  1.00  0.00     0.162 HD
ENDROOT
BRANCH   1  11
HETATM   11  C   UNL     1       5.029  26.500  52.512  1.00  0.00     0.261 C 
HETATM   12  N   UNL     1       5.175  26.007  51.230  1.00  0.00    -0.323 N 
HETATM   13  H   UNL     1       5.588  25.084  51.165  1.00  0.00     0.169 HD
HETATM   14  O   UNL     1       4.399  27.499  52.837  1.00  0.00    -0.267 OA
BRANCH  12  15
HETATM   15  C   UNL     1       4.772  26.604  50.019  1.00  0.00     0.035 A 
HETATM   16  C   UNL     1       3.732  26.118  49.223  1.00  0.00     0.039 A 
HETATM   17  C   UNL     1       3.353  26.779  48.039  1.00  0.00    -0.028 A 
HETATM   18  C   UNL     1       4.038  27.943  47.668  1.00  0.00     0.010 A 
HETATM   19  C   UNL     1       5.080  28.432  48.453  1.00  0.00     0.003 A 
HETATM   20  C   UNL     1       5.442  27.767  49.626  1.00  0.00     0.029 A 
BRANCH  17  21
HETATM   21  C   UNL     1       2.192  26.242  47.229  1.00  0.00     0.147 C 
HETATM   22  C   UNL     1       1.300  27.370  46.723  1.00  0.00     0.044 C 
BRANCH  21  23
HETATM   23  O   UNL     1       2.666  25.492  46.111  1.00  0.00    -0.391 OA
HETATM   24  H   UNL     1       3.633  25.592  46.096  1.00  0.00     0.210 HD
ENDBRANCH  21  23
ENDBRANCH  17  21
ENDBRANCH  12  15
ENDBRANCH   1  11
BRANCH   4  25
HETATM   25  C   UNL     1       8.646  24.030  56.591  1.00  0.00     0.409 C 
HETATM   26  F   UNL     1       9.148  23.875  55.346  1.00  0.00    -0.169 F 
HETATM   27  F   UNL     1       9.596  24.687  57.312  1.00  0.00    -0.169 F 
HETATM   28  F   UNL     1       8.525  22.813  57.157  1.00  0.00    -0.169 F 
ENDBRANCH   4  25
BRANCH   6  29
HETATM   29  C   UNL     1       6.713  28.541  57.472  1.00  0.00     0.005 A 
HETATM   30  S   UNL     1       5.549  29.789  57.299  1.00  0.00    -0.104 SA
HETATM   31  C   UNL     1       6.522  30.906  58.150  1.00  0.00     0.050 A 
HETATM   32  C   UNL     1       7.711  30.348  58.562  1.00  0.00     0.008 A 
HETATM   33  C   UNL     1       7.822  28.984  58.170  1.00  0.00     0.017 A 
ENDBRANCH   6  29
TORSDOF 6
ENDMDL
MODEL 6
REMARK VINA RESULT:      -9.0      7.599     12.227
REMARK  6 active torsions:
REMARK  status: ('A' for Active; 'I' for Inactive)
REMARK    1  A    between atoms: C_2  and  O_3 
REMARK    2  A    between atoms: C_2  and  C_4 
REMARK    3  A    between atoms: C_6  and  N_7 
REMARK       I    between atoms: N_7  and  C_8 
REMARK    4  A    between atoms: C_8  and  C_9 
REMARK    5  A    between atoms: C_12  and  C_13 
REMARK    6  A    between atoms: C_18  and  C_19 
ROOT
HETATM    1  C   UNL     1       5.875  32.627  61.953  1.00  0.00     0.096 C 
HETATM    2  C   UNL     1       5.654  33.861  62.537  1.00  0.00     0.138 C 
HETATM    3  N   UNL     1       5.175  33.602  63.801  1.00  0.00    -0.240 N 
HETATM    4  C   UNL     1       4.749  34.624  64.741  1.00  0.00     0.221 C 
HETATM    5  C   UNL     1       5.279  36.006  64.315  1.00  0.00     0.067 C 
HETATM    6  C   UNL     1       5.093  36.214  62.806  1.00  0.00     0.125 C 
HETATM    7  N   UNL     1       5.800  35.139  62.088  1.00  0.00    -0.365 N 
HETATM    8  N   UNL     1       4.920  32.303  64.015  1.00  0.00    -0.181 NA
HETATM    9  C   UNL     1       5.374  31.710  62.908  1.00  0.00     0.160 C 
HETATM   10  H   UNL     1       5.759  35.291  61.077  1.00  0.00     0.162 HD
ENDROOT
BRANCH   1  11
HETATM   11  C   UNL     1       6.428  32.312  60.646  1.00  0.00     0.261 C 
HETATM   12  N   UNL     1       7.461  31.395  60.700  1.00  0.00    -0.323 N 
HETATM   13  H   UNL     1       7.605  30.958  61.603  1.00  0.00     0.169 HD
HETATM   14  O   UNL     1       5.962  32.820  59.634  1.00  0.00    -0.267 OA
BRANCH  12  15
HETATM   15  C   UNL     1       8.290  30.960  59.649  1.00  0.00     0.035 A 
HETATM   16  C   UNL     1       8.051  29.806  58.898  1.00  0.00     0.039 A 
HETATM   17  C   UNL     1       8.899  29.442  57.836  1.00  0.00    -0.028 A 
HETATM   18  C   UNL     1       9.997  30.260  57.537  1.00  0.00     0.010 A 
HETATM   19  C   UNL     1      10.245  31.410  58.284  1.00  0.00     0.003 A 
HETATM   20  C   UNL     1       9.394  31.760  59.332  1.00  0.00     0.029 A 
BRANCH  17  21
HETATM   21  C   UNL     1       8.580  28.207  57.021  1.00  0.00     0.147 C 
HETATM   22  C   UNL     1       7.396  27.446  57.607  1.00  0.00     0.044 C 
BRANCH  21  23
HETATM   23  O   UNL     1       8.278  28.561  55.671  1.00  0.00    -0.391 OA
HETATM   24  H   UNL     1       8.917  29.245  55.411  1.00  0.00     0.210 HD
ENDBRANCH  21  23
ENDBRANCH  17  21
ENDBRANCH  12  15
ENDBRANCH   1  11
BRANCH   4  25
HETATM   25  C   UNL     1       5.206  34.320  66.151  1.00  0.00     0.409 C 
HETATM   26  F   UNL     1       6.430  33.745  66.182  1.00  0.00    -0.169 F 
HETATM   27  F   UNL     1       5.307  35.480  66.855  1.00  0.00    -0.169 F 
HETATM   28  F   UNL     1       4.352  33.539  66.842  1.00  0.00    -0.169 F 
ENDBRANCH   4  25
BRANCH   6  29
HETATM   29  C   UNL     1       5.577  37.585  62.401  1.00  0.00     0.005 A 
HETATM   30  S   UNL     1       5.149  38.233  60.872  1.00  0.00    -0.104 SA
HETATM   31  C   UNL     1       6.012  39.678  61.168  1.00  0.00     0.050 A 
HETATM   32  C   UNL     1       6.617  39.674  62.405  1.00  0.00     0.008 A 
HETATM   33  C   UNL     1       6.367  38.467  63.117  1.00  0.00     0.017 A 
ENDBRANCH   6  29
TORSDOF 6
ENDMDL
MODEL 7
REMARK VINA RESULT:      -9.0      1.980      2.644
REMARK  6 active torsions:
REMARK  status: ('A' for Active; 'I' for Inactive)
REMARK    1  A    between atoms: C_2  and  O_3 
REMARK    2  A    between atoms: C_2  and  C_4 
REMARK    3  A    between atoms: C_6  and  N_7 
REMARK       I    between atoms: N_7  and  C_8 
REMARK    4  A    between atoms: C_8  and  C_9 
REMARK    5  A    between atoms: C_12  and  C_13 
REMARK    6  A    between atoms: C_18  and  C_19 
ROOT
HETATM    1  C   UNL     1       4.909  28.181  54.953  1.00  0.00     0.096 C 
HETATM    2  C   UNL     1       5.274  27.065  54.222  1.00  0.00     0.138 C 
HETATM    3  N   UNL     1       4.670  27.202  52.993  1.00  0.00    -0.240 N 
HETATM    4  C   UNL     1       4.738  26.213  51.932  1.00  0.00     0.221 C 
HETATM    5  C   UNL     1       5.881  25.215  52.195  1.00  0.00     0.067 C 
HETATM    6  C   UNL     1       5.888  24.776  53.665  1.00  0.00     0.125 C 
HETATM    7  N   UNL     1       6.032  25.971  54.516  1.00  0.00    -0.365 N 
HETATM    8  N   UNL     1       3.818  28.236  52.934  1.00  0.00    -0.181 NA
HETATM    9  C   UNL     1       3.988  28.847  54.111  1.00  0.00     0.160 C 
HETATM   10  H   UNL     1       6.116  25.706  55.500  1.00  0.00     0.162 HD
ENDROOT
BRANCH   1  11
HETATM   11  C   UNL     1       5.308  28.574  56.295  1.00  0.00     0.261 C 
HETATM   12  N   UNL     1       5.550  29.929  56.414  1.00  0.00    -0.323 N 
HETATM   13  H   UNL     1       5.287  30.489  55.611  1.00  0.00     0.169 HD
HETATM   14  O   UNL     1       5.375  27.744  57.193  1.00  0.00    -0.267 OA
BRANCH  12  15
HETATM   15  C   UNL     1       6.060  30.625  57.527  1.00  0.00     0.035 A 
HETATM   16  C   UNL     1       7.403  30.593  57.913  1.00  0.00     0.039 A 
HETATM   17  C   UNL     1       7.860  31.339  59.016  1.00  0.00    -0.028 A 
HETATM   18  C   UNL     1       6.942  32.122  59.728  1.00  0.00     0.010 A 
HETATM   19  C   UNL     1       5.600  32.156  59.352  1.00  0.00     0.003 A 
HETATM   20  C   UNL     1       5.163  31.413  58.255  1.00  0.00     0.029 A 
BRANCH  17  21
HETATM   21  C   UNL     1       9.330  31.309  59.375  1.00  0.00     0.147 C 
HETATM   22  C   UNL     1      10.202  31.191  58.130  1.00  0.00     0.044 C 
BRANCH  21  23
HETATM   23  O   UNL     1       9.697  32.491  60.085  1.00  0.00    -0.391 OA
HETATM   24  H   UNL     1       8.916  32.766  60.595  1.00  0.00     0.210 HD
ENDBRANCH  21  23
ENDBRANCH  17  21
ENDBRANCH  12  15
ENDBRANCH   1  11
BRANCH   4  25
HETATM   25  C   UNL     1       4.928  26.854  50.574  1.00  0.00     0.409 C 
HETATM   26  F   UNL     1       5.314  25.962  49.634  1.00  0.00    -0.169 F 
HETATM   27  F   UNL     1       3.744  27.374  50.150  1.00  0.00    -0.169 F 
HETATM   28  F   UNL     1       5.805  27.878  50.576  1.00  0.00    -0.169 F 
ENDBRANCH   4  25
BRANCH   6  29
HETATM   29  C   UNL     1       6.985  23.768  53.907  1.00  0.00     0.005 A 
HETATM   30  S   UNL     1       7.506  23.430  55.506  1.00  0.00    -0.104 SA
HETATM   31  C   UNL     1       8.658  22.292  54.961  1.00  0.00     0.050 A 
HETATM   32  C   UNL     1       8.652  22.167  53.589  1.00  0.00     0.008 A 
HETATM   33  C   UNL     1       7.688  23.019  52.981  1.00  0.00     0.017 A 
ENDBRANCH   6  29
TORSDOF 6
ENDMDL
MODEL 8
REMARK VINA RESULT:      -9.0      3.055      4.635
REMARK  6 active torsions:
REMARK  status: ('A' for Active; 'I' for Inactive)
REMARK    1  A    between atoms: C_2  and  O_3 
REMARK    2  A    between atoms: C_2  and  C_4 
REMARK    3  A    between atoms: C_6  and  N_7 
REMARK       I    between atoms: N_7  and  C_8 
REMARK    4  A    between atoms: C_8  and  C_9 
REMARK    5  A    between atoms: C_12  and  C_13 
REMARK    6  A    between atoms: C_18  and  C_19 
ROOT
HETATM    1  C   UNL     1       8.212  25.443  56.654  1.00  0.00     0.096 C 
HETATM    2  C   UNL     1       7.864  25.229  55.333  1.00  0.00     0.138 C 
HETATM    3  N   UNL     1       8.386  24.001  54.997  1.00  0.00    -0.240 N 
HETATM    4  C   UNL     1       8.308  23.413  53.672  1.00  0.00     0.221 C 
HETATM    5  C   UNL     1       7.237  24.125  52.825  1.00  0.00     0.067 C 
HETATM    6  C   UNL     1       7.340  25.647  52.992  1.00  0.00     0.125 C 
HETATM    7  N   UNL     1       7.184  25.978  54.420  1.00  0.00    -0.365 N 
HETATM    8  N   UNL     1       9.177  23.483  55.949  1.00  0.00    -0.181 NA
HETATM    9  C   UNL     1       9.045  24.342  56.964  1.00  0.00     0.160 C 
HETATM   10  H   UNL     1       7.172  26.992  54.556  1.00  0.00     0.162 HD
ENDROOT
BRANCH   1  11
HETATM   11  C   UNL     1       7.874  26.555  57.528  1.00  0.00     0.261 C 
HETATM   12  N   UNL     1       8.060  27.788  56.934  1.00  0.00    -0.323 N 
HETATM   13  H   UNL     1       8.265  27.765  55.941  1.00  0.00     0.169 HD
HETATM   14  O   UNL     1       7.444  26.351  58.657  1.00  0.00    -0.267 OA
BRANCH  12  15
HETATM   15  C   UNL     1       7.945  29.062  57.523  1.00  0.00     0.035 A 
HETATM   16  C   UNL     1       6.767  29.814  57.522  1.00  0.00     0.039 A 
HETATM   17  C   UNL     1       6.705  31.068  58.159  1.00  0.00    -0.028 A 
HETATM   18  C   UNL     1       7.850  31.555  58.803  1.00  0.00     0.010 A 
HETATM   19  C   UNL     1       9.030  30.814  58.805  1.00  0.00     0.003 A 
HETATM   20  C   UNL     1       9.075  29.571  58.171  1.00  0.00     0.029 A 
BRANCH  17  21
HETATM   21  C   UNL     1       5.397  31.831  58.170  1.00  0.00     0.147 C 
HETATM   22  C   UNL     1       4.917  32.088  59.594  1.00  0.00     0.044 C 
BRANCH  21  23
HETATM   23  O   UNL     1       5.542  33.082  57.499  1.00  0.00    -0.391 OA
HETATM   24  H   UNL     1       6.486  33.182  57.291  1.00  0.00     0.210 HD
ENDBRANCH  21  23
ENDBRANCH  17  21
ENDBRANCH  12  15
ENDBRANCH   1  11
BRANCH   4  25
HETATM   25  C   UNL     1       8.004  21.931  53.729  1.00  0.00     0.409 C 
HETATM   26  F   UNL     1       7.238  21.604  54.794  1.00  0.00    -0.169 F 
HETATM   27  F   UNL     1       7.300  21.570  52.622  1.00  0.00    -0.169 F 
HETATM   28  F   UNL     1       9.104  21.152  53.741  1.00  0.00    -0.169 F 
ENDBRANCH   4  25
BRANCH   6  29
HETATM   29  C   UNL     1       6.315  26.341  52.130  1.00  0.00     0.005 A 
HETATM   30  S   UNL     1       5.865  27.962  52.463  1.00  0.00    -0.104 SA
HETATM   31  C   UNL     1       4.767  27.996  51.154  1.00  0.00     0.050 A 
HETATM   32  C   UNL     1       4.739  26.801  50.472  1.00  0.00     0.008 A 
HETATM   33  C   UNL     1       5.631  25.845  51.035  1.00  0.00     0.017 A 
ENDBRANCH   6  29
TORSDOF 6
ENDMDL
MODEL 9
REMARK VINA RESULT:      -8.6      5.199      8.015
REMARK  6 active torsions:
REMARK  status: ('A' for Active; 'I' for Inactive)
REMARK    1  A    between atoms: C_2  and  O_3 
REMARK    2  A    between atoms: C_2  and  C_4 
REMARK    3  A    between atoms: C_6  and  N_7 
REMARK       I    between atoms: N_7  and  C_8 
REMARK    4  A    between atoms: C_8  and  C_9 
REMARK    5  A    between atoms: C_12  and  C_13 
REMARK    6  A    between atoms: C_18  and  C_19 
ROOT
HETATM    1  C   UNL     1       5.570  26.983  54.375  1.00  0.00     0.096 C 
HETATM    2  C   UNL     1       4.996  27.684  53.331  1.00  0.00     0.138 C 
HETATM    3  N   UNL     1       4.227  28.667  53.911  1.00  0.00    -0.240 N 
HETATM    4  C   UNL     1       3.393  29.598  53.172  1.00  0.00     0.221 C 
HETATM    5  C   UNL     1       3.791  29.618  51.684  1.00  0.00     0.067 C 
HETATM    6  C   UNL     1       4.008  28.190  51.164  1.00  0.00     0.125 C 
HETATM    7  N   UNL     1       5.054  27.544  51.976  1.00  0.00    -0.365 N 
HETATM    8  N   UNL     1       4.136  28.550  55.244  1.00  0.00    -0.181 NA
HETATM    9  C   UNL     1       4.975  27.550  55.527  1.00  0.00     0.160 C 
HETATM   10  H   UNL     1       5.277  26.616  51.607  1.00  0.00     0.162 HD
ENDROOT
BRANCH   1  11
HETATM   11  C   UNL     1       6.514  25.878  54.334  1.00  0.00     0.261 C 
HETATM   12  N   UNL     1       6.261  24.912  55.289  1.00  0.00    -0.323 N 
HETATM   13  H   UNL     1       5.387  25.017  55.791  1.00  0.00     0.169 HD
HETATM   14  O   UNL     1       7.405  25.851  53.494  1.00  0.00    -0.267 OA
BRANCH  12  15
HETATM   15  C   UNL     1       7.037  23.780  55.605  1.00  0.00     0.035 A 
HETATM   16  C   UNL     1       7.131  22.651  54.787  1.00  0.00     0.039 A 
HETATM   17  C   UNL     1       7.952  21.563  55.141  1.00  0.00    -0.028 A 
HETATM   18  C   UNL     1       8.681  21.629  56.335  1.00  0.00     0.010 A 
HETATM   19  C   UNL     1       8.589  22.749  57.159  1.00  0.00     0.003 A 
HETATM   20  C   UNL     1       7.774  23.821  56.793  1.00  0.00     0.029 A 
BRANCH  17  21
HETATM   21  C   UNL     1       8.058  20.378  54.206  1.00  0.00     0.147 C 
HETATM   22  C   UNL     1       8.398  20.819  52.787  1.00  0.00     0.044 C 
BRANCH  21  23
HETATM   23  O   UNL     1       9.061  19.469  54.660  1.00  0.00    -0.391 OA
HETATM   24  H   UNL     1       9.302  18.915  53.899  1.00  0.00     0.210 HD
ENDBRANCH  21  23
ENDBRANCH  17  21
ENDBRANCH  12  15
ENDBRANCH   1  11
BRANCH   4  25
HETATM   25  C   UNL     1       3.475  31.000  53.736  1.00  0.00     0.409 C 
HETATM   26  F   UNL     1       2.560  31.218  54.707  1.00  0.00    -0.169 F 
HETATM   27  F   UNL     1       4.696  31.187  54.308  1.00  0.00    -0.169 F 
HETATM   28  F   UNL     1       3.348  31.968  52.806  1.00  0.00    -0.169 F 
ENDBRANCH   4  25
BRANCH   6  29
HETATM   29  C   UNL     1       4.359  28.214  49.697  1.00  0.00     0.005 A 
HETATM   30  S   UNL     1       4.052  29.619  48.761  1.00  0.00    -0.104 SA
HETATM   31  C   UNL     1       4.678  28.893  47.346  1.00  0.00     0.050 A 
HETATM   32  C   UNL     1       5.114  27.607  47.574  1.00  0.00     0.008 A 
HETATM   33  C   UNL     1       4.929  27.215  48.930  1.00  0.00     0.017 A 
ENDBRANCH   6  29
TORSDOF 6
ENDMDL
MODEL 10
REMARK VINA RESULT:      -8.6      4.763      9.293
REMARK  6 active torsions:
REMARK  status: ('A' for Active; 'I' for Inactive)
REMARK    1  A    between atoms: C_2  and  O_3 
REMARK    2  A    between atoms: C_2  and  C_4 
REMARK    3  A    between atoms: C_6  and  N_7 
REMARK       I    between atoms: N_7  and  C_8 
REMARK    4  A    between atoms: C_8  and  C_9 
REMARK    5  A    between atoms: C_12  and  C_13 
REMARK    6  A    between atoms: C_18  and  C_19 
ROOT
HETATM    1  C   UNL     1       5.297  26.196  52.596  1.00  0.00     0.096 C 
HETATM    2  C   UNL     1       5.822  26.308  53.871  1.00  0.00     0.138 C 
HETATM    3  N   UNL     1       6.235  25.043  54.224  1.00  0.00    -0.240 N 
HETATM    4  C   UNL     1       6.791  24.695  55.520  1.00  0.00     0.221 C 
HETATM    5  C   UNL     1       7.237  25.961  56.275  1.00  0.00     0.067 C 
HETATM    6  C   UNL     1       6.173  27.062  56.159  1.00  0.00     0.125 C 
HETATM    7  N   UNL     1       5.951  27.356  54.733  1.00  0.00    -0.365 N 
HETATM    8  N   UNL     1       5.870  24.101  53.342  1.00  0.00    -0.181 NA
HETATM    9  C   UNL     1       5.331  24.804  52.341  1.00  0.00     0.160 C 
HETATM   10  H   UNL     1       5.302  28.139  54.622  1.00  0.00     0.162 HD
ENDROOT
BRANCH   1  11
HETATM   11  C   UNL     1       4.768  27.230  51.724  1.00  0.00     0.261 C 
HETATM   12  N   UNL     1       4.473  26.772  50.454  1.00  0.00    -0.323 N 
HETATM   13  H   UNL     1       4.524  25.766  50.334  1.00  0.00     0.169 HD
HETATM   14  O   UNL     1       4.597  28.369  52.141  1.00  0.00    -0.267 OA
BRANCH  12  15
HETATM   15  C   UNL     1       4.061  27.520  49.335  1.00  0.00     0.035 A 
HETATM   16  C   UNL     1       2.791  27.423  48.761  1.00  0.00     0.039 A 
HETATM   17  C   UNL     1       2.426  28.224  47.663  1.00  0.00    -0.028 A 
HETATM   18  C   UNL     1       3.362  29.130  47.148  1.00  0.00     0.010 A 
HETATM   19  C   UNL     1       4.633  29.230  47.711  1.00  0.00     0.003 A 
HETATM   20  C   UNL     1       4.979  28.431  48.802  1.00  0.00     0.029 A 
BRANCH  17  21
HETATM   21  C   UNL     1       1.025  28.117  47.099  1.00  0.00     0.147 C 
HETATM   22  C   UNL     1       0.618  29.399  46.380  1.00  0.00     0.044 C 
BRANCH  21  23
HETATM   23  O   UNL     1       0.935  27.026  46.183  1.00  0.00    -0.391 OA
HETATM   24  H   UNL     1       1.710  26.462  46.343  1.00  0.00     0.210 HD
ENDBRANCH  21  23
ENDBRANCH  17  21
ENDBRANCH  12  15
ENDBRANCH   1  11
BRANCH   4  25
HETATM   25  C   UNL     1       7.961  23.743  55.394  1.00  0.00     0.409 C 
HETATM   26  F   UNL     1       8.661  23.937  54.253  1.00  0.00    -0.169 F 
HETATM   27  F   UNL     1       8.830  23.955  56.420  1.00  0.00    -0.169 F 
HETATM   28  F   UNL     1       7.612  22.443  55.464  1.00  0.00    -0.169 F 
ENDBRANCH   4  25
BRANCH   6  29
HETATM   29  C   UNL     1       6.597  28.285  56.934  1.00  0.00     0.005 A 
HETATM   30  S   UNL     1       5.729  29.755  56.766  1.00  0.00    -0.104 SA
HETATM   31  C   UNL     1       6.750  30.562  57.873  1.00  0.00     0.050 A 
HETATM   32  C   UNL     1       7.735  29.736  58.365  1.00  0.00     0.008 A 
HETATM   33  C   UNL     1       7.648  28.422  57.823  1.00  0.00     0.017 A 
ENDBRANCH   6  29
TORSDOF 6
ENDMDL
