MODEL 1
REMARK VINA RESULT:      -9.9      0.000      0.000
REMARK  9 active torsions:
REMARK  status: ('A' for Active; 'I' for Inactive)
REMARK    1  A    between atoms: C_2  and  O_3 
REMARK    2  A    between atoms: O_3  and  C_4 
REMARK    3  A    between atoms: C_5  and  C_6 
REMARK    4  A    between atoms: N_7  and  C_9 
REMARK    5  A    between atoms: C_9  and  C_10 
REMARK       I    between atoms: C_10  and  N_11 
REMARK    6  A    between atoms: N_11  and  C_12 
REMARK    7  A    between atoms: C_20  and  C_21 
REMARK    8  A    between atoms: C_21  and  O_22 
REMARK    9  A    between atoms: C_28  and  O_29 
ROOT
HETATM    1  C   UNL     1       6.722  29.405  56.221  1.00  0.00     0.231 C 
HETATM    2  N   UNL     1       6.360  27.912  56.341  1.00  0.00    -0.054 N 
HETATM    3  H   UNL     1       7.059  27.503  55.705  1.00  0.00     0.281 HD
HETATM    4  C   UNL     1       5.031  27.556  55.740  1.00  0.00     0.239 C 
HETATM    5  C   UNL     1       3.925  28.431  56.296  1.00  0.00     0.066 C 
HETATM    6  C   UNL     1       4.223  29.900  56.010  1.00  0.00     0.065 C 
HETATM    7  C   UNL     1       5.551  30.308  56.694  1.00  0.00     0.055 C 
HETATM    8  C   UNL     1       3.069  30.802  56.480  1.00  0.00     0.038 C 
HETATM    9  C   UNL     1       3.360  32.277  56.207  1.00  0.00     0.003 C 
HETATM   10  C   UNL     1       4.686  32.707  56.819  1.00  0.00     0.001 C 
HETATM   11  C   UNL     1       5.841  31.799  56.401  1.00  0.00     0.010 C 
ENDROOT
BRANCH   2  12
HETATM   12  C   UNL     1       6.655  27.214  57.690  1.00  0.00     0.338 C 
BRANCH  12  13
HETATM   13  C   UNL     1       7.643  26.050  57.470  1.00  0.00     0.248 C 
HETATM   14  N   UNL     1       6.963  24.838  57.315  1.00  0.00    -0.319 N 
HETATM   15  H   UNL     1       5.961  24.826  57.445  1.00  0.00     0.169 HD
HETATM   16  O   UNL     1       8.841  26.236  57.287  1.00  0.00    -0.271 OA
BRANCH  14  17
HETATM   17  C   UNL     1       7.387  23.971  56.329  1.00  0.00     0.094 C 
HETATM   18  S   UNL     1       8.194  22.634  57.005  1.00  0.00    -0.075 SA
HETATM   19  C   UNL     1       8.202  21.830  55.514  1.00  0.00    -0.008 C 
HETATM   20  C   UNL     1       7.703  22.611  54.487  1.00  0.00    -0.026 C 
HETATM   21  C   UNL     1       8.714  20.428  55.372  1.00  0.00     0.047 C 
HETATM   22  C   UNL     1       7.722  22.126  53.059  1.00  0.00     0.041 C 
HETATM   23  C   UNL     1       7.264  23.916  54.954  1.00  0.00     0.080 C 
HETATM   24  C   UNL     1       7.950  20.609  52.962  1.00  0.00     0.005 C 
HETATM   25  C   UNL     1       9.058  20.130  53.908  1.00  0.00     0.005 C 
BRANCH  23  26
HETATM   26  C   UNL     1       6.820  25.016  54.092  1.00  0.00     0.296 C 
HETATM   27  O   UNL     1       7.486  26.024  53.895  1.00  0.00    -0.259 OA
BRANCH  26  28
HETATM   28  O   UNL     1       5.539  24.846  53.644  1.00  0.00    -0.322 OA
HETATM   29  C   UNL     1       5.370  25.109  52.250  1.00  0.00     0.213 C 
ENDBRANCH  26  28
ENDBRANCH  23  26
ENDBRANCH  14  17
ENDBRANCH  12  13
ENDBRANCH   2  12
BRANCH   1  30
HETATM   30  C   UNL     1       8.140  29.689  56.711  1.00  0.00     0.006 A 
HETATM   31  C   UNL     1       8.458  30.180  57.995  1.00  0.00     0.077 A 
HETATM   32  C   UNL     1       9.795  30.390  58.353  1.00  0.00     0.037 A 
HETATM   33  C   UNL     1      10.823  30.127  57.450  1.00  0.00     0.003 A 
HETATM   34  C   UNL     1      10.527  29.640  56.184  1.00  0.00     0.001 A 
HETATM   35  C   UNL     1       9.201  29.421  55.817  1.00  0.00     0.012 A 
BRANCH  31  36
HETATM   36  O   UNL     1       7.420  30.367  58.868  1.00  0.00    -0.351 OA
BRANCH  36  37
HETATM   37  C   UNL     1       7.672  31.214  59.997  1.00  0.00     0.171 C 
HETATM   38  C   UNL     1       6.583  32.272  60.037  1.00  0.00     0.034 C 
ENDBRANCH  36  37
ENDBRANCH  31  36
ENDBRANCH   1  30
BRANCH   6  39
HETATM   39  O   UNL     1       4.378  30.025  54.591  1.00  0.00    -0.389 OA
HETATM   40  H   UNL     1       3.528  29.821  54.152  1.00  0.00     0.210 HD
ENDBRANCH   6  39
TORSDOF 9
ENDMDL
MODEL 2
REMARK VINA RESULT:      -9.3      1.441      2.486
REMARK  9 active torsions:
REMARK  status: ('A' for Active; 'I' for Inactive)
REMARK    1  A    between atoms: C_2  and  O_3 
REMARK    2  A    between atoms: O_3  and  C_4 
REMARK    3  A    between atoms: C_5  and  C_6 
REMARK    4  A    between atoms: N_7  and  C_9 
REMARK    5  A    between atoms: C_9  and  C_10 
REMARK       I    between atoms: C_10  and  N_11 
REMARK    6  A    between atoms: N_11  and  C_12 
REMARK    7  A    between atoms: C_20  and  C_21 
REMARK    8  A    between atoms: C_21  and  O_22 
REMARK    9  A    between atoms: C_28  and  O_29 
ROOT
HETATM    1  C   UNL     1       6.486  31.122  57.311  1.00  0.00     0.231 C 
HETATM    2  N   UNL     1       6.666  29.712  56.718  1.00  0.00    -0.054 N 
HETATM    3  H   UNL     1       7.682  29.713  56.551  1.00  0.00     0.281 HD
HETATM    4  C   UNL     1       6.049  29.537  55.360  1.00  0.00     0.239 C 
HETATM    5  C   UNL     1       4.588  29.942  55.366  1.00  0.00     0.066 C 
HETATM    6  C   UNL     1       4.449  31.401  55.792  1.00  0.00     0.065 C 
HETATM    7  C   UNL     1       5.006  31.584  57.224  1.00  0.00     0.055 C 
HETATM    8  C   UNL     1       2.984  31.864  55.714  1.00  0.00     0.038 C 
HETATM    9  C   UNL     1       2.830  33.321  56.147  1.00  0.00     0.003 C 
HETATM   10  C   UNL     1       3.414  33.556  57.533  1.00  0.00     0.001 C 
HETATM   11  C   UNL     1       4.856  33.064  57.648  1.00  0.00     0.010 C 
ENDROOT
BRANCH   2  12
HETATM   12  C   UNL     1       6.464  28.508  57.668  1.00  0.00     0.338 C 
BRANCH  12  13
HETATM   13  C   UNL     1       7.539  27.438  57.390  1.00  0.00     0.248 C 
HETATM   14  N   UNL     1       6.979  26.157  57.375  1.00  0.00    -0.319 N 
HETATM   15  H   UNL     1       6.004  26.053  57.621  1.00  0.00     0.169 HD
HETATM   16  O   UNL     1       8.683  27.730  57.059  1.00  0.00    -0.271 OA
BRANCH  14  17
HETATM   17  C   UNL     1       7.379  25.279  56.388  1.00  0.00     0.094 C 
HETATM   18  S   UNL     1       8.282  23.996  57.050  1.00  0.00    -0.075 SA
HETATM   19  C   UNL     1       8.235  23.149  55.585  1.00  0.00    -0.008 C 
HETATM   20  C   UNL     1       7.642  23.878  54.569  1.00  0.00    -0.026 C 
HETATM   21  C   UNL     1       8.797  21.766  55.450  1.00  0.00     0.047 C 
HETATM   22  C   UNL     1       7.595  23.351  53.156  1.00  0.00     0.041 C 
HETATM   23  C   UNL     1       7.177  25.177  55.026  1.00  0.00     0.080 C 
HETATM   24  C   UNL     1       7.882  21.843  53.087  1.00  0.00     0.005 C 
HETATM   25  C   UNL     1       9.065  21.438  53.977  1.00  0.00     0.005 C 
BRANCH  23  26
HETATM   26  C   UNL     1       6.635  26.232  54.163  1.00  0.00     0.296 C 
HETATM   27  O   UNL     1       7.340  26.996  53.516  1.00  0.00    -0.259 OA
BRANCH  26  28
HETATM   28  O   UNL     1       5.276  26.344  54.263  1.00  0.00    -0.322 OA
HETATM   29  C   UNL     1       4.637  26.777  53.061  1.00  0.00     0.213 C 
ENDBRANCH  26  28
ENDBRANCH  23  26
ENDBRANCH  14  17
ENDBRANCH  12  13
ENDBRANCH   2  12
BRANCH   1  30
HETATM   30  C   UNL     1       7.255  31.294  58.618  1.00  0.00     0.006 A 
HETATM   31  C   UNL     1       8.639  31.068  58.768  1.00  0.00     0.077 A 
HETATM   32  C   UNL     1       9.254  31.273  60.009  1.00  0.00     0.037 A 
HETATM   33  C   UNL     1       8.509  31.694  61.109  1.00  0.00     0.003 A 
HETATM   34  C   UNL     1       7.147  31.925  60.978  1.00  0.00     0.001 A 
HETATM   35  C   UNL     1       6.525  31.730  59.747  1.00  0.00     0.012 A 
BRANCH  31  36
HETATM   36  O   UNL     1       9.340  30.712  57.645  1.00  0.00    -0.351 OA
BRANCH  36  37
HETATM   37  C   UNL     1      10.761  30.892  57.689  1.00  0.00     0.171 C 
HETATM   38  C   UNL     1      11.405  29.652  57.094  1.00  0.00     0.034 C 
ENDBRANCH  36  37
ENDBRANCH  31  36
ENDBRANCH   1  30
BRANCH   6  39
HETATM   39  O   UNL     1       5.243  32.176  54.886  1.00  0.00    -0.389 OA
HETATM   40  H   UNL     1       4.892  32.077  53.979  1.00  0.00     0.210 HD
ENDBRANCH   6  39
TORSDOF 9
ENDMDL
MODEL 3
REMARK VINA RESULT:      -9.2      2.595      7.589
REMARK  9 active torsions:
REMARK  status: ('A' for Active; 'I' for Inactive)
REMARK    1  A    between atoms: C_2  and  O_3 
REMARK    2  A    between atoms: O_3  and  C_4 
REMARK    3  A    between atoms: C_5  and  C_6 
REMARK    4  A    between atoms: N_7  and  C_9 
REMARK    5  A    between atoms: C_9  and  C_10 
REMARK       I    between atoms: C_10  and  N_11 
REMARK    6  A    between atoms: N_11  and  C_12 
REMARK    7  A    between atoms: C_20  and  C_21 
REMARK    8  A    between atoms: C_21  and  O_22 
REMARK    9  A    between atoms: C_28  and  O_29 
ROOT
HETATM    1  C   UNL     1       5.591  26.667  52.920  1.00  0.00     0.231 C 
HETATM    2  N   UNL     1       6.007  27.841  53.828  1.00  0.00    -0.054 N 
HETATM    3  H   UNL     1       5.821  27.429  54.753  1.00  0.00     0.281 HD
HETATM    4  C   UNL     1       5.097  29.031  53.743  1.00  0.00     0.239 C 
HETATM    5  C   UNL     1       4.925  29.489  52.307  1.00  0.00     0.066 C 
HETATM    6  C   UNL     1       4.347  28.358  51.460  1.00  0.00     0.065 C 
HETATM    7  C   UNL     1       5.314  27.149  51.470  1.00  0.00     0.055 C 
HETATM    8  C   UNL     1       4.074  28.826  50.020  1.00  0.00     0.038 C 
HETATM    9  C   UNL     1       3.503  27.700  49.160  1.00  0.00     0.003 C 
HETATM   10  C   UNL     1       4.400  26.470  49.185  1.00  0.00     0.001 C 
HETATM   11  C   UNL     1       4.721  26.011  50.606  1.00  0.00     0.010 C 
ENDROOT
BRANCH   2  12
HETATM   12  C   UNL     1       7.511  28.194  53.891  1.00  0.00     0.338 C 
BRANCH  12  13
HETATM   13  C   UNL     1       7.990  28.176  55.357  1.00  0.00     0.248 C 
HETATM   14  N   UNL     1       8.594  29.389  55.702  1.00  0.00    -0.319 N 
HETATM   15  H   UNL     1       8.732  30.082  54.981  1.00  0.00     0.169 HD
HETATM   16  O   UNL     1       7.702  27.267  56.128  1.00  0.00    -0.271 OA
BRANCH  14  17
HETATM   17  C   UNL     1       8.293  29.944  56.929  1.00  0.00     0.094 C 
HETATM   18  S   UNL     1       9.701  30.142  57.865  1.00  0.00    -0.075 SA
HETATM   19  C   UNL     1       8.862  31.065  59.011  1.00  0.00    -0.008 C 
HETATM   20  C   UNL     1       7.504  31.127  58.751  1.00  0.00    -0.026 C 
HETATM   21  C   UNL     1       9.557  31.714  60.169  1.00  0.00     0.047 C 
HETATM   22  C   UNL     1       6.558  31.808  59.708  1.00  0.00     0.041 C 
HETATM   23  C   UNL     1       7.145  30.412  57.538  1.00  0.00     0.080 C 
HETATM   24  C   UNL     1       7.293  32.719  60.705  1.00  0.00     0.005 C 
HETATM   25  C   UNL     1       8.552  32.053  61.275  1.00  0.00     0.005 C 
BRANCH  23  26
HETATM   26  C   UNL     1       5.774  30.177  57.070  1.00  0.00     0.296 C 
HETATM   27  O   UNL     1       5.167  29.135  57.277  1.00  0.00    -0.259 OA
BRANCH  26  28
HETATM   28  O   UNL     1       5.309  31.191  56.279  1.00  0.00    -0.322 OA
HETATM   29  C   UNL     1       3.940  31.525  56.506  1.00  0.00     0.213 C 
ENDBRANCH  26  28
ENDBRANCH  23  26
ENDBRANCH  14  17
ENDBRANCH  12  13
ENDBRANCH   2  12
BRANCH   1  30
HETATM   30  C   UNL     1       6.456  25.431  53.152  1.00  0.00     0.006 A 
HETATM   31  C   UNL     1       6.387  24.610  54.297  1.00  0.00     0.077 A 
HETATM   32  C   UNL     1       7.213  23.485  54.404  1.00  0.00     0.037 A 
HETATM   33  C   UNL     1       8.117  23.168  53.391  1.00  0.00     0.003 A 
HETATM   34  C   UNL     1       8.195  23.963  52.256  1.00  0.00     0.001 A 
HETATM   35  C   UNL     1       7.373  25.082  52.135  1.00  0.00     0.012 A 
BRANCH  31  36
HETATM   36  O   UNL     1       5.443  24.927  55.238  1.00  0.00    -0.351 OA
BRANCH  36  37
HETATM   37  C   UNL     1       5.843  24.825  56.611  1.00  0.00     0.171 C 
HETATM   38  C   UNL     1       4.826  25.581  57.448  1.00  0.00     0.034 C 
ENDBRANCH  36  37
ENDBRANCH  31  36
ENDBRANCH   1  30
BRANCH   6  39
HETATM   39  O   UNL     1       3.114  27.966  52.076  1.00  0.00    -0.389 OA
HETATM   40  H   UNL     1       2.391  28.536  51.746  1.00  0.00     0.210 HD
ENDBRANCH   6  39
TORSDOF 9
ENDMDL
MODEL 4
REMARK VINA RESULT:      -8.8      2.349      4.313
REMARK  9 active torsions:
REMARK  status: ('A' for Active; 'I' for Inactive)
REMARK    1  A    between atoms: C_2  and  O_3 
REMARK    2  A    between atoms: O_3  and  C_4 
REMARK    3  A    between atoms: C_5  and  C_6 
REMARK    4  A    between atoms: N_7  and  C_9 
REMARK    5  A    between atoms: C_9  and  C_10 
REMARK       I    between atoms: C_10  and  N_11 
REMARK    6  A    between atoms: N_11  and  C_12 
REMARK    7  A    between atoms: C_20  and  C_21 
REMARK    8  A    between atoms: C_21  and  O_22 
REMARK    9  A    between atoms: C_28  and  O_29 
ROOT
HETATM    1  C   UNL     1       6.460  32.431  58.961  1.00  0.00     0.231 C 
HETATM    2  N   UNL     1       6.397  31.495  57.739  1.00  0.00    -0.054 N 
HETATM    3  H   UNL     1       7.375  31.548  57.419  1.00  0.00     0.281 HD
HETATM    4  C   UNL     1       5.585  32.033  56.598  1.00  0.00     0.239 C 
HETATM    5  C   UNL     1       4.193  32.426  57.054  1.00  0.00     0.066 C 
HETATM    6  C   UNL     1       4.278  33.487  58.149  1.00  0.00     0.065 C 
HETATM    7  C   UNL     1       5.043  32.919  59.369  1.00  0.00     0.055 C 
HETATM    8  C   UNL     1       2.878  33.972  58.561  1.00  0.00     0.038 C 
HETATM    9  C   UNL     1       2.950  35.028  59.664  1.00  0.00     0.003 C 
HETATM   10  C   UNL     1       3.742  34.528  60.864  1.00  0.00     0.001 C 
HETATM   11  C   UNL     1       5.121  34.000  60.473  1.00  0.00     0.010 C 
ENDROOT
BRANCH   2  12
HETATM   12  C   UNL     1       6.194  29.985  58.009  1.00  0.00     0.338 C 
BRANCH  12  13
HETATM   13  C   UNL     1       5.897  29.254  56.683  1.00  0.00     0.248 C 
HETATM   14  N   UNL     1       7.082  28.879  56.042  1.00  0.00    -0.319 N 
HETATM   15  H   UNL     1       7.962  29.183  56.435  1.00  0.00     0.169 HD
HETATM   16  O   UNL     1       4.764  28.914  56.364  1.00  0.00    -0.271 OA
BRANCH  14  17
HETATM   17  C   UNL     1       7.152  27.621  55.480  1.00  0.00     0.094 C 
HETATM   18  S   UNL     1       7.143  27.716  53.780  1.00  0.00    -0.075 SA
HETATM   19  C   UNL     1       7.536  26.074  53.643  1.00  0.00    -0.008 C 
HETATM   20  C   UNL     1       7.560  25.430  54.867  1.00  0.00    -0.026 C 
HETATM   21  C   UNL     1       7.808  25.432  52.316  1.00  0.00     0.047 C 
HETATM   22  C   UNL     1       7.782  23.941  54.960  1.00  0.00     0.041 C 
HETATM   23  C   UNL     1       7.277  26.335  55.969  1.00  0.00     0.080 C 
HETATM   24  C   UNL     1       8.358  23.356  53.660  1.00  0.00     0.005 C 
HETATM   25  C   UNL     1       7.654  23.911  52.416  1.00  0.00     0.005 C 
BRANCH  23  26
HETATM   26  C   UNL     1       7.094  25.932  57.367  1.00  0.00     0.296 C 
HETATM   27  O   UNL     1       7.820  26.315  58.275  1.00  0.00    -0.259 OA
BRANCH  26  28
HETATM   28  O   UNL     1       6.112  24.992  57.517  1.00  0.00    -0.322 OA
HETATM   29  C   UNL     1       4.795  25.480  57.263  1.00  0.00     0.213 C 
ENDBRANCH  26  28
ENDBRANCH  23  26
ENDBRANCH  14  17
ENDBRANCH  12  13
ENDBRANCH   2  12
BRANCH   1  30
HETATM   30  C   UNL     1       7.416  31.910  60.032  1.00  0.00     0.006 A 
HETATM   31  C   UNL     1       8.797  31.701  59.837  1.00  0.00     0.077 A 
HETATM   32  C   UNL     1       9.592  31.236  60.892  1.00  0.00     0.037 A 
HETATM   33  C   UNL     1       9.031  30.968  62.140  1.00  0.00     0.003 A 
HETATM   34  C   UNL     1       7.674  31.173  62.349  1.00  0.00     0.001 A 
HETATM   35  C   UNL     1       6.873  31.640  61.308  1.00  0.00     0.012 A 
BRANCH  31  36
HETATM   36  O   UNL     1       9.314  32.034  58.613  1.00  0.00    -0.351 OA
BRANCH  36  37
HETATM   37  C   UNL     1      10.526  31.374  58.224  1.00  0.00     0.171 C 
HETATM   38  C   UNL     1      10.160  30.271  57.246  1.00  0.00     0.034 C 
ENDBRANCH  36  37
ENDBRANCH  31  36
ENDBRANCH   1  30
BRANCH   6  39
HETATM   39  O   UNL     1       5.023  34.584  57.607  1.00  0.00    -0.389 OA
HETATM   40  H   UNL     1       5.744  34.241  57.042  1.00  0.00     0.210 HD
ENDBRANCH   6  39
TORSDOF 9
ENDMDL
MODEL 5
REMARK VINA RESULT:      -8.8      3.158      6.154
REMARK  9 active torsions:
REMARK  status: ('A' for Active; 'I' for Inactive)
REMARK    1  A    between atoms: C_2  and  O_3 
REMARK    2  A    between atoms: O_3  and  C_4 
REMARK    3  A    between atoms: C_5  and  C_6 
REMARK    4  A    between atoms: N_7  and  C_9 
REMARK    5  A    between atoms: C_9  and  C_10 
REMARK       I    between atoms: C_10  and  N_11 
REMARK    6  A    between atoms: N_11  and  C_12 
REMARK    7  A    between atoms: C_20  and  C_21 
REMARK    8  A    between atoms: C_21  and  O_22 
REMARK    9  A    between atoms: C_28  and  O_29 
ROOT
HETATM    1  C   UNL     1       7.126  27.466  56.705  1.00  0.00     0.231 C 
HETATM    2  N   UNL     1       6.082  27.929  55.670  1.00  0.00    -0.054 N 
HETATM    3  H   UNL     1       5.595  28.654  56.215  1.00  0.00     0.281 HD
HETATM    4  C   UNL     1       5.031  26.903  55.361  1.00  0.00     0.239 C 
HETATM    5  C   UNL     1       5.657  25.584  54.950  1.00  0.00     0.066 C 
HETATM    6  C   UNL     1       6.555  25.057  56.067  1.00  0.00     0.065 C 
HETATM    7  C   UNL     1       7.694  26.067  56.342  1.00  0.00     0.055 C 
HETATM    8  C   UNL     1       7.126  23.674  55.713  1.00  0.00     0.038 C 
HETATM    9  C   UNL     1       8.034  23.140  56.820  1.00  0.00     0.003 C 
HETATM   10  C   UNL     1       9.141  24.129  57.159  1.00  0.00     0.001 C 
HETATM   11  C   UNL     1       8.600  25.523  57.472  1.00  0.00     0.010 C 
ENDROOT
BRANCH   2  12
HETATM   12  C   UNL     1       6.599  28.701  54.433  1.00  0.00     0.338 C 
BRANCH  12  13
HETATM   13  C   UNL     1       5.429  28.987  53.470  1.00  0.00     0.248 C 
HETATM   14  N   UNL     1       5.868  29.016  52.143  1.00  0.00    -0.319 N 
HETATM   15  H   UNL     1       6.860  28.943  51.960  1.00  0.00     0.169 HD
HETATM   16  O   UNL     1       4.262  29.004  53.845  1.00  0.00    -0.271 OA
BRANCH  14  17
HETATM   17  C   UNL     1       5.099  28.388  51.184  1.00  0.00     0.094 C 
HETATM   18  S   UNL     1       4.123  29.513  50.360  1.00  0.00    -0.075 SA
HETATM   19  C   UNL     1       3.684  28.354  49.207  1.00  0.00    -0.008 C 
HETATM   20  C   UNL     1       4.178  27.096  49.505  1.00  0.00    -0.026 C 
HETATM   21  C   UNL     1       2.843  28.699  48.015  1.00  0.00     0.047 C 
HETATM   22  C   UNL     1       3.814  25.897  48.664  1.00  0.00     0.041 C 
HETATM   23  C   UNL     1       4.980  27.094  50.717  1.00  0.00     0.080 C 
HETATM   24  C   UNL     1       3.225  26.297  47.302  1.00  0.00     0.005 C 
HETATM   25  C   UNL     1       2.205  27.436  47.426  1.00  0.00     0.005 C 
BRANCH  23  26
HETATM   26  C   UNL     1       5.522  25.898  51.369  1.00  0.00     0.296 C 
HETATM   27  O   UNL     1       4.838  24.924  51.658  1.00  0.00    -0.259 OA
BRANCH  26  28
HETATM   28  O   UNL     1       6.833  26.046  51.728  1.00  0.00    -0.322 OA
HETATM   29  C   UNL     1       7.520  24.813  51.947  1.00  0.00     0.213 C 
ENDBRANCH  26  28
ENDBRANCH  23  26
ENDBRANCH  14  17
ENDBRANCH  12  13
ENDBRANCH   2  12
BRANCH   1  30
HETATM   30  C   UNL     1       8.081  28.591  57.095  1.00  0.00     0.006 A 
HETATM   31  C   UNL     1       7.693  29.777  57.755  1.00  0.00     0.077 A 
HETATM   32  C   UNL     1       8.652  30.741  58.086  1.00  0.00     0.037 A 
HETATM   33  C   UNL     1       9.995  30.548  57.763  1.00  0.00     0.003 A 
HETATM   34  C   UNL     1      10.393  29.386  57.117  1.00  0.00     0.001 A 
HETATM   35  C   UNL     1       9.449  28.416  56.788  1.00  0.00     0.012 A 
BRANCH  31  36
HETATM   36  O   UNL     1       6.374  29.896  58.104  1.00  0.00    -0.351 OA
BRANCH  36  37
HETATM   37  C   UNL     1       5.801  31.207  58.022  1.00  0.00     0.171 C 
HETATM   38  C   UNL     1       5.224  31.375  56.627  1.00  0.00     0.034 C 
ENDBRANCH  36  37
ENDBRANCH  31  36
ENDBRANCH   1  30
BRANCH   6  39
HETATM   39  O   UNL     1       5.739  24.951  57.240  1.00  0.00    -0.389 OA
HETATM   40  H   UNL     1       6.235  25.289  58.013  1.00  0.00     0.210 HD
ENDBRANCH   6  39
TORSDOF 9
ENDMDL
MODEL 6
REMARK VINA RESULT:      -8.7      4.543      7.536
REMARK  9 active torsions:
REMARK  status: ('A' for Active; 'I' for Inactive)
REMARK    1  A    between atoms: C_2  and  O_3 
REMARK    2  A    between atoms: O_3  and  C_4 
REMARK    3  A    between atoms: C_5  and  C_6 
REMARK    4  A    between atoms: N_7  and  C_9 
REMARK    5  A    between atoms: C_9  and  C_10 
REMARK       I    between atoms: C_10  and  N_11 
REMARK    6  A    between atoms: N_11  and  C_12 
REMARK    7  A    between atoms: C_20  and  C_21 
REMARK    8  A    between atoms: C_21  and  O_22 
REMARK    9  A    between atoms: C_28  and  O_29 
ROOT
HETATM    1  C   UNL     1       3.765  28.716  49.507  1.00  0.00     0.231 C 
HETATM    2  N   UNL     1       4.608  28.191  50.685  1.00  0.00    -0.054 N 
HETATM    3  H   UNL     1       5.294  28.955  50.772  1.00  0.00     0.281 HD
HETATM    4  C   UNL     1       5.423  26.974  50.360  1.00  0.00     0.239 C 
HETATM    5  C   UNL     1       4.556  25.873  49.780  1.00  0.00     0.066 C 
HETATM    6  C   UNL     1       3.863  26.363  48.511  1.00  0.00     0.065 C 
HETATM    7  C   UNL     1       2.953  27.570  48.844  1.00  0.00     0.055 C 
HETATM    8  C   UNL     1       3.053  25.235  47.850  1.00  0.00     0.038 C 
HETATM    9  C   UNL     1       2.347  25.716  46.583  1.00  0.00     0.003 C 
HETATM   10  C   UNL     1       1.480  26.937  46.857  1.00  0.00     0.001 C 
HETATM   11  C   UNL     1       2.253  28.056  47.552  1.00  0.00     0.010 C 
ENDROOT
BRANCH   2  12
HETATM   12  C   UNL     1       3.939  28.155  52.079  1.00  0.00     0.338 C 
BRANCH  12  13
HETATM   13  C   UNL     1       4.973  27.734  53.144  1.00  0.00     0.248 C 
HETATM   14  N   UNL     1       4.489  26.679  53.923  1.00  0.00    -0.319 N 
HETATM   15  H   UNL     1       3.536  26.373  53.785  1.00  0.00     0.169 HD
HETATM   16  O   UNL     1       6.117  28.174  53.153  1.00  0.00    -0.271 OA
BRANCH  14  17
HETATM   17  C   UNL     1       5.346  25.641  54.225  1.00  0.00     0.094 C 
HETATM   18  S   UNL     1       5.701  24.726  52.833  1.00  0.00    -0.075 SA
HETATM   19  C   UNL     1       6.919  23.878  53.649  1.00  0.00    -0.008 C 
HETATM   20  C   UNL     1       6.982  24.200  54.993  1.00  0.00    -0.026 C 
HETATM   21  C   UNL     1       7.802  22.889  52.949  1.00  0.00     0.047 C 
HETATM   22  C   UNL     1       7.924  23.479  55.924  1.00  0.00     0.041 C 
HETATM   23  C   UNL     1       6.006  25.213  55.360  1.00  0.00     0.080 C 
HETATM   24  C   UNL     1       9.017  22.709  55.166  1.00  0.00     0.005 C 
HETATM   25  C   UNL     1       8.454  21.942  53.963  1.00  0.00     0.005 C 
BRANCH  23  26
HETATM   26  C   UNL     1       5.730  25.663  56.728  1.00  0.00     0.296 C 
HETATM   27  O   UNL     1       4.785  25.252  57.390  1.00  0.00    -0.259 OA
BRANCH  26  28
HETATM   28  O   UNL     1       6.560  26.674  57.126  1.00  0.00    -0.322 OA
HETATM   29  C   UNL     1       5.962  27.970  57.083  1.00  0.00     0.213 C 
ENDBRANCH  26  28
ENDBRANCH  23  26
ENDBRANCH  14  17
ENDBRANCH  12  13
ENDBRANCH   2  12
BRANCH   1  30
HETATM   30  C   UNL     1       3.074  30.035  49.841  1.00  0.00     0.006 A 
HETATM   31  C   UNL     1       3.741  31.266  50.013  1.00  0.00     0.077 A 
HETATM   32  C   UNL     1       3.011  32.425  50.301  1.00  0.00     0.037 A 
HETATM   33  C   UNL     1       1.624  32.378  50.428  1.00  0.00     0.003 A 
HETATM   34  C   UNL     1       0.952  31.175  50.258  1.00  0.00     0.001 A 
HETATM   35  C   UNL     1       1.667  30.015  49.966  1.00  0.00     0.012 A 
BRANCH  31  36
HETATM   36  O   UNL     1       5.098  31.275  49.820  1.00  0.00    -0.351 OA
BRANCH  36  37
HETATM   37  C   UNL     1       5.784  32.496  50.126  1.00  0.00     0.171 C 
HETATM   38  C   UNL     1       6.382  33.027  48.835  1.00  0.00     0.034 C 
ENDBRANCH  36  37
ENDBRANCH  31  36
ENDBRANCH   1  30
BRANCH   6  39
HETATM   39  O   UNL     1       4.894  26.796  47.615  1.00  0.00    -0.389 OA
HETATM   40  H   UNL     1       4.489  27.212  46.829  1.00  0.00     0.210 HD
ENDBRANCH   6  39
TORSDOF 9
ENDMDL
MODEL 7
REMARK VINA RESULT:      -8.5      3.696      6.832
REMARK  9 active torsions:
REMARK  status: ('A' for Active; 'I' for Inactive)
REMARK    1  A    between atoms: C_2  and  O_3 
REMARK    2  A    between atoms: O_3  and  C_4 
REMARK    3  A    between atoms: C_5  and  C_6 
REMARK    4  A    between atoms: N_7  and  C_9 
REMARK    5  A    between atoms: C_9  and  C_10 
REMARK       I    between atoms: C_10  and  N_11 
REMARK    6  A    between atoms: N_11  and  C_12 
REMARK    7  A    between atoms: C_20  and  C_21 
REMARK    8  A    between atoms: C_21  and  O_22 
REMARK    9  A    between atoms: C_28  and  O_29 
ROOT
HETATM    1  C   UNL     1       6.631  26.961  56.053  1.00  0.00     0.231 C 
HETATM    2  N   UNL     1       5.807  27.350  54.811  1.00  0.00    -0.054 N 
HETATM    3  H   UNL     1       5.052  27.891  55.256  1.00  0.00     0.281 HD
HETATM    4  C   UNL     1       5.117  26.193  54.149  1.00  0.00     0.239 C 
HETATM    5  C   UNL     1       6.098  25.083  53.824  1.00  0.00     0.066 C 
HETATM    6  C   UNL     1       6.778  24.593  55.100  1.00  0.00     0.065 C 
HETATM    7  C   UNL     1       7.564  25.756  55.754  1.00  0.00     0.055 C 
HETATM    8  C   UNL     1       7.708  23.402  54.811  1.00  0.00     0.038 C 
HETATM    9  C   UNL     1       8.402  22.909  56.079  1.00  0.00     0.003 C 
HETATM   10  C   UNL     1       9.145  24.036  56.783  1.00  0.00     0.001 C 
HETATM   11  C   UNL     1       8.253  25.248  57.043  1.00  0.00     0.010 C 
ENDROOT
BRANCH   2  12
HETATM   12  C   UNL     1       6.437  28.363  53.826  1.00  0.00     0.338 C 
BRANCH  12  13
HETATM   13  C   UNL     1       5.359  28.885  52.853  1.00  0.00     0.248 C 
HETATM   14  N   UNL     1       5.886  29.063  51.571  1.00  0.00    -0.319 N 
HETATM   15  H   UNL     1       6.879  28.930  51.433  1.00  0.00     0.169 HD
HETATM   16  O   UNL     1       4.175  28.950  53.164  1.00  0.00    -0.271 OA
BRANCH  14  17
HETATM   17  C   UNL     1       5.135  28.647  50.490  1.00  0.00     0.094 C 
HETATM   18  S   UNL     1       5.266  26.964  50.274  1.00  0.00    -0.075 SA
HETATM   19  C   UNL     1       4.015  26.969  49.132  1.00  0.00    -0.008 C 
HETATM   20  C   UNL     1       3.578  28.247  48.830  1.00  0.00    -0.026 C 
HETATM   21  C   UNL     1       3.480  25.703  48.536  1.00  0.00     0.047 C 
HETATM   22  C   UNL     1       2.545  28.484  47.757  1.00  0.00     0.041 C 
HETATM   23  C   UNL     1       4.282  29.263  49.596  1.00  0.00     0.080 C 
HETATM   24  C   UNL     1       1.792  27.198  47.379  1.00  0.00     0.005 C 
HETATM   25  C   UNL     1       2.737  25.999  47.229  1.00  0.00     0.005 C 
BRANCH  23  26
HETATM   26  C   UNL     1       4.146  30.710  49.404  1.00  0.00     0.296 C 
HETATM   27  O   UNL     1       4.366  31.267  48.336  1.00  0.00    -0.259 OA
BRANCH  26  28
HETATM   28  O   UNL     1       3.875  31.371  50.570  1.00  0.00    -0.322 OA
HETATM   29  C   UNL     1       2.511  31.283  50.985  1.00  0.00     0.213 C 
ENDBRANCH  26  28
ENDBRANCH  23  26
ENDBRANCH  14  17
ENDBRANCH  12  13
ENDBRANCH   2  12
BRANCH   1  30
HETATM   30  C   UNL     1       7.189  28.185  56.775  1.00  0.00     0.006 A 
HETATM   31  C   UNL     1       6.399  29.165  57.413  1.00  0.00     0.077 A 
HETATM   32  C   UNL     1       7.011  30.243  58.065  1.00  0.00     0.037 A 
HETATM   33  C   UNL     1       8.399  30.366  58.086  1.00  0.00     0.003 A 
HETATM   34  C   UNL     1       9.190  29.408  57.467  1.00  0.00     0.001 A 
HETATM   35  C   UNL     1       8.594  28.328  56.819  1.00  0.00     0.012 A 
BRANCH  31  36
HETATM   36  O   UNL     1       5.043  28.972  57.417  1.00  0.00    -0.351 OA
BRANCH  36  37
HETATM   37  C   UNL     1       4.253  29.935  56.708  1.00  0.00     0.171 C 
HETATM   38  C   UNL     1       3.416  30.689  57.727  1.00  0.00     0.034 C 
ENDBRANCH  36  37
ENDBRANCH  31  36
ENDBRANCH   1  30
BRANCH   6  39
HETATM   39  O   UNL     1       5.738  24.180  55.994  1.00  0.00    -0.389 OA
HETATM   40  H   UNL     1       6.093  24.124  56.903  1.00  0.00     0.210 HD
ENDBRANCH   6  39
TORSDOF 9
ENDMDL
MODEL 8
REMARK VINA RESULT:      -8.5      2.360      4.164
REMARK  9 active torsions:
REMARK  status: ('A' for Active; 'I' for Inactive)
REMARK    1  A    between atoms: C_2  and  O_3 
REMARK    2  A    between atoms: O_3  and  C_4 
REMARK    3  A    between atoms: C_5  and  C_6 
REMARK    4  A    between atoms: N_7  and  C_9 
REMARK    5  A    between atoms: C_9  and  C_10 
REMARK       I    between atoms: C_10  and  N_11 
REMARK    6  A    between atoms: N_11  and  C_12 
REMARK    7  A    between atoms: C_20  and  C_21 
REMARK    8  A    between atoms: C_21  and  O_22 
REMARK    9  A    between atoms: C_28  and  O_29 
ROOT
HETATM    1  C   UNL     1       6.090  32.715  58.937  1.00  0.00     0.231 C 
HETATM    2  N   UNL     1       6.017  31.643  57.833  1.00  0.00    -0.054 N 
HETATM    3  H   UNL     1       7.013  31.574  57.581  1.00  0.00     0.281 HD
HETATM    4  C   UNL     1       5.330  32.102  56.580  1.00  0.00     0.239 C 
HETATM    5  C   UNL     1       3.955  32.665  56.883  1.00  0.00     0.066 C 
HETATM    6  C   UNL     1       4.069  33.842  57.849  1.00  0.00     0.065 C 
HETATM    7  C   UNL     1       4.701  33.368  59.180  1.00  0.00     0.055 C 
HETATM    8  C   UNL     1       2.697  34.491  58.097  1.00  0.00     0.038 C 
HETATM    9  C   UNL     1       2.797  35.665  59.070  1.00  0.00     0.003 C 
HETATM   10  C   UNL     1       3.463  35.253  60.376  1.00  0.00     0.001 C 
HETATM   11  C   UNL     1       4.809  34.567  60.152  1.00  0.00     0.010 C 
ENDROOT
BRANCH   2  12
HETATM   12  C   UNL     1       5.658  30.201  58.263  1.00  0.00     0.338 C 
BRANCH  12  13
HETATM   13  C   UNL     1       5.564  29.294  57.019  1.00  0.00     0.248 C 
HETATM   14  N   UNL     1       6.832  29.040  56.487  1.00  0.00    -0.319 N 
HETATM   15  H   UNL     1       7.628  29.518  56.886  1.00  0.00     0.169 HD
HETATM   16  O   UNL     1       4.518  28.750  56.685  1.00  0.00    -0.271 OA
BRANCH  14  17
HETATM   17  C   UNL     1       7.127  27.755  56.081  1.00  0.00     0.094 C 
HETATM   18  S   UNL     1       8.118  26.972  57.223  1.00  0.00    -0.075 SA
HETATM   19  C   UNL     1       7.913  25.482  56.445  1.00  0.00    -0.008 C 
HETATM   20  C   UNL     1       7.196  25.593  55.266  1.00  0.00    -0.026 C 
HETATM   21  C   UNL     1       8.474  24.211  57.005  1.00  0.00     0.047 C 
HETATM   22  C   UNL     1       6.993  24.403  54.363  1.00  0.00     0.041 C 
HETATM   23  C   UNL     1       6.769  26.959  55.011  1.00  0.00     0.080 C 
HETATM   24  C   UNL     1       7.291  23.073  55.074  1.00  0.00     0.005 C 
HETATM   25  C   UNL     1       8.574  23.141  55.912  1.00  0.00     0.005 C 
BRANCH  23  26
HETATM   26  C   UNL     1       6.116  27.424  53.783  1.00  0.00     0.296 C 
HETATM   27  O   UNL     1       6.662  28.161  52.972  1.00  0.00    -0.259 OA
BRANCH  26  28
HETATM   28  O   UNL     1       4.803  27.048  53.713  1.00  0.00    -0.322 OA
HETATM   29  C   UNL     1       3.923  28.086  53.280  1.00  0.00     0.213 C 
ENDBRANCH  26  28
ENDBRANCH  23  26
ENDBRANCH  14  17
ENDBRANCH  12  13
ENDBRANCH   2  12
BRANCH   1  30
HETATM   30  C   UNL     1       6.924  32.252  60.129  1.00  0.00     0.006 A 
HETATM   31  C   UNL     1       8.322  32.064  60.102  1.00  0.00     0.077 A 
HETATM   32  C   UNL     1       8.997  31.653  61.257  1.00  0.00     0.037 A 
HETATM   33  C   UNL     1       8.301  31.420  62.442  1.00  0.00     0.003 A 
HETATM   34  C   UNL     1       6.926  31.604  62.487  1.00  0.00     0.001 A 
HETATM   35  C   UNL     1       6.243  32.018  61.345  1.00  0.00     0.012 A 
BRANCH  31  36
HETATM   36  O   UNL     1       8.971  32.363  58.932  1.00  0.00    -0.351 OA
BRANCH  36  37
HETATM   37  C   UNL     1      10.165  31.623  58.652  1.00  0.00     0.171 C 
HETATM   38  C   UNL     1       9.773  30.395  57.847  1.00  0.00     0.034 C 
ENDBRANCH  36  37
ENDBRANCH  31  36
ENDBRANCH   1  30
BRANCH   6  39
HETATM   39  O   UNL     1       4.945  34.797  57.237  1.00  0.00    -0.389 OA
HETATM   40  H   UNL     1       4.586  35.697  57.367  1.00  0.00     0.210 HD
ENDBRANCH   6  39
TORSDOF 9
ENDMDL
MODEL 9
REMARK VINA RESULT:      -8.3      3.825      7.031
REMARK  9 active torsions:
REMARK  status: ('A' for Active; 'I' for Inactive)
REMARK    1  A    between atoms: C_2  and  O_3 
REMARK    2  A    between atoms: O_3  and  C_4 
REMARK    3  A    between atoms: C_5  and  C_6 
REMARK    4  A    between atoms: N_7  and  C_9 
REMARK    5  A    between atoms: C_9  and  C_10 
REMARK       I    between atoms: C_10  and  N_11 
REMARK    6  A    between atoms: N_11  and  C_12 
REMARK    7  A    between atoms: C_20  and  C_21 
REMARK    8  A    between atoms: C_21  and  O_22 
REMARK    9  A    between atoms: C_28  and  O_29 
ROOT
HETATM    1  C   UNL     1       6.142  26.978  55.827  1.00  0.00     0.231 C 
HETATM    2  N   UNL     1       5.587  27.124  54.397  1.00  0.00    -0.054 N 
HETATM    3  H   UNL     1       4.641  27.475  54.604  1.00  0.00     0.281 HD
HETATM    4  C   UNL     1       5.370  25.818  53.690  1.00  0.00     0.239 C 
HETATM    5  C   UNL     1       6.629  24.973  53.700  1.00  0.00     0.066 C 
HETATM    6  C   UNL     1       7.063  24.695  55.137  1.00  0.00     0.065 C 
HETATM    7  C   UNL     1       7.371  26.030  55.858  1.00  0.00     0.055 C 
HETATM    8  C   UNL     1       8.284  23.760  55.176  1.00  0.00     0.038 C 
HETATM    9  C   UNL     1       8.734  23.482  56.610  1.00  0.00     0.003 C 
HETATM   10  C   UNL     1       8.998  24.773  57.373  1.00  0.00     0.001 C 
HETATM   11  C   UNL     1       7.814  25.737  57.311  1.00  0.00     0.010 C 
ENDROOT
BRANCH   2  12
HETATM   12  C   UNL     1       6.192  28.236  53.508  1.00  0.00     0.338 C 
BRANCH  12  13
HETATM   13  C   UNL     1       5.139  28.722  52.491  1.00  0.00     0.248 C 
HETATM   14  N   UNL     1       5.696  28.852  51.216  1.00  0.00    -0.319 N 
HETATM   15  H   UNL     1       6.692  28.713  51.107  1.00  0.00     0.169 HD
HETATM   16  O   UNL     1       3.948  28.800  52.771  1.00  0.00    -0.271 OA
BRANCH  14  17
HETATM   17  C   UNL     1       4.970  28.398  50.134  1.00  0.00     0.094 C 
HETATM   18  S   UNL     1       5.060  26.702  50.014  1.00  0.00    -0.075 SA
HETATM   19  C   UNL     1       3.849  26.678  48.831  1.00  0.00    -0.008 C 
HETATM   20  C   UNL     1       3.459  27.949  48.444  1.00  0.00    -0.026 C 
HETATM   21  C   UNL     1       3.298  25.395  48.286  1.00  0.00     0.047 C 
HETATM   22  C   UNL     1       2.470  28.153  47.324  1.00  0.00     0.041 C 
HETATM   23  C   UNL     1       4.166  28.986  49.178  1.00  0.00     0.080 C 
HETATM   24  C   UNL     1       1.694  26.869  46.990  1.00  0.00     0.005 C 
HETATM   25  C   UNL     1       2.608  25.638  46.939  1.00  0.00     0.005 C 
BRANCH  23  26
HETATM   26  C   UNL     1       4.078  30.424  48.902  1.00  0.00     0.296 C 
HETATM   27  O   UNL     1       4.328  30.912  47.807  1.00  0.00    -0.259 OA
BRANCH  26  28
HETATM   28  O   UNL     1       3.816  31.158  50.026  1.00  0.00    -0.322 OA
HETATM   29  C   UNL     1       2.437  31.183  50.395  1.00  0.00     0.213 C 
ENDBRANCH  26  28
ENDBRANCH  23  26
ENDBRANCH  14  17
ENDBRANCH  12  13
ENDBRANCH   2  12
BRANCH   1  30
HETATM   30  C   UNL     1       6.204  28.318  56.555  1.00  0.00     0.006 A 
HETATM   31  C   UNL     1       7.377  29.084  56.721  1.00  0.00     0.077 A 
HETATM   32  C   UNL     1       7.324  30.313  57.390  1.00  0.00     0.037 A 
HETATM   33  C   UNL     1       6.120  30.790  57.905  1.00  0.00     0.003 A 
HETATM   34  C   UNL     1       4.956  30.050  57.747  1.00  0.00     0.001 A 
HETATM   35  C   UNL     1       4.994  28.829  57.078  1.00  0.00     0.012 A 
BRANCH  31  36
HETATM   36  O   UNL     1       8.525  28.604  56.147  1.00  0.00    -0.351 OA
BRANCH  36  37
HETATM   37  C   UNL     1       9.563  29.557  55.887  1.00  0.00     0.171 C 
HETATM   38  C   UNL     1      10.673  29.322  56.896  1.00  0.00     0.034 C 
ENDBRANCH  36  37
ENDBRANCH  31  36
ENDBRANCH   1  30
BRANCH   6  39
HETATM   39  O   UNL     1       5.957  24.063  55.791  1.00  0.00    -0.389 OA
HETATM   40  H   UNL     1       5.887  23.135  55.488  1.00  0.00     0.210 HD
ENDBRANCH   6  39
TORSDOF 9
ENDMDL
MODEL 10
REMARK VINA RESULT:      -8.3      4.389      7.121
REMARK  9 active torsions:
REMARK  status: ('A' for Active; 'I' for Inactive)
REMARK    1  A    between atoms: C_2  and  O_3 
REMARK    2  A    between atoms: O_3  and  C_4 
REMARK    3  A    between atoms: C_5  and  C_6 
REMARK    4  A    between atoms: N_7  and  C_9 
REMARK    5  A    between atoms: C_9  and  C_10 
REMARK       I    between atoms: C_10  and  N_11 
REMARK    6  A    between atoms: N_11  and  C_12 
REMARK    7  A    between atoms: C_20  and  C_21 
REMARK    8  A    between atoms: C_21  and  O_22 
REMARK    9  A    between atoms: C_28  and  O_29 
ROOT
HETATM    1  C   UNL     1       4.919  28.756  49.528  1.00  0.00     0.231 C 
HETATM    2  N   UNL     1       5.504  27.975  50.720  1.00  0.00    -0.054 N 
HETATM    3  H   UNL     1       6.446  28.388  50.763  1.00  0.00     0.281 HD
HETATM    4  C   UNL     1       5.731  26.517  50.443  1.00  0.00     0.239 C 
HETATM    5  C   UNL     1       4.469  25.854  49.926  1.00  0.00     0.066 C 
HETATM    6  C   UNL     1       4.003  26.539  48.643  1.00  0.00     0.065 C 
HETATM    7  C   UNL     1       3.685  28.026  48.929  1.00  0.00     0.055 C 
HETATM    8  C   UNL     1       2.779  25.825  48.046  1.00  0.00     0.038 C 
HETATM    9  C   UNL     1       2.298  26.507  46.766  1.00  0.00     0.003 C 
HETATM   10  C   UNL     1       2.023  27.987  46.991  1.00  0.00     0.001 C 
HETATM   11  C   UNL     1       3.211  28.709  47.624  1.00  0.00     0.010 C 
ENDROOT
BRANCH   2  12
HETATM   12  C   UNL     1       4.922  28.272  52.122  1.00  0.00     0.338 C 
BRANCH  12  13
HETATM   13  C   UNL     1       5.882  27.747  53.209  1.00  0.00     0.248 C 
HETATM   14  N   UNL     1       5.289  26.718  53.947  1.00  0.00    -0.319 N 
HETATM   15  H   UNL     1       4.319  26.494  53.771  1.00  0.00     0.169 HD
HETATM   16  O   UNL     1       7.057  28.092  53.265  1.00  0.00    -0.271 OA
BRANCH  14  17
HETATM   17  C   UNL     1       6.049  25.608  54.251  1.00  0.00     0.094 C 
HETATM   18  S   UNL     1       5.928  24.437  53.021  1.00  0.00    -0.075 SA
HETATM   19  C   UNL     1       7.186  23.529  53.700  1.00  0.00    -0.008 C 
HETATM   20  C   UNL     1       7.619  24.044  54.910  1.00  0.00    -0.026 C 
HETATM   21  C   UNL     1       7.731  22.304  53.031  1.00  0.00     0.047 C 
HETATM   22  C   UNL     1       8.658  23.328  55.734  1.00  0.00     0.041 C 
HETATM   23  C   UNL     1       6.906  25.257  55.275  1.00  0.00     0.080 C 
HETATM   24  C   UNL     1       9.419  22.269  54.921  1.00  0.00     0.005 C 
HETATM   25  C   UNL     1       8.481  21.431  54.043  1.00  0.00     0.005 C 
BRANCH  23  26
HETATM   26  C   UNL     1       7.036  25.959  56.557  1.00  0.00     0.296 C 
HETATM   27  O   UNL     1       6.353  25.694  57.537  1.00  0.00    -0.259 OA
BRANCH  26  28
HETATM   28  O   UNL     1       7.905  27.013  56.491  1.00  0.00    -0.322 OA
HETATM   29  C   UNL     1       7.314  28.275  56.801  1.00  0.00     0.213 C 
ENDBRANCH  26  28
ENDBRANCH  23  26
ENDBRANCH  14  17
ENDBRANCH  12  13
ENDBRANCH   2  12
BRANCH   1  30
HETATM   30  C   UNL     1       4.846  30.255  49.808  1.00  0.00     0.006 A 
HETATM   31  C   UNL     1       3.695  30.927  50.270  1.00  0.00     0.077 A 
HETATM   32  C   UNL     1       3.738  32.305  50.514  1.00  0.00     0.037 A 
HETATM   33  C   UNL     1       4.910  33.029  50.299  1.00  0.00     0.003 A 
HETATM   34  C   UNL     1       6.053  32.382  49.848  1.00  0.00     0.001 A 
HETATM   35  C   UNL     1       6.024  31.009  49.607  1.00  0.00     0.012 A 
BRANCH  31  36
HETATM   36  O   UNL     1       2.585  30.166  50.523  1.00  0.00    -0.351 OA
BRANCH  36  37
HETATM   37  C   UNL     1       1.325  30.849  50.541  1.00  0.00     0.171 C 
HETATM   38  C   UNL     1       0.717  30.738  49.153  1.00  0.00     0.034 C 
ENDBRANCH  36  37
ENDBRANCH  31  36
ENDBRANCH   1  30
BRANCH   6  39
HETATM   39  O   UNL     1       5.094  26.470  47.717  1.00  0.00    -0.389 OA
HETATM   40  H   UNL     1       5.726  25.783  48.008  1.00  0.00     0.210 HD
ENDBRANCH   6  39
TORSDOF 9
ENDMDL
