MODEL 1
REMARK VINA RESULT:      -9.2      0.000      0.000
REMARK  7 active torsions:
REMARK  status: ('A' for Active; 'I' for Inactive)
REMARK    1  A    between atoms: C_7  and  C_8 
REMARK    2  A    between atoms: C_8  and  C_9 
REMARK    3  A    between atoms: C_9  and  C_10 
REMARK    4  A    between atoms: C_10  and  O_11 
REMARK    5  A    between atoms: C_13  and  C_14 
REMARK    6  A    between atoms: C_21  and  C_22 
REMARK       I    between atoms: C_22  and  N_23 
REMARK    7  A    between atoms: N_23  and  C_24 
ROOT
HETATM    1  C   UNL     1      10.948  29.706  56.689  1.00  0.00     0.070 C 
HETATM    2  C   UNL     1       9.689  30.108  57.416  1.00  0.00     0.037 C 
HETATM    3  N   UNL     1       9.811  31.209  58.256  1.00  0.00    -0.192 N 
HETATM    4  C   UNL     1       8.865  31.567  59.145  1.00  0.00     0.726 A 
HETATM    5  N   UNL     1       7.664  30.912  59.148  1.00  0.00    -0.083 N 
HETATM    6  N   UNL     1       6.867  31.355  60.145  1.00  0.00    -0.140 NA
HETATM    7  C   UNL     1       7.642  32.307  60.682  1.00  0.00     0.166 A 
HETATM    8  N   UNL     1       8.877  32.463  60.096  1.00  0.00    -0.046 NA
HETATM    9  C   UNL     1       7.316  29.828  58.223  1.00  0.00     0.202 C 
HETATM   10  C   UNL     1       8.510  29.439  57.354  1.00  0.00     0.062 C 
HETATM   11  H   UNL     1      10.729  31.642  58.340  1.00  0.00     0.184 HD
ENDROOT
BRANCH  10  12
HETATM   12  C   UNL     1       8.285  28.211  56.545  1.00  0.00     0.256 C 
HETATM   13  N   UNL     1       8.276  27.054  57.294  1.00  0.00    -0.323 N 
HETATM   14  H   UNL     1       8.436  27.149  58.288  1.00  0.00     0.169 HD
HETATM   15  O   UNL     1       8.172  28.320  55.332  1.00  0.00    -0.267 OA
BRANCH  13  16
HETATM   16  C   UNL     1       8.041  25.742  56.832  1.00  0.00     0.035 A 
HETATM   17  C   UNL     1       7.023  25.399  55.938  1.00  0.00     0.031 A 
HETATM   18  C   UNL     1       6.844  24.069  55.540  1.00  0.00     0.026 A 
HETATM   19  C   UNL     1       7.680  23.076  56.041  1.00  0.00     0.034 A 
HETATM   20 CL   UNL     1       7.452  21.440  55.561  1.00  0.00    -0.084 Cl
HETATM   21  C   UNL     1       8.700  23.401  56.930  1.00  0.00     0.026 A 
HETATM   22  C   UNL     1       8.883  24.733  57.318  1.00  0.00     0.031 A 
ENDBRANCH  13  16
ENDBRANCH  10  12
BRANCH   9  23
HETATM   23  C   UNL     1       6.094  30.215  57.389  1.00  0.00    -0.028 A 
HETATM   24  C   UNL     1       6.022  31.439  56.698  1.00  0.00     0.012 A 
HETATM   25  C   UNL     1       4.891  31.762  55.948  1.00  0.00     0.043 A 
HETATM   26  C   UNL     1       3.832  30.865  55.878  1.00  0.00     0.116 A 
HETATM   27  F   UNL     1       2.747  31.179  55.159  1.00  0.00    -0.206 F 
HETATM   28  C   UNL     1       3.882  29.646  56.542  1.00  0.00     0.043 A 
HETATM   29  C   UNL     1       5.012  29.318  57.293  1.00  0.00     0.012 A 
ENDBRANCH   9  23
BRANCH   7  30
HETATM   30  C   UNL     1       7.197  33.146  61.824  1.00  0.00     0.085 C 
BRANCH  30  31
HETATM   31  C   UNL     1       6.765  32.329  63.040  1.00  0.00     0.034 C 
BRANCH  31  32
HETATM   32  C   UNL     1       5.257  32.127  63.116  1.00  0.00     0.164 C 
BRANCH  32  33
HETATM   33  O   UNL     1       4.967  30.739  63.238  1.00  0.00    -0.401 OA
HETATM   34  H   UNL     1       4.029  30.657  63.485  1.00  0.00     0.209 HD
ENDBRANCH  32  33
ENDBRANCH  31  32
ENDBRANCH  30  31
ENDBRANCH   7  30
TORSDOF 7
ENDMDL
MODEL 2
REMARK VINA RESULT:      -8.6      4.580      8.903
REMARK  7 active torsions:
REMARK  status: ('A' for Active; 'I' for Inactive)
REMARK    1  A    between atoms: C_7  and  C_8 
REMARK    2  A    between atoms: C_8  and  C_9 
REMARK    3  A    between atoms: C_9  and  C_10 
REMARK    4  A    between atoms: C_10  and  O_11 
REMARK    5  A    between atoms: C_13  and  C_14 
REMARK    6  A    between atoms: C_21  and  C_22 
REMARK       I    between atoms: C_22  and  N_23 
REMARK    7  A    between atoms: N_23  and  C_24 
ROOT
HETATM    1  C   UNL     1       3.506  28.500  52.867  1.00  0.00     0.070 C 
HETATM    2  C   UNL     1       4.570  27.785  53.663  1.00  0.00     0.037 C 
HETATM    3  N   UNL     1       5.046  26.607  53.098  1.00  0.00    -0.192 N 
HETATM    4  C   UNL     1       5.821  25.730  53.765  1.00  0.00     0.726 A 
HETATM    5  N   UNL     1       6.283  26.055  55.011  1.00  0.00    -0.083 N 
HETATM    6  N   UNL     1       6.984  25.036  55.555  1.00  0.00    -0.140 NA
HETATM    7  C   UNL     1       6.934  24.138  54.561  1.00  0.00     0.166 A 
HETATM    8  N   UNL     1       6.226  24.529  53.447  1.00  0.00    -0.046 NA
HETATM    9  C   UNL     1       6.000  27.325  55.688  1.00  0.00     0.202 C 
HETATM   10  C   UNL     1       5.018  28.173  54.884  1.00  0.00     0.062 C 
HETATM   11  H   UNL     1       4.634  26.302  52.219  1.00  0.00     0.184 HD
ENDROOT
BRANCH  10  12
HETATM   12  C   UNL     1       4.530  29.374  55.612  1.00  0.00     0.256 C 
HETATM   13  N   UNL     1       5.257  30.514  55.342  1.00  0.00    -0.323 N 
HETATM   14  H   UNL     1       6.039  30.420  54.707  1.00  0.00     0.169 HD
HETATM   15  O   UNL     1       3.592  29.250  56.388  1.00  0.00    -0.267 OA
BRANCH  13  16
HETATM   16  C   UNL     1       5.017  31.814  55.834  1.00  0.00     0.035 A 
HETATM   17  C   UNL     1       4.588  32.882  55.042  1.00  0.00     0.031 A 
HETATM   18  C   UNL     1       4.389  34.148  55.603  1.00  0.00     0.026 A 
HETATM   19  C   UNL     1       4.624  34.352  56.960  1.00  0.00     0.034 A 
HETATM   20 CL   UNL     1       4.390  35.911  57.647  1.00  0.00    -0.084 Cl
HETATM   21  C   UNL     1       5.049  33.298  57.763  1.00  0.00     0.026 A 
HETATM   22  C   UNL     1       5.239  32.031  57.201  1.00  0.00     0.031 A 
ENDBRANCH  13  16
ENDBRANCH  10  12
BRANCH   9  23
HETATM   23  C   UNL     1       7.302  28.069  55.985  1.00  0.00    -0.028 A 
HETATM   24  C   UNL     1       8.158  28.507  54.957  1.00  0.00     0.012 A 
HETATM   25  C   UNL     1       9.341  29.183  55.262  1.00  0.00     0.043 A 
HETATM   26  C   UNL     1       9.670  29.431  56.589  1.00  0.00     0.116 A 
HETATM   27  F   UNL     1      10.807  30.076  56.878  1.00  0.00    -0.206 F 
HETATM   28  C   UNL     1       8.837  29.018  57.621  1.00  0.00     0.043 A 
HETATM   29  C   UNL     1       7.653  28.342  57.321  1.00  0.00     0.012 A 
ENDBRANCH   9  23
BRANCH   7  30
HETATM   30  C   UNL     1       7.607  22.816  54.646  1.00  0.00     0.085 C 
BRANCH  30  31
HETATM   31  C   UNL     1       8.029  22.265  53.286  1.00  0.00     0.034 C 
BRANCH  31  32
HETATM   32  C   UNL     1       8.717  20.910  53.381  1.00  0.00     0.164 C 
BRANCH  32  33
HETATM   33  O   UNL     1       8.050  19.975  52.540  1.00  0.00    -0.401 OA
HETATM   34  H   UNL     1       7.094  20.130  52.630  1.00  0.00     0.209 HD
ENDBRANCH  32  33
ENDBRANCH  31  32
ENDBRANCH  30  31
ENDBRANCH   7  30
TORSDOF 7
ENDMDL
MODEL 3
REMARK VINA RESULT:      -8.4      4.654      6.717
REMARK  7 active torsions:
REMARK  status: ('A' for Active; 'I' for Inactive)
REMARK    1  A    between atoms: C_7  and  C_8 
REMARK    2  A    between atoms: C_8  and  C_9 
REMARK    3  A    between atoms: C_9  and  C_10 
REMARK    4  A    between atoms: C_10  and  O_11 
REMARK    5  A    between atoms: C_13  and  C_14 
REMARK    6  A    between atoms: C_21  and  C_22 
REMARK       I    between atoms: C_22  and  N_23 
REMARK    7  A    between atoms: N_23  and  C_24 
ROOT
HETATM    1  C   UNL     1       3.427  30.091  55.429  1.00  0.00     0.070 C 
HETATM    2  C   UNL     1       4.805  29.478  55.488  1.00  0.00     0.037 C 
HETATM    3  N   UNL     1       5.632  29.966  56.493  1.00  0.00    -0.192 N 
HETATM    4  C   UNL     1       6.952  29.703  56.553  1.00  0.00     0.726 A 
HETATM    5  N   UNL     1       7.500  28.809  55.675  1.00  0.00    -0.083 N 
HETATM    6  N   UNL     1       8.838  28.721  55.836  1.00  0.00    -0.140 NA
HETATM    7  C   UNL     1       9.024  29.566  56.860  1.00  0.00     0.166 A 
HETATM    8  N   UNL     1       7.888  30.189  57.325  1.00  0.00    -0.046 NA
HETATM    9  C   UNL     1       6.736  28.088  54.651  1.00  0.00     0.202 C 
HETATM   10  C   UNL     1       5.286  28.564  54.607  1.00  0.00     0.062 C 
HETATM   11  H   UNL     1       5.269  30.707  57.089  1.00  0.00     0.184 HD
ENDROOT
BRANCH  10  12
HETATM   12  C   UNL     1       4.515  28.025  53.455  1.00  0.00     0.256 C 
HETATM   13  N   UNL     1       5.053  28.356  52.230  1.00  0.00    -0.323 N 
HETATM   14  H   UNL     1       5.885  28.931  52.234  1.00  0.00     0.169 HD
HETATM   15  O   UNL     1       3.490  27.395  53.677  1.00  0.00    -0.267 OA
BRANCH  13  16
HETATM   16  C   UNL     1       4.587  27.959  50.960  1.00  0.00     0.035 A 
HETATM   17  C   UNL     1       5.062  26.842  50.267  1.00  0.00     0.031 A 
HETATM   18  C   UNL     1       4.559  26.524  49.000  1.00  0.00     0.026 A 
HETATM   19  C   UNL     1       3.582  27.326  48.418  1.00  0.00     0.034 A 
HETATM   20 CL   UNL     1       2.974  26.942  46.857  1.00  0.00    -0.084 Cl
HETATM   21  C   UNL     1       3.097  28.440  49.096  1.00  0.00     0.026 A 
HETATM   22  C   UNL     1       3.594  28.751  50.366  1.00  0.00     0.031 A 
ENDBRANCH  13  16
ENDBRANCH  10  12
BRANCH   9  23
HETATM   23  C   UNL     1       6.844  26.579  54.873  1.00  0.00    -0.028 A 
HETATM   24  C   UNL     1       6.369  25.964  56.047  1.00  0.00     0.012 A 
HETATM   25  C   UNL     1       6.485  24.585  56.219  1.00  0.00     0.043 A 
HETATM   26  C   UNL     1       7.068  23.813  55.221  1.00  0.00     0.116 A 
HETATM   27  F   UNL     1       7.180  22.490  55.391  1.00  0.00    -0.206 F 
HETATM   28  C   UNL     1       7.535  24.394  54.050  1.00  0.00     0.043 A 
HETATM   29  C   UNL     1       7.421  25.774  53.873  1.00  0.00     0.012 A 
ENDBRANCH   9  23
BRANCH   7  30
HETATM   30  C   UNL     1      10.360  29.806  57.463  1.00  0.00     0.085 C 
BRANCH  30  31
HETATM   31  C   UNL     1      10.624  31.276  57.779  1.00  0.00     0.034 C 
BRANCH  31  32
HETATM   32  C   UNL     1      10.164  31.676  59.175  1.00  0.00     0.164 C 
BRANCH  32  33
HETATM   33  O   UNL     1       8.962  32.435  59.083  1.00  0.00    -0.401 OA
HETATM   34  H   UNL     1       8.290  31.869  58.666  1.00  0.00     0.209 HD
ENDBRANCH  32  33
ENDBRANCH  31  32
ENDBRANCH  30  31
ENDBRANCH   7  30
TORSDOF 7
ENDMDL
MODEL 4
REMARK VINA RESULT:      -8.4      4.016      8.144
REMARK  7 active torsions:
REMARK  status: ('A' for Active; 'I' for Inactive)
REMARK    1  A    between atoms: C_7  and  C_8 
REMARK    2  A    between atoms: C_8  and  C_9 
REMARK    3  A    between atoms: C_9  and  C_10 
REMARK    4  A    between atoms: C_10  and  O_11 
REMARK    5  A    between atoms: C_13  and  C_14 
REMARK    6  A    between atoms: C_21  and  C_22 
REMARK       I    between atoms: C_22  and  N_23 
REMARK    7  A    between atoms: N_23  and  C_24 
ROOT
HETATM    1  C   UNL     1       3.744  31.018  55.170  1.00  0.00     0.070 C 
HETATM    2  C   UNL     1       4.729  30.009  55.709  1.00  0.00     0.037 C 
HETATM    3  N   UNL     1       4.737  28.779  55.061  1.00  0.00    -0.192 N 
HETATM    4  C   UNL     1       5.379  27.697  55.542  1.00  0.00     0.726 A 
HETATM    5  N   UNL     1       6.175  27.824  56.647  1.00  0.00    -0.083 N 
HETATM    6  N   UNL     1       6.682  26.631  57.025  1.00  0.00    -0.140 NA
HETATM    7  C   UNL     1       6.176  25.830  56.076  1.00  0.00     0.166 A 
HETATM    8  N   UNL     1       5.370  26.451  55.149  1.00  0.00    -0.046 NA
HETATM    9  C   UNL     1       6.397  29.087  57.360  1.00  0.00     0.202 C 
HETATM   10  C   UNL     1       5.523  30.202  56.792  1.00  0.00     0.062 C 
HETATM   11  H   UNL     1       4.075  28.639  54.301  1.00  0.00     0.184 HD
ENDROOT
BRANCH  10  12
HETATM   12  C   UNL     1       5.546  31.450  57.603  1.00  0.00     0.256 C 
HETATM   13  N   UNL     1       5.232  31.249  58.930  1.00  0.00    -0.323 N 
HETATM   14  H   UNL     1       5.008  30.303  59.211  1.00  0.00     0.169 HD
HETATM   15  O   UNL     1       5.788  32.510  57.043  1.00  0.00    -0.267 OA
BRANCH  13  16
HETATM   16  C   UNL     1       5.215  32.215  59.957  1.00  0.00     0.035 A 
HETATM   17  C   UNL     1       4.091  32.967  60.304  1.00  0.00     0.031 A 
HETATM   18  C   UNL     1       4.160  33.921  61.327  1.00  0.00     0.026 A 
HETATM   19  C   UNL     1       5.359  34.128  62.003  1.00  0.00     0.034 A 
HETATM   20 CL   UNL     1       5.446  35.308  63.250  1.00  0.00    -0.084 Cl
HETATM   21  C   UNL     1       6.487  33.385  61.671  1.00  0.00     0.026 A 
HETATM   22  C   UNL     1       6.413  32.427  60.655  1.00  0.00     0.031 A 
ENDBRANCH  13  16
ENDBRANCH  10  12
BRANCH   9  23
HETATM   23  C   UNL     1       7.882  29.449  57.346  1.00  0.00    -0.028 A 
HETATM   24  C   UNL     1       8.667  29.325  56.184  1.00  0.00     0.012 A 
HETATM   25  C   UNL     1      10.021  29.663  56.206  1.00  0.00     0.043 A 
HETATM   26  C   UNL     1      10.594  30.132  57.381  1.00  0.00     0.116 A 
HETATM   27  F   UNL     1      11.894  30.452  57.399  1.00  0.00    -0.206 F 
HETATM   28  C   UNL     1       9.839  30.273  58.538  1.00  0.00     0.043 A 
HETATM   29  C   UNL     1       8.485  29.937  58.521  1.00  0.00     0.012 A 
ENDBRANCH   9  23
BRANCH   7  30
HETATM   30  C   UNL     1       6.475  24.376  56.017  1.00  0.00     0.085 C 
BRANCH  30  31
HETATM   31  C   UNL     1       7.874  24.070  55.488  1.00  0.00     0.034 C 
BRANCH  31  32
HETATM   32  C   UNL     1       8.636  23.080  56.360  1.00  0.00     0.164 C 
BRANCH  32  33
HETATM   33  O   UNL     1       8.361  23.342  57.732  1.00  0.00    -0.401 OA
HETATM   34  H   UNL     1       7.472  22.996  57.924  1.00  0.00     0.209 HD
ENDBRANCH  32  33
ENDBRANCH  31  32
ENDBRANCH  30  31
ENDBRANCH   7  30
TORSDOF 7
ENDMDL
MODEL 5
REMARK VINA RESULT:      -8.2      5.321      9.112
REMARK  7 active torsions:
REMARK  status: ('A' for Active; 'I' for Inactive)
REMARK    1  A    between atoms: C_7  and  C_8 
REMARK    2  A    between atoms: C_8  and  C_9 
REMARK    3  A    between atoms: C_9  and  C_10 
REMARK    4  A    between atoms: C_10  and  O_11 
REMARK    5  A    between atoms: C_13  and  C_14 
REMARK    6  A    between atoms: C_21  and  C_22 
REMARK       I    between atoms: C_22  and  N_23 
REMARK    7  A    between atoms: N_23  and  C_24 
ROOT
HETATM    1  C   UNL     1       5.358  27.232  50.386  1.00  0.00     0.070 C 
HETATM    2  C   UNL     1       5.858  26.760  51.730  1.00  0.00     0.037 C 
HETATM    3  N   UNL     1       6.805  25.743  51.690  1.00  0.00    -0.192 N 
HETATM    4  C   UNL     1       7.190  25.051  52.779  1.00  0.00     0.726 A 
HETATM    5  N   UNL     1       6.742  25.436  54.013  1.00  0.00    -0.083 N 
HETATM    6  N   UNL     1       7.172  24.593  54.976  1.00  0.00    -0.140 NA
HETATM    7  C   UNL     1       7.908  23.739  54.252  1.00  0.00     0.166 A 
HETATM    8  N   UNL     1       7.940  23.988  52.899  1.00  0.00    -0.046 NA
HETATM    9  C   UNL     1       5.859  26.585  54.246  1.00  0.00     0.202 C 
HETATM   10  C   UNL     1       5.401  27.205  52.928  1.00  0.00     0.062 C 
HETATM   11  H   UNL     1       7.070  25.378  50.778  1.00  0.00     0.184 HD
ENDROOT
BRANCH  10  12
HETATM   12  C   UNL     1       4.342  28.237  53.089  1.00  0.00     0.256 C 
HETATM   13  N   UNL     1       4.832  29.524  53.136  1.00  0.00    -0.323 N 
HETATM   14  H   UNL     1       5.835  29.637  53.075  1.00  0.00     0.169 HD
HETATM   15  O   UNL     1       3.180  27.873  53.204  1.00  0.00    -0.267 OA
BRANCH  13  16
HETATM   16  C   UNL     1       4.086  30.717  53.233  1.00  0.00     0.035 A 
HETATM   17  C   UNL     1       3.641  31.264  54.439  1.00  0.00     0.031 A 
HETATM   18  C   UNL     1       2.889  32.446  54.450  1.00  0.00     0.026 A 
HETATM   19  C   UNL     1       2.575  33.080  53.252  1.00  0.00     0.034 A 
HETATM   20 CL   UNL     1       1.641  34.524  53.265  1.00  0.00    -0.084 Cl
HETATM   21  C   UNL     1       3.013  32.549  52.043  1.00  0.00     0.026 A 
HETATM   22  C   UNL     1       3.772  31.374  52.035  1.00  0.00     0.031 A 
ENDBRANCH  13  16
ENDBRANCH  10  12
BRANCH   9  23
HETATM   23  C   UNL     1       6.542  27.603  55.159  1.00  0.00    -0.028 A 
HETATM   24  C   UNL     1       5.995  27.969  56.403  1.00  0.00     0.012 A 
HETATM   25  C   UNL     1       6.643  28.903  57.213  1.00  0.00     0.043 A 
HETATM   26  C   UNL     1       7.840  29.468  56.790  1.00  0.00     0.116 A 
HETATM   27  F   UNL     1       8.457  30.367  57.568  1.00  0.00    -0.206 F 
HETATM   28  C   UNL     1       8.405  29.116  55.571  1.00  0.00     0.043 A 
HETATM   29  C   UNL     1       7.761  28.182  54.758  1.00  0.00     0.012 A 
ENDBRANCH   9  23
BRANCH   7  30
HETATM   30  C   UNL     1       8.651  22.608  54.865  1.00  0.00     0.085 C 
BRANCH  30  31
HETATM   31  C   UNL     1       9.211  21.626  53.838  1.00  0.00     0.034 C 
BRANCH  31  32
HETATM   32  C   UNL     1       8.451  20.307  53.800  1.00  0.00     0.164 C 
BRANCH  32  33
HETATM   33  O   UNL     1       8.054  20.022  52.463  1.00  0.00    -0.401 OA
HETATM   34  H   UNL     1       7.082  19.985  52.447  1.00  0.00     0.209 HD
ENDBRANCH  32  33
ENDBRANCH  31  32
ENDBRANCH  30  31
ENDBRANCH   7  30
TORSDOF 7
ENDMDL
MODEL 6
REMARK VINA RESULT:      -8.1      3.938      5.551
REMARK  7 active torsions:
REMARK  status: ('A' for Active; 'I' for Inactive)
REMARK    1  A    between atoms: C_7  and  C_8 
REMARK    2  A    between atoms: C_8  and  C_9 
REMARK    3  A    between atoms: C_9  and  C_10 
REMARK    4  A    between atoms: C_10  and  O_11 
REMARK    5  A    between atoms: C_13  and  C_14 
REMARK    6  A    between atoms: C_21  and  C_22 
REMARK       I    between atoms: C_22  and  N_23 
REMARK    7  A    between atoms: N_23  and  C_24 
ROOT
HETATM    1  C   UNL     1       8.244  27.750  57.361  1.00  0.00     0.070 C 
HETATM    2  C   UNL     1       7.081  28.250  56.540  1.00  0.00     0.037 C 
HETATM    3  N   UNL     1       6.819  29.612  56.644  1.00  0.00    -0.192 N 
HETATM    4  C   UNL     1       5.698  30.185  56.168  1.00  0.00     0.726 A 
HETATM    5  N   UNL     1       4.824  29.438  55.427  1.00  0.00    -0.083 N 
HETATM    6  N   UNL     1       3.728  30.154  55.092  1.00  0.00    -0.140 NA
HETATM    7  C   UNL     1       4.029  31.342  55.637  1.00  0.00     0.166 A 
HETATM    8  N   UNL     1       5.229  31.397  56.308  1.00  0.00    -0.046 NA
HETATM    9  C   UNL     1       5.028  28.024  55.093  1.00  0.00     0.202 C 
HETATM   10  C   UNL     1       6.266  27.466  55.791  1.00  0.00     0.062 C 
HETATM   11  H   UNL     1       7.401  30.159  57.275  1.00  0.00     0.184 HD
ENDROOT
BRANCH  10  12
HETATM   12  C   UNL     1       6.409  25.991  55.662  1.00  0.00     0.256 C 
HETATM   13  N   UNL     1       7.416  25.609  54.802  1.00  0.00    -0.323 N 
HETATM   14  H   UNL     1       7.933  26.348  54.343  1.00  0.00     0.169 HD
HETATM   15  O   UNL     1       5.630  25.269  56.270  1.00  0.00    -0.267 OA
BRANCH  13  16
HETATM   16  C   UNL     1       7.832  24.295  54.506  1.00  0.00     0.035 A 
HETATM   17  C   UNL     1       8.677  23.540  55.322  1.00  0.00     0.031 A 
HETATM   18  C   UNL     1       9.057  22.245  54.949  1.00  0.00     0.026 A 
HETATM   19  C   UNL     1       8.597  21.703  53.753  1.00  0.00     0.034 A 
HETATM   20 CL   UNL     1       9.074  20.118  53.289  1.00  0.00    -0.084 Cl
HETATM   21  C   UNL     1       7.752  22.442  52.929  1.00  0.00     0.026 A 
HETATM   22  C   UNL     1       7.366  23.732  53.309  1.00  0.00     0.031 A 
ENDBRANCH  13  16
ENDBRANCH  10  12
BRANCH   9  23
HETATM   23  C   UNL     1       5.084  27.840  53.577  1.00  0.00    -0.028 A 
HETATM   24  C   UNL     1       4.666  26.647  52.957  1.00  0.00     0.012 A 
HETATM   25  C   UNL     1       4.731  26.511  51.570  1.00  0.00     0.043 A 
HETATM   26  C   UNL     1       5.206  27.563  50.796  1.00  0.00     0.116 A 
HETATM   27  F   UNL     1       5.271  27.427  49.465  1.00  0.00    -0.206 F 
HETATM   28  C   UNL     1       5.615  28.753  51.382  1.00  0.00     0.043 A 
HETATM   29  C   UNL     1       5.551  28.895  52.769  1.00  0.00     0.012 A 
ENDBRANCH   9  23
BRANCH   7  30
HETATM   30  C   UNL     1       3.136  32.523  55.515  1.00  0.00     0.085 C 
BRANCH  30  31
HETATM   31  C   UNL     1       3.236  33.217  54.158  1.00  0.00     0.034 C 
BRANCH  31  32
HETATM   32  C   UNL     1       2.088  32.862  53.222  1.00  0.00     0.164 C 
BRANCH  32  33
HETATM   33  O   UNL     1       2.311  31.573  52.660  1.00  0.00    -0.401 OA
HETATM   34  H   UNL     1       3.081  31.185  53.112  1.00  0.00     0.209 HD
ENDBRANCH  32  33
ENDBRANCH  31  32
ENDBRANCH  30  31
ENDBRANCH   7  30
TORSDOF 7
ENDMDL
MODEL 7
REMARK VINA RESULT:      -8.0      5.520      9.724
REMARK  7 active torsions:
REMARK  status: ('A' for Active; 'I' for Inactive)
REMARK    1  A    between atoms: C_7  and  C_8 
REMARK    2  A    between atoms: C_8  and  C_9 
REMARK    3  A    between atoms: C_9  and  C_10 
REMARK    4  A    between atoms: C_10  and  O_11 
REMARK    5  A    between atoms: C_13  and  C_14 
REMARK    6  A    between atoms: C_21  and  C_22 
REMARK       I    between atoms: C_22  and  N_23 
REMARK    7  A    between atoms: N_23  and  C_24 
ROOT
HETATM    1  C   UNL     1       4.034  36.797  60.790  1.00  0.00     0.070 C 
HETATM    2  C   UNL     1       4.326  35.333  60.573  1.00  0.00     0.037 C 
HETATM    3  N   UNL     1       3.944  34.826  59.336  1.00  0.00    -0.192 N 
HETATM    4  C   UNL     1       3.918  33.509  59.055  1.00  0.00     0.726 A 
HETATM    5  N   UNL     1       4.413  32.618  59.968  1.00  0.00    -0.083 N 
HETATM    6  N   UNL     1       4.245  31.344  59.550  1.00  0.00    -0.140 NA
HETATM    7  C   UNL     1       3.673  31.545  58.355  1.00  0.00     0.166 A 
HETATM    8  N   UNL     1       3.454  32.861  58.019  1.00  0.00    -0.046 NA
HETATM    9  C   UNL     1       4.996  33.000  61.259  1.00  0.00     0.202 C 
HETATM   10  C   UNL     1       4.853  34.500  61.505  1.00  0.00     0.062 C 
HETATM   11  H   UNL     1       3.480  35.458  58.687  1.00  0.00     0.184 HD
ENDROOT
BRANCH  10  12
HETATM   12  C   UNL     1       5.233  34.918  62.882  1.00  0.00     0.256 C 
HETATM   13  N   UNL     1       4.688  34.123  63.867  1.00  0.00    -0.323 N 
HETATM   14  H   UNL     1       4.087  33.367  63.568  1.00  0.00     0.169 HD
HETATM   15  O   UNL     1       5.932  35.912  63.022  1.00  0.00    -0.267 OA
BRANCH  13  16
HETATM   16  C   UNL     1       4.896  34.228  65.258  1.00  0.00     0.035 A 
HETATM   17  C   UNL     1       3.897  34.568  66.174  1.00  0.00     0.031 A 
HETATM   18  C   UNL     1       4.188  34.668  67.540  1.00  0.00     0.026 A 
HETATM   19  C   UNL     1       5.483  34.433  67.993  1.00  0.00     0.034 A 
HETATM   20 CL   UNL     1       5.843  34.568  69.669  1.00  0.00    -0.084 Cl
HETATM   21  C   UNL     1       6.488  34.091  67.094  1.00  0.00     0.026 A 
HETATM   22  C   UNL     1       6.192  33.982  65.731  1.00  0.00     0.031 A 
ENDBRANCH  13  16
ENDBRANCH  10  12
BRANCH   9  23
HETATM   23  C   UNL     1       6.449  32.534  61.344  1.00  0.00    -0.028 A 
HETATM   24  C   UNL     1       7.398  32.875  60.362  1.00  0.00     0.012 A 
HETATM   25  C   UNL     1       8.717  32.432  60.469  1.00  0.00     0.043 A 
HETATM   26  C   UNL     1       9.095  31.653  61.556  1.00  0.00     0.116 A 
HETATM   27  F   UNL     1      10.361  31.227  61.653  1.00  0.00    -0.206 F 
HETATM   28  C   UNL     1       8.180  31.311  62.543  1.00  0.00     0.043 A 
HETATM   29  C   UNL     1       6.860  31.753  62.441  1.00  0.00     0.012 A 
ENDBRANCH   9  23
BRANCH   7  30
HETATM   30  C   UNL     1       3.310  30.426  57.447  1.00  0.00     0.085 C 
BRANCH  30  31
HETATM   31  C   UNL     1       4.520  29.775  56.780  1.00  0.00     0.034 C 
BRANCH  31  32
HETATM   32  C   UNL     1       4.144  28.603  55.882  1.00  0.00     0.164 C 
BRANCH  32  33
HETATM   33  O   UNL     1       4.120  27.403  56.648  1.00  0.00    -0.401 OA
HETATM   34  H   UNL     1       4.005  26.662  56.028  1.00  0.00     0.209 HD
ENDBRANCH  32  33
ENDBRANCH  31  32
ENDBRANCH  30  31
ENDBRANCH   7  30
TORSDOF 7
ENDMDL
MODEL 8
REMARK VINA RESULT:      -7.8      2.163      2.907
REMARK  7 active torsions:
REMARK  status: ('A' for Active; 'I' for Inactive)
REMARK    1  A    between atoms: C_7  and  C_8 
REMARK    2  A    between atoms: C_8  and  C_9 
REMARK    3  A    between atoms: C_9  and  C_10 
REMARK    4  A    between atoms: C_10  and  O_11 
REMARK    5  A    between atoms: C_13  and  C_14 
REMARK    6  A    between atoms: C_21  and  C_22 
REMARK       I    between atoms: C_22  and  N_23 
REMARK    7  A    between atoms: N_23  and  C_24 
ROOT
HETATM    1  C   UNL     1       9.405  29.480  56.805  1.00  0.00     0.070 C 
HETATM    2  C   UNL     1       7.912  29.685  56.873  1.00  0.00     0.037 C 
HETATM    3  N   UNL     1       7.488  30.699  57.724  1.00  0.00    -0.192 N 
HETATM    4  C   UNL     1       6.200  30.872  58.080  1.00  0.00     0.726 A 
HETATM    5  N   UNL     1       5.231  30.111  57.486  1.00  0.00    -0.083 N 
HETATM    6  N   UNL     1       4.013  30.371  58.011  1.00  0.00    -0.140 NA
HETATM    7  C   UNL     1       4.321  31.331  58.896  1.00  0.00     0.166 A 
HETATM    8  N   UNL     1       5.655  31.662  58.967  1.00  0.00    -0.046 NA
HETATM    9  C   UNL     1       5.494  29.102  56.455  1.00  0.00     0.202 C 
HETATM   10  C   UNL     1       6.994  28.919  56.232  1.00  0.00     0.062 C 
HETATM   11  H   UNL     1       8.197  31.204  58.250  1.00  0.00     0.184 HD
ENDROOT
BRANCH  10  12
HETATM   12  C   UNL     1       7.330  27.766  55.354  1.00  0.00     0.256 C 
HETATM   13  N   UNL     1       7.172  26.542  55.969  1.00  0.00    -0.323 N 
HETATM   14  H   UNL     1       6.867  26.549  56.933  1.00  0.00     0.169 HD
HETATM   15  O   UNL     1       7.741  27.989  54.224  1.00  0.00    -0.267 OA
BRANCH  13  16
HETATM   16  C   UNL     1       7.361  25.269  55.393  1.00  0.00     0.035 A 
HETATM   17  C   UNL     1       8.222  24.298  55.910  1.00  0.00     0.031 A 
HETATM   18  C   UNL     1       8.367  23.061  55.269  1.00  0.00     0.026 A 
HETATM   19  C   UNL     1       7.655  22.796  54.103  1.00  0.00     0.034 A 
HETATM   20 CL   UNL     1       7.842  21.282  53.309  1.00  0.00    -0.084 Cl
HETATM   21  C   UNL     1       6.791  23.752  53.577  1.00  0.00     0.026 A 
HETATM   22  C   UNL     1       6.641  24.982  54.225  1.00  0.00     0.031 A 
ENDBRANCH  13  16
ENDBRANCH  10  12
BRANCH   9  23
HETATM   23  C   UNL     1       4.755  29.457  55.165  1.00  0.00    -0.028 A 
HETATM   24  C   UNL     1       4.177  28.470  54.344  1.00  0.00     0.012 A 
HETATM   25  C   UNL     1       3.510  28.827  53.171  1.00  0.00     0.043 A 
HETATM   26  C   UNL     1       3.411  30.167  52.817  1.00  0.00     0.116 A 
HETATM   27  F   UNL     1       2.773  30.506  51.689  1.00  0.00    -0.206 F 
HETATM   28  C   UNL     1       3.964  31.160  53.614  1.00  0.00     0.043 A 
HETATM   29  C   UNL     1       4.631  30.808  54.789  1.00  0.00     0.012 A 
ENDBRANCH   9  23
BRANCH   7  30
HETATM   30  C   UNL     1       3.294  32.001  59.733  1.00  0.00     0.085 C 
BRANCH  30  31
HETATM   31  C   UNL     1       3.887  32.960  60.763  1.00  0.00     0.034 C 
BRANCH  31  32
HETATM   32  C   UNL     1       3.627  32.526  62.199  1.00  0.00     0.164 C 
BRANCH  32  33
HETATM   33  O   UNL     1       4.430  31.392  62.509  1.00  0.00    -0.401 OA
HETATM   34  H   UNL     1       4.449  30.822  61.720  1.00  0.00     0.209 HD
ENDBRANCH  32  33
ENDBRANCH  31  32
ENDBRANCH  30  31
ENDBRANCH   7  30
TORSDOF 7
ENDMDL
MODEL 9
REMARK VINA RESULT:      -7.8      2.411      2.601
REMARK  7 active torsions:
REMARK  status: ('A' for Active; 'I' for Inactive)
REMARK    1  A    between atoms: C_7  and  C_8 
REMARK    2  A    between atoms: C_8  and  C_9 
REMARK    3  A    between atoms: C_9  and  C_10 
REMARK    4  A    between atoms: C_10  and  O_11 
REMARK    5  A    between atoms: C_13  and  C_14 
REMARK    6  A    between atoms: C_21  and  C_22 
REMARK       I    between atoms: C_22  and  N_23 
REMARK    7  A    between atoms: N_23  and  C_24 
ROOT
HETATM    1  C   UNL     1      10.166  29.677  56.930  1.00  0.00     0.070 C 
HETATM    2  C   UNL     1       9.014  30.283  57.692  1.00  0.00     0.037 C 
HETATM    3  N   UNL     1       9.350  31.313  58.563  1.00  0.00    -0.192 N 
HETATM    4  C   UNL     1       8.499  31.811  59.480  1.00  0.00     0.726 A 
HETATM    5  N   UNL     1       7.196  31.392  59.485  1.00  0.00    -0.083 N 
HETATM    6  N   UNL     1       6.508  31.942  60.509  1.00  0.00    -0.140 NA
HETATM    7  C   UNL     1       7.455  32.714  61.062  1.00  0.00     0.166 A 
HETATM    8  N   UNL     1       8.690  32.657  60.458  1.00  0.00    -0.046 NA
HETATM    9  C   UNL     1       6.640  30.424  58.533  1.00  0.00     0.202 C 
HETATM   10  C   UNL     1       7.729  29.848  57.631  1.00  0.00     0.062 C 
HETATM   11  H   UNL     1      10.333  31.563  58.644  1.00  0.00     0.184 HD
ENDROOT
BRANCH  10  12
HETATM   12  C   UNL     1       7.269  28.712  56.789  1.00  0.00     0.256 C 
HETATM   13  N   UNL     1       6.842  29.095  55.535  1.00  0.00    -0.323 N 
HETATM   14  H   UNL     1       6.867  30.084  55.323  1.00  0.00     0.169 HD
HETATM   15  O   UNL     1       7.266  27.587  57.270  1.00  0.00    -0.267 OA
BRANCH  13  16
HETATM   16  C   UNL     1       6.395  28.255  54.494  1.00  0.00     0.035 A 
HETATM   17  C   UNL     1       5.057  28.122  54.118  1.00  0.00     0.031 A 
HETATM   18  C   UNL     1       4.691  27.253  53.083  1.00  0.00     0.026 A 
HETATM   19  C   UNL     1       5.666  26.508  52.425  1.00  0.00     0.034 A 
HETATM   20 CL   UNL     1       5.216  25.431  51.162  1.00  0.00    -0.084 Cl
HETATM   21  C   UNL     1       7.004  26.631  52.787  1.00  0.00     0.026 A 
HETATM   22  C   UNL     1       7.367  27.508  53.815  1.00  0.00     0.031 A 
ENDBRANCH  13  16
ENDBRANCH  10  12
BRANCH   9  23
HETATM   23  C   UNL     1       5.502  31.060  57.735  1.00  0.00    -0.028 A 
HETATM   24  C   UNL     1       5.655  32.294  57.075  1.00  0.00     0.012 A 
HETATM   25  C   UNL     1       4.595  32.848  56.356  1.00  0.00     0.043 A 
HETATM   26  C   UNL     1       3.383  32.171  56.286  1.00  0.00     0.116 A 
HETATM   27  F   UNL     1       2.367  32.707  55.598  1.00  0.00    -0.206 F 
HETATM   28  C   UNL     1       3.210  30.947  56.919  1.00  0.00     0.043 A 
HETATM   29  C   UNL     1       4.267  30.389  57.639  1.00  0.00     0.012 A 
ENDBRANCH   9  23
BRANCH   7  30
HETATM   30  C   UNL     1       7.189  33.583  62.237  1.00  0.00     0.085 C 
BRANCH  30  31
HETATM   31  C   UNL     1       7.100  32.809  63.550  1.00  0.00     0.034 C 
BRANCH  31  32
HETATM   32  C   UNL     1       5.693  32.789  64.134  1.00  0.00     0.164 C 
BRANCH  32  33
HETATM   33  O   UNL     1       4.837  32.023  63.294  1.00  0.00    -0.401 OA
HETATM   34  H   UNL     1       4.922  31.091  63.561  1.00  0.00     0.209 HD
ENDBRANCH  32  33
ENDBRANCH  31  32
ENDBRANCH  30  31
ENDBRANCH   7  30
TORSDOF 7
ENDMDL
MODEL 10
REMARK VINA RESULT:      -7.6      6.899     10.050
REMARK  7 active torsions:
REMARK  status: ('A' for Active; 'I' for Inactive)
REMARK    1  A    between atoms: C_7  and  C_8 
REMARK    2  A    between atoms: C_8  and  C_9 
REMARK    3  A    between atoms: C_9  and  C_10 
REMARK    4  A    between atoms: C_10  and  O_11 
REMARK    5  A    between atoms: C_13  and  C_14 
REMARK    6  A    between atoms: C_21  and  C_22 
REMARK       I    between atoms: C_22  and  N_23 
REMARK    7  A    between atoms: N_23  and  C_24 
ROOT
HETATM    1  C   UNL     1       3.559  29.335  54.098  1.00  0.00     0.070 C 
HETATM    2  C   UNL     1       4.305  28.363  53.217  1.00  0.00     0.037 C 
HETATM    3  N   UNL     1       4.634  27.150  53.813  1.00  0.00    -0.192 N 
HETATM    4  C   UNL     1       5.485  26.265  53.261  1.00  0.00     0.726 A 
HETATM    5  N   UNL     1       5.958  26.485  51.997  1.00  0.00    -0.083 N 
HETATM    6  N   UNL     1       6.848  25.536  51.633  1.00  0.00    -0.140 NA
HETATM    7  C   UNL     1       6.835  24.751  52.719  1.00  0.00     0.166 A 
HETATM    8  N   UNL     1       6.012  25.168  53.740  1.00  0.00    -0.046 NA
HETATM    9  C   UNL     1       5.587  27.639  51.170  1.00  0.00     0.202 C 
HETATM   10  C   UNL     1       4.720  28.623  51.952  1.00  0.00     0.062 C 
HETATM   11  H   UNL     1       4.377  27.016  54.789  1.00  0.00     0.184 HD
ENDROOT
BRANCH  10  12
HETATM   12  C   UNL     1       4.486  29.908  51.241  1.00  0.00     0.256 C 
HETATM   13  N   UNL     1       5.615  30.692  51.136  1.00  0.00    -0.323 N 
HETATM   14  H   UNL     1       6.463  30.334  51.555  1.00  0.00     0.169 HD
HETATM   15  O   UNL     1       3.353  30.173  50.862  1.00  0.00    -0.267 OA
BRANCH  13  16
HETATM   16  C   UNL     1       5.732  31.935  50.482  1.00  0.00     0.035 A 
HETATM   17  C   UNL     1       5.445  33.164  51.081  1.00  0.00     0.031 A 
HETATM   18  C   UNL     1       5.569  34.356  50.357  1.00  0.00     0.026 A 
HETATM   19  C   UNL     1       5.977  34.321  49.026  1.00  0.00     0.034 A 
HETATM   20 CL   UNL     1       6.118  35.784  48.133  1.00  0.00    -0.084 Cl
HETATM   21  C   UNL     1       6.269  33.105  48.416  1.00  0.00     0.026 A 
HETATM   22  C   UNL     1       6.153  31.917  49.145  1.00  0.00     0.031 A 
ENDBRANCH  13  16
ENDBRANCH  10  12
BRANCH   9  23
HETATM   23  C   UNL     1       4.916  27.173  49.878  1.00  0.00    -0.028 A 
HETATM   24  C   UNL     1       5.036  27.893  48.675  1.00  0.00     0.012 A 
HETATM   25  C   UNL     1       4.409  27.441  47.514  1.00  0.00     0.043 A 
HETATM   26  C   UNL     1       3.666  26.267  47.546  1.00  0.00     0.116 A 
HETATM   27  F   UNL     1       3.062  25.838  46.430  1.00  0.00    -0.206 F 
HETATM   28  C   UNL     1       3.540  25.533  48.717  1.00  0.00     0.043 A 
HETATM   29  C   UNL     1       4.166  25.981  49.881  1.00  0.00     0.012 A 
ENDBRANCH   9  23
BRANCH   7  30
HETATM   30  C   UNL     1       7.642  23.507  52.813  1.00  0.00     0.085 C 
BRANCH  30  31
HETATM   31  C   UNL     1       7.521  22.810  54.166  1.00  0.00     0.034 C 
BRANCH  31  32
HETATM   32  C   UNL     1       8.660  23.155  55.117  1.00  0.00     0.164 C 
BRANCH  32  33
HETATM   33  O   UNL     1       8.358  24.365  55.804  1.00  0.00    -0.401 OA
HETATM   34  H   UNL     1       8.410  25.090  55.158  1.00  0.00     0.209 HD
ENDBRANCH  32  33
ENDBRANCH  31  32
ENDBRANCH  30  31
ENDBRANCH   7  30
TORSDOF 7
ENDMDL
