MODEL 1
REMARK VINA RESULT:      -9.5      0.000      0.000
REMARK  7 active torsions:
REMARK  status: ('A' for Active; 'I' for Inactive)
REMARK    1  A    between atoms: C_2  and  N_3 
REMARK    2  A    between atoms: C_2  and  C_10 
REMARK    3  A    between atoms: N_11  and  C_12 
REMARK    4  A    between atoms: C_19  and  S_20 
REMARK    5  A    between atoms: S_20  and  C_21 
REMARK    6  A    between atoms: C_21  and  C_22 
REMARK    7  A    between atoms: C_21  and  C_28 
REMARK       I    between atoms: C_22  and  N_23 
REMARK       I    between atoms: N_23  and  C_24 
REMARK       I    between atoms: C_24  and  N_25 
ROOT
HETATM    1  C   UNL     1       5.550  29.906  56.598  1.00  0.00     0.166 A 
HETATM    2  N   UNL     1       6.610  29.001  56.611  1.00  0.00    -0.274 N 
HETATM    3  C   UNL     1       5.997  27.770  56.425  1.00  0.00     0.197 A 
HETATM    4  N   UNL     1       4.720  27.949  56.185  1.00  0.00    -0.122 NA
HETATM    5  N   UNL     1       4.443  29.278  56.266  1.00  0.00    -0.131 NA
ENDROOT
BRANCH   3   6
HETATM    6  S   UNL     1       6.822  26.249  56.423  1.00  0.00    -0.070 SA
BRANCH   6   7
HETATM    7  C   UNL     1       6.943  25.770  54.653  1.00  0.00     0.180 C 
BRANCH   7   8
HETATM    8  C   UNL     1       5.585  25.904  53.938  1.00  0.00     0.244 C 
HETATM    9  N   UNL     1       5.419  26.896  52.990  1.00  0.00    -0.278 N 
HETATM   10  C   UNL     1       6.179  28.015  52.766  1.00  0.00     0.320 C 
HETATM   11  H   UNL     1       4.509  26.878  52.560  1.00  0.00     0.173 HD
HETATM   12  N   UNL     1       5.666  28.822  51.798  1.00  0.00    -0.352 N 
HETATM   13  O   UNL     1       7.236  28.298  53.307  1.00  0.00    -0.247 OA
HETATM   14  H   UNL     1       4.666  28.915  51.683  1.00  0.00     0.160 HD
HETATM   15  H   UNL     1       6.187  29.681  51.663  1.00  0.00     0.160 HD
HETATM   16  O   UNL     1       4.602  25.193  54.183  1.00  0.00    -0.271 OA
ENDBRANCH   7   8
BRANCH   7  17
HETATM   17  C   UNL     1       7.675  24.452  54.434  1.00  0.00    -0.035 A 
HETATM   18  C   UNL     1       7.596  23.818  53.181  1.00  0.00     0.009 A 
HETATM   19  C   UNL     1       8.249  22.606  52.947  1.00  0.00     0.001 A 
HETATM   20  C   UNL     1       8.993  22.006  53.958  1.00  0.00     0.000 A 
HETATM   21  C   UNL     1       9.084  22.618  55.205  1.00  0.00     0.001 A 
HETATM   22  C   UNL     1       8.431  23.829  55.443  1.00  0.00     0.009 A 
ENDBRANCH   7  17
ENDBRANCH   6   7
ENDBRANCH   3   6
BRANCH   2  23
HETATM   23  C   UNL     1       7.980  29.312  56.814  1.00  0.00     0.043 A 
HETATM   24  C   UNL     1       8.887  29.303  55.744  1.00  0.00     0.033 A 
HETATM   25  C   UNL     1      10.231  29.615  55.971  1.00  0.00     0.044 A 
HETATM   26  C   UNL     1      10.660  29.933  57.254  1.00  0.00     0.116 A 
HETATM   27  F   UNL     1      11.947  30.232  57.466  1.00  0.00    -0.206 F 
HETATM   28  C   UNL     1       9.770  29.950  58.321  1.00  0.00     0.044 A 
HETATM   29  C   UNL     1       8.425  29.640  58.104  1.00  0.00     0.033 A 
ENDBRANCH   2  23
BRANCH   1  30
HETATM   30  C   UNL     1       5.592  31.326  57.073  1.00  0.00     0.255 C 
HETATM   31  C   UNL     1       4.670  32.225  56.244  1.00  0.00     0.049 C 
BRANCH  30  32
HETATM   32  N   UNL     1       5.243  31.505  58.573  1.00  0.00    -0.060 N 
HETATM   33  H   UNL     1       5.313  30.566  58.982  1.00  0.00     0.280 HD
HETATM   34  C   UNL     1       6.197  32.390  59.361  1.00  0.00     0.236 C 
HETATM   35  C   UNL     1       5.865  32.268  60.845  1.00  0.00     0.028 C 
HETATM   36  C   UNL     1       4.417  32.657  61.123  1.00  0.00     0.003 C 
HETATM   37  C   UNL     1       3.452  31.866  60.247  1.00  0.00     0.028 C 
HETATM   38  C   UNL     1       3.813  31.963  58.769  1.00  0.00     0.236 C 
ENDBRANCH  30  32
ENDBRANCH   1  30
TORSDOF 7
ENDMDL
MODEL 2
REMARK VINA RESULT:      -9.0      3.273      7.765
REMARK  7 active torsions:
REMARK  status: ('A' for Active; 'I' for Inactive)
REMARK    1  A    between atoms: C_2  and  N_3 
REMARK    2  A    between atoms: C_2  and  C_10 
REMARK    3  A    between atoms: N_11  and  C_12 
REMARK    4  A    between atoms: C_19  and  S_20 
REMARK    5  A    between atoms: S_20  and  C_21 
REMARK    6  A    between atoms: C_21  and  C_22 
REMARK    7  A    between atoms: C_21  and  C_28 
REMARK       I    between atoms: C_22  and  N_23 
REMARK       I    between atoms: N_23  and  C_24 
REMARK       I    between atoms: C_24  and  N_25 
ROOT
HETATM    1  C   UNL     1       6.165  25.287  54.282  1.00  0.00     0.166 A 
HETATM    2  N   UNL     1       5.848  26.633  54.448  1.00  0.00    -0.274 N 
HETATM    3  C   UNL     1       4.803  26.841  53.558  1.00  0.00     0.197 A 
HETATM    4  N   UNL     1       4.449  25.695  53.026  1.00  0.00    -0.122 NA
HETATM    5  N   UNL     1       5.277  24.723  53.492  1.00  0.00    -0.131 NA
ENDROOT
BRANCH   3   6
HETATM    6  S   UNL     1       4.038  28.366  53.275  1.00  0.00    -0.070 SA
BRANCH   6   7
HETATM    7  C   UNL     1       3.908  28.507  51.447  1.00  0.00     0.180 C 
BRANCH   7   8
HETATM    8  C   UNL     1       5.297  28.644  50.793  1.00  0.00     0.244 C 
HETATM    9  N   UNL     1       5.533  28.023  49.580  1.00  0.00    -0.278 N 
HETATM   10  C   UNL     1       4.821  27.026  48.966  1.00  0.00     0.320 C 
HETATM   11  H   UNL     1       6.458  28.201  49.223  1.00  0.00     0.173 HD
HETATM   12  N   UNL     1       5.398  26.594  47.812  1.00  0.00    -0.352 N 
HETATM   13  O   UNL     1       3.754  26.559  49.333  1.00  0.00    -0.247 OA
HETATM   14  H   UNL     1       6.403  26.564  47.720  1.00  0.00     0.160 HD
HETATM   15  H   UNL     1       4.912  25.817  47.377  1.00  0.00     0.160 HD
HETATM   16  O   UNL     1       6.244  29.254  51.303  1.00  0.00    -0.271 OA
ENDBRANCH   7   8
BRANCH   7  17
HETATM   17  C   UNL     1       2.864  29.520  50.994  1.00  0.00    -0.035 A 
HETATM   18  C   UNL     1       2.955  30.851  51.439  1.00  0.00     0.009 A 
HETATM   19  C   UNL     1       2.013  31.805  51.049  1.00  0.00     0.001 A 
HETATM   20  C   UNL     1       0.965  31.447  50.206  1.00  0.00     0.000 A 
HETATM   21  C   UNL     1       0.857  30.135  49.754  1.00  0.00     0.001 A 
HETATM   22  C   UNL     1       1.797  29.179  50.145  1.00  0.00     0.009 A 
ENDBRANCH   7  17
ENDBRANCH   6   7
ENDBRANCH   3   6
BRANCH   2  23
HETATM   23  C   UNL     1       6.501  27.552  55.311  1.00  0.00     0.043 A 
HETATM   24  C   UNL     1       7.669  28.214  54.908  1.00  0.00     0.033 A 
HETATM   25  C   UNL     1       8.291  29.116  55.776  1.00  0.00     0.044 A 
HETATM   26  C   UNL     1       7.746  29.354  57.033  1.00  0.00     0.116 A 
HETATM   27  F   UNL     1       8.344  30.219  57.860  1.00  0.00    -0.206 F 
HETATM   28  C   UNL     1       6.586  28.708  57.442  1.00  0.00     0.044 A 
HETATM   29  C   UNL     1       5.957  27.805  56.581  1.00  0.00     0.033 A 
ENDBRANCH   2  23
BRANCH   1  30
HETATM   30  C   UNL     1       7.416  24.608  54.748  1.00  0.00     0.255 C 
HETATM   31  C   UNL     1       7.653  24.828  56.244  1.00  0.00     0.049 C 
BRANCH  30  32
HETATM   32  N   UNL     1       7.458  23.085  54.457  1.00  0.00    -0.060 N 
HETATM   33  H   UNL     1       6.483  22.814  54.285  1.00  0.00     0.280 HD
HETATM   34  C   UNL     1       8.244  22.680  53.219  1.00  0.00     0.236 C 
HETATM   35  C   UNL     1       7.988  21.203  52.937  1.00  0.00     0.028 C 
HETATM   36  C   UNL     1       8.379  20.336  54.129  1.00  0.00     0.003 C 
HETATM   37  C   UNL     1       7.697  20.808  55.408  1.00  0.00     0.028 C 
HETATM   38  C   UNL     1       7.926  22.294  55.661  1.00  0.00     0.236 C 
ENDBRANCH  30  32
ENDBRANCH   1  30
TORSDOF 7
ENDMDL
MODEL 3
REMARK VINA RESULT:      -8.6      2.965      7.980
REMARK  7 active torsions:
REMARK  status: ('A' for Active; 'I' for Inactive)
REMARK    1  A    between atoms: C_2  and  N_3 
REMARK    2  A    between atoms: C_2  and  C_10 
REMARK    3  A    between atoms: N_11  and  C_12 
REMARK    4  A    between atoms: C_19  and  S_20 
REMARK    5  A    between atoms: S_20  and  C_21 
REMARK    6  A    between atoms: C_21  and  C_22 
REMARK    7  A    between atoms: C_21  and  C_28 
REMARK       I    between atoms: C_22  and  N_23 
REMARK       I    between atoms: N_23  and  C_24 
REMARK       I    between atoms: C_24  and  N_25 
ROOT
HETATM    1  C   UNL     1       7.386  26.282  56.979  1.00  0.00     0.166 A 
HETATM    2  N   UNL     1       7.186  27.462  56.266  1.00  0.00    -0.274 N 
HETATM    3  C   UNL     1       7.617  28.453  57.137  1.00  0.00     0.197 A 
HETATM    4  N   UNL     1       8.149  27.899  58.200  1.00  0.00    -0.122 NA
HETATM    5  N   UNL     1       8.031  26.549  58.094  1.00  0.00    -0.131 NA
ENDROOT
BRANCH   3   6
HETATM    6  S   UNL     1       7.539  30.151  56.814  1.00  0.00    -0.070 SA
BRANCH   6   7
HETATM    7  C   UNL     1       6.710  30.882  58.282  1.00  0.00     0.180 C 
BRANCH   7   8
HETATM    8  C   UNL     1       5.641  31.913  57.869  1.00  0.00     0.244 C 
HETATM    9  N   UNL     1       4.343  31.487  57.654  1.00  0.00    -0.278 N 
HETATM   10  C   UNL     1       3.873  30.216  57.448  1.00  0.00     0.320 C 
HETATM   11  H   UNL     1       3.718  32.241  57.421  1.00  0.00     0.173 HD
HETATM   12  N   UNL     1       2.539  30.178  57.182  1.00  0.00    -0.352 N 
HETATM   13  O   UNL     1       4.515  29.180  57.526  1.00  0.00    -0.247 OA
HETATM   14  H   UNL     1       2.099  30.921  56.658  1.00  0.00     0.160 HD
HETATM   15  H   UNL     1       2.190  29.250  56.972  1.00  0.00     0.160 HD
HETATM   16  O   UNL     1       5.874  33.113  57.680  1.00  0.00    -0.271 OA
ENDBRANCH   7   8
BRANCH   7  17
HETATM   17  C   UNL     1       7.684  31.340  59.359  1.00  0.00    -0.035 A 
HETATM   18  C   UNL     1       7.210  31.580  60.662  1.00  0.00     0.009 A 
HETATM   19  C   UNL     1       8.073  32.006  61.673  1.00  0.00     0.001 A 
HETATM   20  C   UNL     1       9.425  32.197  61.404  1.00  0.00     0.000 A 
HETATM   21  C   UNL     1       9.914  31.965  60.121  1.00  0.00     0.001 A 
HETATM   22  C   UNL     1       9.053  31.540  59.107  1.00  0.00     0.009 A 
ENDBRANCH   7  17
ENDBRANCH   6   7
ENDBRANCH   3   6
BRANCH   2  23
HETATM   23  C   UNL     1       6.626  27.577  54.966  1.00  0.00     0.043 A 
HETATM   24  C   UNL     1       7.434  27.491  53.824  1.00  0.00     0.033 A 
HETATM   25  C   UNL     1       6.858  27.605  52.556  1.00  0.00     0.044 A 
HETATM   26  C   UNL     1       5.487  27.801  52.433  1.00  0.00     0.116 A 
HETATM   27  F   UNL     1       4.940  27.908  51.218  1.00  0.00    -0.206 F 
HETATM   28  C   UNL     1       4.675  27.883  53.559  1.00  0.00     0.044 A 
HETATM   29  C   UNL     1       5.242  27.770  54.830  1.00  0.00     0.033 A 
ENDBRANCH   2  23
BRANCH   1  30
HETATM   30  C   UNL     1       6.801  24.942  56.655  1.00  0.00     0.255 C 
HETATM   31  C   UNL     1       5.274  25.000  56.564  1.00  0.00     0.049 C 
BRANCH  30  32
HETATM   32  N   UNL     1       7.353  24.306  55.352  1.00  0.00    -0.060 N 
HETATM   33  H   UNL     1       8.064  24.962  55.009  1.00  0.00     0.280 HD
HETATM   34  C   UNL     1       8.052  22.966  55.528  1.00  0.00     0.236 C 
HETATM   35  C   UNL     1       8.741  22.598  54.218  1.00  0.00     0.028 C 
HETATM   36  C   UNL     1       7.745  22.538  53.065  1.00  0.00     0.003 C 
HETATM   37  C   UNL     1       6.945  23.830  52.954  1.00  0.00     0.028 C 
HETATM   38  C   UNL     1       6.290  24.210  54.278  1.00  0.00     0.236 C 
ENDBRANCH  30  32
ENDBRANCH   1  30
TORSDOF 7
ENDMDL
MODEL 4
REMARK VINA RESULT:      -8.5      3.311      7.402
REMARK  7 active torsions:
REMARK  status: ('A' for Active; 'I' for Inactive)
REMARK    1  A    between atoms: C_2  and  N_3 
REMARK    2  A    between atoms: C_2  and  C_10 
REMARK    3  A    between atoms: N_11  and  C_12 
REMARK    4  A    between atoms: C_19  and  S_20 
REMARK    5  A    between atoms: S_20  and  C_21 
REMARK    6  A    between atoms: C_21  and  C_22 
REMARK    7  A    between atoms: C_21  and  C_28 
REMARK       I    between atoms: C_22  and  N_23 
REMARK       I    between atoms: N_23  and  C_24 
REMARK       I    between atoms: C_24  and  N_25 
ROOT
HETATM    1  C   UNL     1       6.179  25.497  53.652  1.00  0.00     0.166 A 
HETATM    2  N   UNL     1       6.250  26.880  53.493  1.00  0.00    -0.274 N 
HETATM    3  C   UNL     1       5.891  27.080  52.167  1.00  0.00     0.197 A 
HETATM    4  N   UNL     1       5.510  25.941  51.641  1.00  0.00    -0.122 NA
HETATM    5  N   UNL     1       5.663  24.959  52.568  1.00  0.00    -0.131 NA
ENDROOT
BRANCH   3   6
HETATM    6  S   UNL     1       5.869  28.617  51.373  1.00  0.00    -0.070 SA
BRANCH   6   7
HETATM    7  C   UNL     1       4.090  29.005  51.124  1.00  0.00     0.180 C 
BRANCH   7   8
HETATM    8  C   UNL     1       3.294  28.866  52.437  1.00  0.00     0.244 C 
HETATM    9  N   UNL     1       2.801  30.004  53.047  1.00  0.00    -0.278 N 
HETATM   10  C   UNL     1       3.152  31.314  52.849  1.00  0.00     0.320 C 
HETATM   11  H   UNL     1       2.269  29.802  53.878  1.00  0.00     0.173 HD
HETATM   12  N   UNL     1       2.516  32.169  53.695  1.00  0.00    -0.352 N 
HETATM   13  O   UNL     1       3.910  31.743  51.993  1.00  0.00    -0.247 OA
HETATM   14  H   UNL     1       2.300  31.890  54.641  1.00  0.00     0.160 HD
HETATM   15  H   UNL     1       2.809  33.135  53.596  1.00  0.00     0.160 HD
HETATM   16  O   UNL     1       3.090  27.789  53.010  1.00  0.00    -0.271 OA
ENDBRANCH   7   8
BRANCH   7  17
HETATM   17  C   UNL     1       3.486  28.310  49.911  1.00  0.00    -0.035 A 
HETATM   18  C   UNL     1       2.102  28.405  49.679  1.00  0.00     0.009 A 
HETATM   19  C   UNL     1       1.513  27.776  48.580  1.00  0.00     0.001 A 
HETATM   20  C   UNL     1       2.294  27.043  47.692  1.00  0.00     0.000 A 
HETATM   21  C   UNL     1       3.667  26.937  47.904  1.00  0.00     0.001 A 
HETATM   22  C   UNL     1       4.258  27.564  49.003  1.00  0.00     0.009 A 
ENDBRANCH   7  17
ENDBRANCH   6   7
ENDBRANCH   3   6
BRANCH   2  23
HETATM   23  C   UNL     1       6.646  27.822  54.478  1.00  0.00     0.043 A 
HETATM   24  C   UNL     1       7.992  28.177  54.637  1.00  0.00     0.033 A 
HETATM   25  C   UNL     1       8.355  29.109  55.613  1.00  0.00     0.044 A 
HETATM   26  C   UNL     1       7.378  29.682  56.420  1.00  0.00     0.116 A 
HETATM   27  F   UNL     1       7.730  30.574  57.352  1.00  0.00    -0.206 F 
HETATM   28  C   UNL     1       6.039  29.342  56.268  1.00  0.00     0.044 A 
HETATM   29  C   UNL     1       5.667  28.412  55.295  1.00  0.00     0.033 A 
ENDBRANCH   2  23
BRANCH   1  30
HETATM   30  C   UNL     1       6.768  24.704  54.778  1.00  0.00     0.255 C 
HETATM   31  C   UNL     1       5.869  24.731  56.017  1.00  0.00     0.049 C 
BRANCH  30  32
HETATM   32  N   UNL     1       7.077  23.227  54.420  1.00  0.00    -0.060 N 
HETATM   33  H   UNL     1       6.178  22.822  54.136  1.00  0.00     0.280 HD
HETATM   34  C   UNL     1       8.029  23.027  53.251  1.00  0.00     0.236 C 
HETATM   35  C   UNL     1       8.038  21.549  52.874  1.00  0.00     0.028 C 
HETATM   36  C   UNL     1       8.448  20.678  54.057  1.00  0.00     0.003 C 
HETATM   37  C   UNL     1       7.583  20.958  55.280  1.00  0.00     0.028 C 
HETATM   38  C   UNL     1       7.550  22.442  55.626  1.00  0.00     0.236 C 
ENDBRANCH  30  32
ENDBRANCH   1  30
TORSDOF 7
ENDMDL
MODEL 5
REMARK VINA RESULT:      -8.3      3.834      6.153
REMARK  7 active torsions:
REMARK  status: ('A' for Active; 'I' for Inactive)
REMARK    1  A    between atoms: C_2  and  N_3 
REMARK    2  A    between atoms: C_2  and  C_10 
REMARK    3  A    between atoms: N_11  and  C_12 
REMARK    4  A    between atoms: C_19  and  S_20 
REMARK    5  A    between atoms: S_20  and  C_21 
REMARK    6  A    between atoms: C_21  and  C_22 
REMARK    7  A    between atoms: C_21  and  C_28 
REMARK       I    between atoms: C_22  and  N_23 
REMARK       I    between atoms: N_23  and  C_24 
REMARK       I    between atoms: C_24  and  N_25 
ROOT
HETATM    1  C   UNL     1       3.495  30.342  53.828  1.00  0.00     0.166 A 
HETATM    2  N   UNL     1       3.832  29.285  52.985  1.00  0.00    -0.274 N 
HETATM    3  C   UNL     1       4.384  28.341  53.839  1.00  0.00     0.197 A 
HETATM    4  N   UNL     1       4.254  28.746  55.080  1.00  0.00    -0.122 NA
HETATM    5  N   UNL     1       3.678  29.977  55.079  1.00  0.00    -0.131 NA
ENDROOT
BRANCH   3   6
HETATM    6  S   UNL     1       5.055  26.828  53.335  1.00  0.00    -0.070 SA
BRANCH   6   7
HETATM    7  C   UNL     1       6.426  26.494  54.513  1.00  0.00     0.180 C 
BRANCH   7   8
HETATM    8  C   UNL     1       7.401  27.684  54.594  1.00  0.00     0.244 C 
HETATM    9  N   UNL     1       7.777  28.161  55.836  1.00  0.00    -0.278 N 
HETATM   10  C   UNL     1       7.192  27.950  57.058  1.00  0.00     0.320 C 
HETATM   11  H   UNL     1       8.441  28.917  55.780  1.00  0.00     0.173 HD
HETATM   12  N   UNL     1       7.785  28.653  58.061  1.00  0.00    -0.352 N 
HETATM   13  O   UNL     1       6.267  27.192  57.300  1.00  0.00    -0.247 OA
HETATM   14  H   UNL     1       8.167  29.572  57.887  1.00  0.00     0.160 HD
HETATM   15  H   UNL     1       7.326  28.550  58.959  1.00  0.00     0.160 HD
HETATM   16  O   UNL     1       7.855  28.275  53.607  1.00  0.00    -0.271 OA
ENDBRANCH   7   8
BRANCH   7  17
HETATM   17  C   UNL     1       7.070  25.127  54.315  1.00  0.00    -0.035 A 
HETATM   18  C   UNL     1       7.299  24.655  53.010  1.00  0.00     0.009 A 
HETATM   19  C   UNL     1       7.882  23.405  52.791  1.00  0.00     0.001 A 
HETATM   20  C   UNL     1       8.246  22.605  53.870  1.00  0.00     0.000 A 
HETATM   21  C   UNL     1       8.027  23.054  55.169  1.00  0.00     0.001 A 
HETATM   22  C   UNL     1       7.443  24.303  55.391  1.00  0.00     0.009 A 
ENDBRANCH   7  17
ENDBRANCH   6   7
ENDBRANCH   3   6
BRANCH   2  23
HETATM   23  C   UNL     1       3.668  29.247  51.575  1.00  0.00     0.043 A 
HETATM   24  C   UNL     1       2.400  29.081  51.001  1.00  0.00     0.033 A 
HETATM   25  C   UNL     1       2.266  29.049  49.610  1.00  0.00     0.044 A 
HETATM   26  C   UNL     1       3.390  29.185  48.803  1.00  0.00     0.116 A 
HETATM   27  F   UNL     1       3.257  29.155  47.473  1.00  0.00    -0.206 F 
HETATM   28  C   UNL     1       4.652  29.356  49.361  1.00  0.00     0.044 A 
HETATM   29  C   UNL     1       4.796  29.389  50.750  1.00  0.00     0.033 A 
ENDBRANCH   2  23
BRANCH   1  30
HETATM   30  C   UNL     1       3.165  31.740  53.408  1.00  0.00     0.255 C 
HETATM   31  C   UNL     1       2.469  32.517  54.528  1.00  0.00     0.049 C 
BRANCH  30  32
HETATM   32  N   UNL     1       4.387  32.561  52.918  1.00  0.00    -0.060 N 
HETATM   33  H   UNL     1       5.204  31.968  53.102  1.00  0.00     0.280 HD
HETATM   34  C   UNL     1       4.406  32.874  51.429  1.00  0.00     0.236 C 
HETATM   35  C   UNL     1       5.767  33.461  51.070  1.00  0.00     0.028 C 
HETATM   36  C   UNL     1       6.063  34.715  51.887  1.00  0.00     0.003 C 
HETATM   37  C   UNL     1       5.923  34.450  53.382  1.00  0.00     0.028 C 
HETATM   38  C   UNL     1       4.575  33.828  53.727  1.00  0.00     0.236 C 
ENDBRANCH  30  32
ENDBRANCH   1  30
TORSDOF 7
ENDMDL
MODEL 6
REMARK VINA RESULT:      -8.3      4.152      6.458
REMARK  7 active torsions:
REMARK  status: ('A' for Active; 'I' for Inactive)
REMARK    1  A    between atoms: C_2  and  N_3 
REMARK    2  A    between atoms: C_2  and  C_10 
REMARK    3  A    between atoms: N_11  and  C_12 
REMARK    4  A    between atoms: C_19  and  S_20 
REMARK    5  A    between atoms: S_20  and  C_21 
REMARK    6  A    between atoms: C_21  and  C_22 
REMARK    7  A    between atoms: C_21  and  C_28 
REMARK       I    between atoms: C_22  and  N_23 
REMARK       I    between atoms: N_23  and  C_24 
REMARK       I    between atoms: C_24  and  N_25 
ROOT
HETATM    1  C   UNL     1       4.414  34.507  61.193  1.00  0.00     0.166 A 
HETATM    2  N   UNL     1       4.804  33.235  60.779  1.00  0.00    -0.274 N 
HETATM    3  C   UNL     1       3.688  32.744  60.116  1.00  0.00     0.197 A 
HETATM    4  N   UNL     1       2.783  33.689  60.027  1.00  0.00    -0.122 NA
HETATM    5  N   UNL     1       3.240  34.794  60.672  1.00  0.00    -0.131 NA
ENDROOT
BRANCH   3   6
HETATM    6  S   UNL     1       3.563  31.157  59.439  1.00  0.00    -0.070 SA
BRANCH   6   7
HETATM    7  C   UNL     1       4.467  31.242  57.842  1.00  0.00     0.180 C 
BRANCH   7   8
HETATM    8  C   UNL     1       3.542  31.692  56.694  1.00  0.00     0.244 C 
HETATM    9  N   UNL     1       3.859  32.834  55.984  1.00  0.00    -0.278 N 
HETATM   10  C   UNL     1       4.723  33.846  56.313  1.00  0.00     0.320 C 
HETATM   11  H   UNL     1       3.211  33.022  55.236  1.00  0.00     0.173 HD
HETATM   12  N   UNL     1       4.720  34.864  55.410  1.00  0.00    -0.352 N 
HETATM   13  O   UNL     1       5.478  33.876  57.272  1.00  0.00    -0.247 OA
HETATM   14  H   UNL     1       3.869  35.124  54.932  1.00  0.00     0.160 HD
HETATM   15  H   UNL     1       5.313  35.645  55.671  1.00  0.00     0.160 HD
HETATM   16  O   UNL     1       2.498  31.108  56.379  1.00  0.00    -0.271 OA
ENDBRANCH   7   8
BRANCH   7  17
HETATM   17  C   UNL     1       5.312  30.006  57.561  1.00  0.00    -0.035 A 
HETATM   18  C   UNL     1       6.679  30.015  57.892  1.00  0.00     0.009 A 
HETATM   19  C   UNL     1       7.486  28.902  57.644  1.00  0.00     0.001 A 
HETATM   20  C   UNL     1       6.942  27.761  57.063  1.00  0.00     0.000 A 
HETATM   21  C   UNL     1       5.591  27.732  56.727  1.00  0.00     0.001 A 
HETATM   22  C   UNL     1       4.783  28.844  56.973  1.00  0.00     0.009 A 
ENDBRANCH   7  17
ENDBRANCH   6   7
ENDBRANCH   3   6
BRANCH   2  23
HETATM   23  C   UNL     1       6.053  32.611  61.038  1.00  0.00     0.043 A 
HETATM   24  C   UNL     1       7.121  32.735  60.139  1.00  0.00     0.033 A 
HETATM   25  C   UNL     1       8.341  32.113  60.419  1.00  0.00     0.044 A 
HETATM   26  C   UNL     1       8.490  31.376  61.588  1.00  0.00     0.116 A 
HETATM   27  F   UNL     1       9.659  30.783  61.852  1.00  0.00    -0.206 F 
HETATM   28  C   UNL     1       7.440  31.249  62.489  1.00  0.00     0.044 A 
HETATM   29  C   UNL     1       6.217  31.868  62.219  1.00  0.00     0.033 A 
ENDBRANCH   2  23
BRANCH   1  30
HETATM   30  C   UNL     1       5.100  35.353  62.220  1.00  0.00     0.255 C 
HETATM   31  C   UNL     1       4.694  36.825  62.100  1.00  0.00     0.049 C 
BRANCH  30  32
HETATM   32  N   UNL     1       4.868  34.892  63.682  1.00  0.00    -0.060 N 
HETATM   33  H   UNL     1       4.392  33.985  63.608  1.00  0.00     0.280 HD
HETATM   34  C   UNL     1       6.130  34.650  64.496  1.00  0.00     0.236 C 
HETATM   35  C   UNL     1       5.745  33.976  65.809  1.00  0.00     0.028 C 
HETATM   36  C   UNL     1       4.751  34.822  66.597  1.00  0.00     0.003 C 
HETATM   37  C   UNL     1       3.535  35.181  65.751  1.00  0.00     0.028 C 
HETATM   38  C   UNL     1       3.930  35.820  64.425  1.00  0.00     0.236 C 
ENDBRANCH  30  32
ENDBRANCH   1  30
TORSDOF 7
ENDMDL
MODEL 7
REMARK VINA RESULT:      -8.2      3.618      5.425
REMARK  7 active torsions:
REMARK  status: ('A' for Active; 'I' for Inactive)
REMARK    1  A    between atoms: C_2  and  N_3 
REMARK    2  A    between atoms: C_2  and  C_10 
REMARK    3  A    between atoms: N_11  and  C_12 
REMARK    4  A    between atoms: C_19  and  S_20 
REMARK    5  A    between atoms: S_20  and  C_21 
REMARK    6  A    between atoms: C_21  and  C_22 
REMARK    7  A    between atoms: C_21  and  C_28 
REMARK       I    between atoms: C_22  and  N_23 
REMARK       I    between atoms: N_23  and  C_24 
REMARK       I    between atoms: C_24  and  N_25 
ROOT
HETATM    1  C   UNL     1       3.856  30.246  53.588  1.00  0.00     0.166 A 
HETATM    2  N   UNL     1       4.233  29.175  52.780  1.00  0.00    -0.274 N 
HETATM    3  C   UNL     1       4.442  28.139  53.679  1.00  0.00     0.197 A 
HETATM    4  N   UNL     1       4.085  28.524  54.880  1.00  0.00    -0.122 NA
HETATM    5  N   UNL     1       3.696  29.825  54.824  1.00  0.00    -0.131 NA
ENDROOT
BRANCH   3   6
HETATM    6  S   UNL     1       5.001  26.559  53.249  1.00  0.00    -0.070 SA
BRANCH   6   7
HETATM    7  C   UNL     1       6.320  26.167  54.467  1.00  0.00     0.180 C 
BRANCH   7   8
HETATM    8  C   UNL     1       7.354  27.305  54.563  1.00  0.00     0.244 C 
HETATM    9  N   UNL     1       7.686  27.809  55.807  1.00  0.00    -0.278 N 
HETATM   10  C   UNL     1       7.023  27.676  56.999  1.00  0.00     0.320 C 
HETATM   11  H   UNL     1       8.393  28.525  55.764  1.00  0.00     0.173 HD
HETATM   12  N   UNL     1       7.597  28.384  58.010  1.00  0.00    -0.352 N 
HETATM   13  O   UNL     1       6.044  26.979  57.215  1.00  0.00    -0.247 OA
HETATM   14  H   UNL     1       8.039  29.273  57.827  1.00  0.00     0.160 HD
HETATM   15  H   UNL     1       7.084  28.340  58.883  1.00  0.00     0.160 HD
HETATM   16  O   UNL     1       7.894  27.833  53.583  1.00  0.00    -0.271 OA
ENDBRANCH   7   8
BRANCH   7  17
HETATM   17  C   UNL     1       6.895  24.766  54.302  1.00  0.00    -0.035 A 
HETATM   18  C   UNL     1       7.309  24.336  53.028  1.00  0.00     0.009 A 
HETATM   19  C   UNL     1       7.836  23.056  52.838  1.00  0.00     0.001 A 
HETATM   20  C   UNL     1       7.960  22.185  53.916  1.00  0.00     0.000 A 
HETATM   21  C   UNL     1       7.557  22.592  55.185  1.00  0.00     0.001 A 
HETATM   22  C   UNL     1       7.028  23.871  55.377  1.00  0.00     0.009 A 
ENDBRANCH   7  17
ENDBRANCH   6   7
ENDBRANCH   3   6
BRANCH   2  23
HETATM   23  C   UNL     1       4.394  29.200  51.370  1.00  0.00     0.043 A 
HETATM   24  C   UNL     1       5.605  29.604  50.790  1.00  0.00     0.033 A 
HETATM   25  C   UNL     1       5.739  29.616  49.398  1.00  0.00     0.044 A 
HETATM   26  C   UNL     1       4.671  29.227  48.597  1.00  0.00     0.116 A 
HETATM   27  F   UNL     1       4.804  29.240  47.267  1.00  0.00    -0.206 F 
HETATM   28  C   UNL     1       3.468  28.820  49.161  1.00  0.00     0.044 A 
HETATM   29  C   UNL     1       3.325  28.803  50.550  1.00  0.00     0.033 A 
ENDBRANCH   2  23
BRANCH   1  30
HETATM   30  C   UNL     1       3.823  31.689  53.188  1.00  0.00     0.255 C 
HETATM   31  C   UNL     1       2.584  32.013  52.349  1.00  0.00     0.049 C 
BRANCH  30  32
HETATM   32  N   UNL     1       3.890  32.680  54.379  1.00  0.00    -0.060 N 
HETATM   33  H   UNL     1       4.174  32.115  55.187  1.00  0.00     0.280 HD
HETATM   34  C   UNL     1       4.923  33.789  54.244  1.00  0.00     0.236 C 
HETATM   35  C   UNL     1       5.034  34.519  55.579  1.00  0.00     0.028 C 
HETATM   36  C   UNL     1       3.687  35.088  56.014  1.00  0.00     0.003 C 
HETATM   37  C   UNL     1       2.609  34.011  56.031  1.00  0.00     0.028 C 
HETATM   38  C   UNL     1       2.530  33.261  54.706  1.00  0.00     0.236 C 
ENDBRANCH  30  32
ENDBRANCH   1  30
TORSDOF 7
ENDMDL
MODEL 8
REMARK VINA RESULT:      -8.2      2.335      3.459
REMARK  7 active torsions:
REMARK  status: ('A' for Active; 'I' for Inactive)
REMARK    1  A    between atoms: C_2  and  N_3 
REMARK    2  A    between atoms: C_2  and  C_10 
REMARK    3  A    between atoms: N_11  and  C_12 
REMARK    4  A    between atoms: C_19  and  S_20 
REMARK    5  A    between atoms: S_20  and  C_21 
REMARK    6  A    between atoms: C_21  and  C_22 
REMARK    7  A    between atoms: C_21  and  C_28 
REMARK       I    between atoms: C_22  and  N_23 
REMARK       I    between atoms: N_23  and  C_24 
REMARK       I    between atoms: C_24  and  N_25 
ROOT
HETATM    1  C   UNL     1       5.332  28.987  55.826  1.00  0.00     0.166 A 
HETATM    2  N   UNL     1       6.416  28.350  56.427  1.00  0.00    -0.274 N 
HETATM    3  C   UNL     1       5.934  27.082  56.723  1.00  0.00     0.197 A 
HETATM    4  N   UNL     1       4.731  26.944  56.218  1.00  0.00    -0.122 NA
HETATM    5  N   UNL     1       4.364  28.116  55.637  1.00  0.00    -0.131 NA
ENDROOT
BRANCH   3   6
HETATM    6  S   UNL     1       6.829  25.856  57.552  1.00  0.00    -0.070 SA
BRANCH   6   7
HETATM    7  C   UNL     1       7.303  24.644  56.254  1.00  0.00     0.180 C 
BRANCH   7   8
HETATM    8  C   UNL     1       8.770  24.200  56.407  1.00  0.00     0.244 C 
HETATM    9  N   UNL     1       9.158  22.975  55.895  1.00  0.00    -0.278 N 
HETATM   10  C   UNL     1       8.383  21.910  55.517  1.00  0.00     0.320 C 
HETATM   11  H   UNL     1      10.141  22.794  56.018  1.00  0.00     0.173 HD
HETATM   12  N   UNL     1       9.114  20.827  55.138  1.00  0.00    -0.352 N 
HETATM   13  O   UNL     1       7.164  21.882  55.457  1.00  0.00    -0.247 OA
HETATM   14  H   UNL     1       9.993  20.618  55.589  1.00  0.00     0.160 HD
HETATM   15  H   UNL     1       8.553  20.014  54.910  1.00  0.00     0.160 HD
HETATM   16  O   UNL     1       9.634  24.859  56.997  1.00  0.00    -0.271 OA
ENDBRANCH   7   8
BRANCH   7  17
HETATM   17  C   UNL     1       6.886  25.070  54.852  1.00  0.00    -0.035 A 
HETATM   18  C   UNL     1       7.727  25.920  54.111  1.00  0.00     0.009 A 
HETATM   19  C   UNL     1       7.375  26.336  52.825  1.00  0.00     0.001 A 
HETATM   20  C   UNL     1       6.179  25.909  52.256  1.00  0.00     0.000 A 
HETATM   21  C   UNL     1       5.333  25.068  52.973  1.00  0.00     0.001 A 
HETATM   22  C   UNL     1       5.682  24.652  54.260  1.00  0.00     0.009 A 
ENDBRANCH   7  17
ENDBRANCH   6   7
ENDBRANCH   3   6
BRANCH   2  23
HETATM   23  C   UNL     1       7.688  28.921  56.693  1.00  0.00     0.043 A 
HETATM   24  C   UNL     1       8.663  29.007  55.689  1.00  0.00     0.033 A 
HETATM   25  C   UNL     1       9.907  29.577  55.976  1.00  0.00     0.044 A 
HETATM   26  C   UNL     1      10.170  30.057  57.254  1.00  0.00     0.116 A 
HETATM   27  F   UNL     1      11.361  30.602  57.524  1.00  0.00    -0.206 F 
HETATM   28  C   UNL     1       9.210  29.981  58.256  1.00  0.00     0.044 A 
HETATM   29  C   UNL     1       7.964  29.414  57.978  1.00  0.00     0.033 A 
ENDBRANCH   2  23
BRANCH   1  30
HETATM   30  C   UNL     1       5.184  30.460  55.602  1.00  0.00     0.255 C 
HETATM   31  C   UNL     1       4.064  30.768  54.604  1.00  0.00     0.049 C 
BRANCH  30  32
HETATM   32  N   UNL     1       4.937  31.278  56.895  1.00  0.00    -0.060 N 
HETATM   33  H   UNL     1       5.727  31.058  57.512  1.00  0.00     0.280 HD
HETATM   34  C   UNL     1       4.937  32.790  56.718  1.00  0.00     0.236 C 
HETATM   35  C   UNL     1       4.928  33.444  58.096  1.00  0.00     0.028 C 
HETATM   36  C   UNL     1       3.720  32.998  58.914  1.00  0.00     0.003 C 
HETATM   37  C   UNL     1       3.634  31.479  58.994  1.00  0.00     0.028 C 
HETATM   38  C   UNL     1       3.681  30.831  57.614  1.00  0.00     0.236 C 
ENDBRANCH  30  32
ENDBRANCH   1  30
TORSDOF 7
ENDMDL
MODEL 9
REMARK VINA RESULT:      -8.1      5.274     10.629
REMARK  7 active torsions:
REMARK  status: ('A' for Active; 'I' for Inactive)
REMARK    1  A    between atoms: C_2  and  N_3 
REMARK    2  A    between atoms: C_2  and  C_10 
REMARK    3  A    between atoms: N_11  and  C_12 
REMARK    4  A    between atoms: C_19  and  S_20 
REMARK    5  A    between atoms: S_20  and  C_21 
REMARK    6  A    between atoms: C_21  and  C_22 
REMARK    7  A    between atoms: C_21  and  C_28 
REMARK       I    between atoms: C_22  and  N_23 
REMARK       I    between atoms: N_23  and  C_24 
REMARK       I    between atoms: C_24  and  N_25 
ROOT
HETATM    1  C   UNL     1       7.159  31.729  60.067  1.00  0.00     0.166 A 
HETATM    2  N   UNL     1       5.917  32.315  60.302  1.00  0.00    -0.274 N 
HETATM    3  C   UNL     1       5.748  32.198  61.674  1.00  0.00     0.197 A 
HETATM    4  N   UNL     1       6.846  31.719  62.209  1.00  0.00    -0.122 NA
HETATM    5  N   UNL     1       7.735  31.450  61.217  1.00  0.00    -0.131 NA
ENDROOT
BRANCH   3   6
HETATM    6  S   UNL     1       4.336  32.697  62.540  1.00  0.00    -0.070 SA
BRANCH   6   7
HETATM    7  C   UNL     1       4.846  34.200  63.467  1.00  0.00     0.180 C 
BRANCH   7   8
HETATM    8  C   UNL     1       4.218  34.234  64.874  1.00  0.00     0.244 C 
HETATM    9  N   UNL     1       5.046  34.306  65.978  1.00  0.00    -0.278 N 
HETATM   10  C   UNL     1       6.389  34.048  66.070  1.00  0.00     0.320 C 
HETATM   11  H   UNL     1       4.537  34.356  66.846  1.00  0.00     0.173 HD
HETATM   12  N   UNL     1       6.862  34.136  67.344  1.00  0.00    -0.352 N 
HETATM   13  O   UNL     1       7.149  33.805  65.147  1.00  0.00    -0.247 OA
HETATM   14  H   UNL     1       6.286  33.858  68.125  1.00  0.00     0.160 HD
HETATM   15  H   UNL     1       7.842  33.892  67.434  1.00  0.00     0.160 HD
HETATM   16  O   UNL     1       3.001  34.167  65.089  1.00  0.00    -0.271 OA
ENDBRANCH   7   8
BRANCH   7  17
HETATM   17  C   UNL     1       4.713  35.483  62.655  1.00  0.00    -0.035 A 
HETATM   18  C   UNL     1       3.508  35.752  61.982  1.00  0.00     0.009 A 
HETATM   19  C   UNL     1       3.352  36.914  61.224  1.00  0.00     0.001 A 
HETATM   20  C   UNL     1       4.396  37.829  61.125  1.00  0.00     0.000 A 
HETATM   21  C   UNL     1       5.598  37.581  61.783  1.00  0.00     0.001 A 
HETATM   22  C   UNL     1       5.756  36.418  62.541  1.00  0.00     0.009 A 
ENDBRANCH   7  17
ENDBRANCH   6   7
ENDBRANCH   3   6
BRANCH   2  23
HETATM   23  C   UNL     1       5.042  32.856  59.323  1.00  0.00     0.043 A 
HETATM   24  C   UNL     1       4.137  32.037  58.635  1.00  0.00     0.033 A 
HETATM   25  C   UNL     1       3.284  32.595  57.677  1.00  0.00     0.044 A 
HETATM   26  C   UNL     1       3.338  33.959  57.414  1.00  0.00     0.116 A 
HETATM   27  F   UNL     1       2.520  34.489  56.498  1.00  0.00    -0.206 F 
HETATM   28  C   UNL     1       4.229  34.782  58.094  1.00  0.00     0.044 A 
HETATM   29  C   UNL     1       5.084  34.234  59.053  1.00  0.00     0.033 A 
ENDBRANCH   2  23
BRANCH   1  30
HETATM   30  C   UNL     1       7.696  31.292  58.739  1.00  0.00     0.255 C 
HETATM   31  C   UNL     1       9.226  31.231  58.742  1.00  0.00     0.049 C 
BRANCH  30  32
HETATM   32  N   UNL     1       7.145  29.928  58.249  1.00  0.00    -0.060 N 
HETATM   33  H   UNL     1       6.608  29.552  59.039  1.00  0.00     0.280 HD
HETATM   34  C   UNL     1       6.184  30.000  57.071  1.00  0.00     0.236 C 
HETATM   35  C   UNL     1       5.552  28.626  56.871  1.00  0.00     0.028 C 
HETATM   36  C   UNL     1       6.612  27.556  56.636  1.00  0.00     0.003 C 
HETATM   37  C   UNL     1       7.657  27.556  57.746  1.00  0.00     0.028 C 
HETATM   38  C   UNL     1       8.257  28.940  57.964  1.00  0.00     0.236 C 
ENDBRANCH  30  32
ENDBRANCH   1  30
TORSDOF 7
ENDMDL
MODEL 10
REMARK VINA RESULT:      -8.1      3.156      7.707
REMARK  7 active torsions:
REMARK  status: ('A' for Active; 'I' for Inactive)
REMARK    1  A    between atoms: C_2  and  N_3 
REMARK    2  A    between atoms: C_2  and  C_10 
REMARK    3  A    between atoms: N_11  and  C_12 
REMARK    4  A    between atoms: C_19  and  S_20 
REMARK    5  A    between atoms: S_20  and  C_21 
REMARK    6  A    between atoms: C_21  and  C_22 
REMARK    7  A    between atoms: C_21  and  C_28 
REMARK       I    between atoms: C_22  and  N_23 
REMARK       I    between atoms: N_23  and  C_24 
REMARK       I    between atoms: C_24  and  N_25 
ROOT
HETATM    1  C   UNL     1       4.829  27.819  52.253  1.00  0.00     0.166 A 
HETATM    2  N   UNL     1       5.382  27.128  53.329  1.00  0.00    -0.274 N 
HETATM    3  C   UNL     1       4.944  27.836  54.439  1.00  0.00     0.197 A 
HETATM    4  N   UNL     1       4.102  28.767  54.059  1.00  0.00    -0.122 NA
HETATM    5  N   UNL     1       4.007  28.743  52.704  1.00  0.00    -0.131 NA
ENDROOT
BRANCH   3   6
HETATM    6  S   UNL     1       5.381  27.475  56.074  1.00  0.00    -0.070 SA
BRANCH   6   7
HETATM    7  C   UNL     1       6.751  28.634  56.473  1.00  0.00     0.180 C 
BRANCH   7   8
HETATM    8  C   UNL     1       7.822  27.959  57.350  1.00  0.00     0.244 C 
HETATM    9  N   UNL     1       9.128  28.408  57.281  1.00  0.00    -0.278 N 
HETATM   10  C   UNL     1       9.728  29.182  56.321  1.00  0.00     0.320 C 
HETATM   11  H   UNL     1       9.742  27.924  57.916  1.00  0.00     0.173 HD
HETATM   12  N   UNL     1      11.060  29.356  56.534  1.00  0.00    -0.352 N 
HETATM   13  O   UNL     1       9.178  29.726  55.377  1.00  0.00    -0.247 OA
HETATM   14  H   UNL     1      11.616  28.619  56.943  1.00  0.00     0.160 HD
HETATM   15  H   UNL     1      11.527  29.880  55.801  1.00  0.00     0.160 HD
HETATM   16  O   UNL     1       7.598  27.003  58.102  1.00  0.00    -0.271 OA
ENDBRANCH   7   8
BRANCH   7  17
HETATM   17  C   UNL     1       6.267  29.996  56.955  1.00  0.00    -0.035 A 
HETATM   18  C   UNL     1       5.406  30.751  56.137  1.00  0.00     0.009 A 
HETATM   19  C   UNL     1       4.947  32.006  56.544  1.00  0.00     0.001 A 
HETATM   20  C   UNL     1       5.337  32.528  57.773  1.00  0.00     0.000 A 
HETATM   21  C   UNL     1       6.189  31.796  58.597  1.00  0.00     0.001 A 
HETATM   22  C   UNL     1       6.650  30.542  58.192  1.00  0.00     0.009 A 
ENDBRANCH   7  17
ENDBRANCH   6   7
ENDBRANCH   3   6
BRANCH   2  23
HETATM   23  C   UNL     1       6.227  25.990  53.254  1.00  0.00     0.043 A 
HETATM   24  C   UNL     1       7.500  26.075  52.673  1.00  0.00     0.033 A 
HETATM   25  C   UNL     1       8.314  24.940  52.614  1.00  0.00     0.044 A 
HETATM   26  C   UNL     1       7.858  23.734  53.134  1.00  0.00     0.116 A 
HETATM   27  F   UNL     1       8.641  22.651  53.076  1.00  0.00    -0.206 F 
HETATM   28  C   UNL     1       6.600  23.639  53.717  1.00  0.00     0.044 A 
HETATM   29  C   UNL     1       5.780  24.767  53.781  1.00  0.00     0.033 A 
ENDBRANCH   2  23
BRANCH   1  30
HETATM   30  C   UNL     1       5.232  27.691  50.817  1.00  0.00     0.255 C 
HETATM   31  C   UNL     1       4.702  26.396  50.196  1.00  0.00     0.049 C 
BRANCH  30  32
HETATM   32  N   UNL     1       4.797  28.884  49.926  1.00  0.00    -0.060 N 
HETATM   33  H   UNL     1       3.990  29.300  50.404  1.00  0.00     0.280 HD
HETATM   34  C   UNL     1       5.828  29.993  49.775  1.00  0.00     0.236 C 
HETATM   35  C   UNL     1       5.169  31.183  49.086  1.00  0.00     0.028 C 
HETATM   36  C   UNL     1       4.597  30.791  47.727  1.00  0.00     0.003 C 
HETATM   37  C   UNL     1       3.657  29.597  47.844  1.00  0.00     0.028 C 
HETATM   38  C   UNL     1       4.312  28.425  48.567  1.00  0.00     0.236 C 
ENDBRANCH  30  32
ENDBRANCH   1  30
TORSDOF 7
ENDMDL
