MODEL 1
REMARK VINA RESULT:      -9.4      0.000      0.000
REMARK  6 active torsions:
REMARK  status: ('A' for Active; 'I' for Inactive)
REMARK    1  A    between atoms: O_2  and  C_3 
REMARK    2  A    between atoms: C_3  and  C_4 
REMARK    3  A    between atoms: C_4  and  N_5 
REMARK       I    between atoms: N_5  and  C_6 
REMARK    4  A    between atoms: C_6  and  C_7 
REMARK    5  A    between atoms: C_12  and  C_13 
REMARK    6  A    between atoms: C_22  and  C_23 
ROOT
HETATM    1  C   UNL     1       7.948  29.043  57.489  1.00  0.00     0.148 A 
HETATM    2  N   UNL     1       7.457  29.337  56.262  1.00  0.00    -0.165 NA
HETATM    3  N   UNL     1       7.013  28.152  55.814  1.00  0.00    -0.240 N 
HETATM    4  C   UNL     1       7.271  27.103  56.649  1.00  0.00     0.123 A 
HETATM    5  N   UNL     1       6.997  25.831  56.289  1.00  0.00    -0.366 N 
HETATM    6  C   UNL     1       6.417  25.499  54.990  1.00  0.00     0.118 C 
HETATM    7  C   UNL     1       6.711  26.606  53.957  1.00  0.00     0.066 C 
HETATM    8  C   UNL     1       6.393  28.005  54.512  1.00  0.00     0.221 C 
HETATM    9  C   UNL     1       7.830  27.652  57.772  1.00  0.00     0.088 A 
HETATM   10  H   UNL     1       7.044  25.071  56.968  1.00  0.00     0.161 HD
ENDROOT
BRANCH   1  11
HETATM   11  C   UNL     1       8.546  30.064  58.362  1.00  0.00     0.272 C 
HETATM   12  N   UNL     1       7.992  30.105  59.622  1.00  0.00    -0.354 N 
HETATM   13  H   UNL     1       7.160  29.536  59.753  1.00  0.00     0.162 HD
HETATM   14  O   UNL     1       9.438  30.822  57.989  1.00  0.00    -0.266 OA
BRANCH  12  15
HETATM   15  C   UNL     1       8.306  31.149  60.575  1.00  0.00     0.149 C 
BRANCH  15  16
HETATM   16  C   UNL     1       9.088  30.624  61.781  1.00  0.00     0.186 C 
BRANCH  16  17
HETATM   17  O   UNL     1       8.389  30.971  62.982  1.00  0.00    -0.394 OA
HETATM   18  C   UNL     1       8.049  32.350  63.004  1.00  0.00     0.201 C 
ENDBRANCH  16  17
ENDBRANCH  15  16
ENDBRANCH  12  15
ENDBRANCH   1  11
BRANCH   8  19
HETATM   19  C   UNL     1       4.906  28.262  54.619  1.00  0.00     0.409 C 
HETATM   20  F   UNL     1       4.420  28.009  55.853  1.00  0.00    -0.169 F 
HETATM   21  F   UNL     1       4.650  29.573  54.364  1.00  0.00    -0.169 F 
HETATM   22  F   UNL     1       4.175  27.552  53.733  1.00  0.00    -0.169 F 
ENDBRANCH   8  19
BRANCH   6  23
HETATM   23  C   UNL     1       6.975  24.168  54.510  1.00  0.00    -0.034 A 
HETATM   24  C   UNL     1       7.207  23.109  55.409  1.00  0.00     0.034 A 
HETATM   25  C   UNL     1       7.738  21.892  54.969  1.00  0.00     0.056 A 
HETATM   26 CL   UNL     1       7.981  20.649  56.145  1.00  0.00    -0.083 Cl
HETATM   27  C   UNL     1       8.053  21.721  53.619  1.00  0.00     0.055 A 
HETATM   28 CL   UNL     1       8.716  20.251  53.000  1.00  0.00    -0.083 Cl
HETATM   29  C   UNL     1       7.835  22.767  52.718  1.00  0.00     0.026 A 
HETATM   30  C   UNL     1       7.301  23.982  53.159  1.00  0.00     0.011 A 
ENDBRANCH   6  23
TORSDOF 6
ENDMDL
MODEL 2
REMARK VINA RESULT:      -9.1      9.064     14.153
REMARK  6 active torsions:
REMARK  status: ('A' for Active; 'I' for Inactive)
REMARK    1  A    between atoms: O_2  and  C_3 
REMARK    2  A    between atoms: C_3  and  C_4 
REMARK    3  A    between atoms: C_4  and  N_5 
REMARK       I    between atoms: N_5  and  C_6 
REMARK    4  A    between atoms: C_6  and  C_7 
REMARK    5  A    between atoms: C_12  and  C_13 
REMARK    6  A    between atoms: C_22  and  C_23 
ROOT
HETATM    1  C   UNL     1       6.496  32.826  63.798  1.00  0.00     0.148 A 
HETATM    2  N   UNL     1       5.242  32.957  64.293  1.00  0.00    -0.165 NA
HETATM    3  N   UNL     1       5.428  33.647  65.430  1.00  0.00    -0.240 N 
HETATM    4  C   UNL     1       6.739  33.887  65.733  1.00  0.00     0.123 A 
HETATM    5  N   UNL     1       7.098  34.461  66.901  1.00  0.00    -0.366 N 
HETATM    6  C   UNL     1       6.116  34.853  67.908  1.00  0.00     0.118 C 
HETATM    7  C   UNL     1       4.813  34.042  67.752  1.00  0.00     0.066 C 
HETATM    8  C   UNL     1       4.326  34.019  66.294  1.00  0.00     0.221 C 
HETATM    9  C   UNL     1       7.458  33.415  64.668  1.00  0.00     0.088 A 
HETATM   10  H   UNL     1       8.054  34.780  67.056  1.00  0.00     0.161 HD
ENDROOT
BRANCH   1  11
HETATM   11  C   UNL     1       6.774  32.124  62.536  1.00  0.00     0.272 C 
HETATM   12  N   UNL     1       8.042  31.593  62.469  1.00  0.00    -0.354 N 
HETATM   13  H   UNL     1       8.670  31.862  63.221  1.00  0.00     0.162 HD
HETATM   14  O   UNL     1       5.957  32.045  61.622  1.00  0.00    -0.266 OA
BRANCH  12  15
HETATM   15  C   UNL     1       8.582  31.023  61.253  1.00  0.00     0.149 C 
BRANCH  15  16
HETATM   16  C   UNL     1       9.463  32.010  60.485  1.00  0.00     0.186 C 
BRANCH  16  17
HETATM   17  O   UNL     1       8.782  32.420  59.293  1.00  0.00    -0.394 OA
HETATM   18  C   UNL     1       7.961  31.380  58.781  1.00  0.00     0.201 C 
ENDBRANCH  16  17
ENDBRANCH  15  16
ENDBRANCH  12  15
ENDBRANCH   1  11
BRANCH   8  19
HETATM   19  C   UNL     1       3.753  35.347  65.853  1.00  0.00     0.409 C 
HETATM   20  F   UNL     1       3.035  35.254  64.713  1.00  0.00    -0.169 F 
HETATM   21  F   UNL     1       2.904  35.817  66.806  1.00  0.00    -0.169 F 
HETATM   22  F   UNL     1       4.691  36.302  65.674  1.00  0.00    -0.169 F 
ENDBRANCH   8  19
BRANCH   6  23
HETATM   23  C   UNL     1       6.703  34.646  69.296  1.00  0.00    -0.034 A 
HETATM   24  C   UNL     1       6.689  33.380  69.911  1.00  0.00     0.034 A 
HETATM   25  C   UNL     1       7.213  33.195  71.195  1.00  0.00     0.056 A 
HETATM   26 CL   UNL     1       7.157  31.603  71.865  1.00  0.00    -0.083 Cl
HETATM   27  C   UNL     1       7.752  34.282  71.887  1.00  0.00     0.055 A 
HETATM   28 CL   UNL     1       8.414  34.136  73.476  1.00  0.00    -0.083 Cl
HETATM   29  C   UNL     1       7.765  35.546  71.290  1.00  0.00     0.026 A 
HETATM   30  C   UNL     1       7.245  35.728  70.005  1.00  0.00     0.011 A 
ENDBRANCH   6  23
TORSDOF 6
ENDMDL
MODEL 3
REMARK VINA RESULT:      -8.7      1.949      2.732
REMARK  6 active torsions:
REMARK  status: ('A' for Active; 'I' for Inactive)
REMARK    1  A    between atoms: O_2  and  C_3 
REMARK    2  A    between atoms: C_3  and  C_4 
REMARK    3  A    between atoms: C_4  and  N_5 
REMARK       I    between atoms: N_5  and  C_6 
REMARK    4  A    between atoms: C_6  and  C_7 
REMARK    5  A    between atoms: C_12  and  C_13 
REMARK    6  A    between atoms: C_22  and  C_23 
ROOT
HETATM    1  C   UNL     1       5.643  29.052  56.626  1.00  0.00     0.148 A 
HETATM    2  N   UNL     1       6.317  29.170  55.458  1.00  0.00    -0.165 NA
HETATM    3  N   UNL     1       6.339  27.914  54.985  1.00  0.00    -0.240 N 
HETATM    4  C   UNL     1       5.793  26.986  55.827  1.00  0.00     0.123 A 
HETATM    5  N   UNL     1       5.847  25.666  55.551  1.00  0.00    -0.366 N 
HETATM    6  C   UNL     1       6.493  25.149  54.348  1.00  0.00     0.118 C 
HETATM    7  C   UNL     1       7.538  26.149  53.811  1.00  0.00     0.066 C 
HETATM    8  C   UNL     1       6.972  27.576  53.725  1.00  0.00     0.221 C 
HETATM    9  C   UNL     1       5.282  27.697  56.879  1.00  0.00     0.088 A 
HETATM   10  H   UNL     1       5.307  24.994  56.096  1.00  0.00     0.161 HD
ENDROOT
BRANCH   1  11
HETATM   11  C   UNL     1       5.375  30.205  57.499  1.00  0.00     0.272 C 
HETATM   12  N   UNL     1       6.512  30.882  57.881  1.00  0.00    -0.354 N 
HETATM   13  H   UNL     1       7.391  30.433  57.638  1.00  0.00     0.162 HD
HETATM   14  O   UNL     1       4.246  30.514  57.870  1.00  0.00    -0.266 OA
BRANCH  12  15
HETATM   15  C   UNL     1       6.493  31.930  58.879  1.00  0.00     0.149 C 
BRANCH  15  16
HETATM   16  C   UNL     1       7.680  31.843  59.841  1.00  0.00     0.186 C 
BRANCH  16  17
HETATM   17  O   UNL     1       8.797  32.540  59.274  1.00  0.00    -0.394 OA
HETATM   18  C   UNL     1       9.830  31.641  58.893  1.00  0.00     0.201 C 
ENDBRANCH  16  17
ENDBRANCH  15  16
ENDBRANCH  12  15
ENDBRANCH   1  11
BRANCH   8  19
HETATM   19  C   UNL     1       5.982  27.740  52.593  1.00  0.00     0.409 C 
HETATM   20  F   UNL     1       6.137  26.810  51.627  1.00  0.00    -0.169 F 
HETATM   21  F   UNL     1       4.716  27.595  53.069  1.00  0.00    -0.169 F 
HETATM   22  F   UNL     1       6.033  28.955  52.009  1.00  0.00    -0.169 F 
ENDBRANCH   8  19
BRANCH   6  23
HETATM   23  C   UNL     1       7.152  23.814  54.659  1.00  0.00    -0.034 A 
HETATM   24  C   UNL     1       7.384  22.863  53.647  1.00  0.00     0.034 A 
HETATM   25  C   UNL     1       7.973  21.628  53.938  1.00  0.00     0.056 A 
HETATM   26 CL   UNL     1       8.225  20.528  52.630  1.00  0.00    -0.083 Cl
HETATM   27  C   UNL     1       8.331  21.324  55.254  1.00  0.00     0.055 A 
HETATM   28 CL   UNL     1       9.058  19.820  55.695  1.00  0.00    -0.083 Cl
HETATM   29  C   UNL     1       8.098  22.256  56.269  1.00  0.00     0.026 A 
HETATM   30  C   UNL     1       7.513  23.492  55.975  1.00  0.00     0.011 A 
ENDBRANCH   6  23
TORSDOF 6
ENDMDL
MODEL 4
REMARK VINA RESULT:      -8.7      1.364      1.616
REMARK  6 active torsions:
REMARK  status: ('A' for Active; 'I' for Inactive)
REMARK    1  A    between atoms: O_2  and  C_3 
REMARK    2  A    between atoms: C_3  and  C_4 
REMARK    3  A    between atoms: C_4  and  N_5 
REMARK       I    between atoms: N_5  and  C_6 
REMARK    4  A    between atoms: C_6  and  C_7 
REMARK    5  A    between atoms: C_12  and  C_13 
REMARK    6  A    between atoms: C_22  and  C_23 
ROOT
HETATM    1  C   UNL     1       6.551  29.297  56.910  1.00  0.00     0.148 A 
HETATM    2  N   UNL     1       6.700  29.466  55.574  1.00  0.00    -0.165 NA
HETATM    3  N   UNL     1       6.468  28.240  55.079  1.00  0.00    -0.240 N 
HETATM    4  C   UNL     1       6.265  27.279  56.029  1.00  0.00     0.123 A 
HETATM    5  N   UNL     1       6.139  25.977  55.698  1.00  0.00    -0.366 N 
HETATM    6  C   UNL     1       6.217  25.515  54.315  1.00  0.00     0.118 C 
HETATM    7  C   UNL     1       7.003  26.517  53.444  1.00  0.00     0.066 C 
HETATM    8  C   UNL     1       6.520  27.961  53.658  1.00  0.00     0.221 C 
HETATM    9  C   UNL     1       6.258  27.940  57.228  1.00  0.00     0.088 A 
HETATM   10  H   UNL     1       5.834  25.288  56.386  1.00  0.00     0.161 HD
ENDROOT
BRANCH   1  11
HETATM   11  C   UNL     1       6.715  30.403  57.865  1.00  0.00     0.272 C 
HETATM   12  N   UNL     1       7.643  30.146  58.850  1.00  0.00    -0.354 N 
HETATM   13  H   UNL     1       7.993  29.192  58.883  1.00  0.00     0.162 HD
HETATM   14  O   UNL     1       6.066  31.443  57.801  1.00  0.00    -0.266 OA
BRANCH  12  15
HETATM   15  C   UNL     1       7.828  31.019  59.989  1.00  0.00     0.149 C 
BRANCH  15  16
HETATM   16  C   UNL     1       9.215  31.665  60.011  1.00  0.00     0.186 C 
BRANCH  16  17
HETATM   17  O   UNL     1       9.722  31.645  61.351  1.00  0.00    -0.394 OA
HETATM   18  C   UNL     1       9.316  30.472  62.042  1.00  0.00     0.201 C 
ENDBRANCH  16  17
ENDBRANCH  15  16
ENDBRANCH  12  15
ENDBRANCH   1  11
BRANCH   8  19
HETATM   19  C   UNL     1       5.166  28.218  53.034  1.00  0.00     0.409 C 
HETATM   20  F   UNL     1       4.859  27.325  52.069  1.00  0.00    -0.169 F 
HETATM   21  F   UNL     1       4.198  28.109  53.983  1.00  0.00    -0.169 F 
HETATM   22  F   UNL     1       5.045  29.454  52.507  1.00  0.00    -0.169 F 
ENDBRANCH   8  19
BRANCH   6  23
HETATM   23  C   UNL     1       6.880  24.147  54.273  1.00  0.00    -0.034 A 
HETATM   24  C   UNL     1       7.239  23.475  55.458  1.00  0.00     0.034 A 
HETATM   25  C   UNL     1       7.866  22.226  55.418  1.00  0.00     0.056 A 
HETATM   26 CL   UNL     1       8.262  21.476  56.923  1.00  0.00    -0.083 Cl
HETATM   27  C   UNL     1       8.150  21.632  54.186  1.00  0.00     0.055 A 
HETATM   28 CL   UNL     1       8.925  20.093  54.053  1.00  0.00    -0.083 Cl
HETATM   29  C   UNL     1       7.805  22.291  53.002  1.00  0.00     0.026 A 
HETATM   30  C   UNL     1       7.176  23.539  53.045  1.00  0.00     0.011 A 
ENDBRANCH   6  23
TORSDOF 6
ENDMDL
MODEL 5
REMARK VINA RESULT:      -8.7      5.117      7.809
REMARK  6 active torsions:
REMARK  status: ('A' for Active; 'I' for Inactive)
REMARK    1  A    between atoms: O_2  and  C_3 
REMARK    2  A    between atoms: C_3  and  C_4 
REMARK    3  A    between atoms: C_4  and  N_5 
REMARK       I    between atoms: N_5  and  C_6 
REMARK    4  A    between atoms: C_6  and  C_7 
REMARK    5  A    between atoms: C_12  and  C_13 
REMARK    6  A    between atoms: C_22  and  C_23 
ROOT
HETATM    1  C   UNL     1       4.454  27.729  50.750  1.00  0.00     0.148 A 
HETATM    2  N   UNL     1       4.205  27.921  52.067  1.00  0.00    -0.165 NA
HETATM    3  N   UNL     1       5.175  27.217  52.671  1.00  0.00    -0.240 N 
HETATM    4  C   UNL     1       5.977  26.516  51.816  1.00  0.00     0.123 A 
HETATM    5  N   UNL     1       6.921  25.666  52.272  1.00  0.00    -0.366 N 
HETATM    6  C   UNL     1       7.138  25.439  53.698  1.00  0.00     0.118 C 
HETATM    7  C   UNL     1       5.871  25.780  54.509  1.00  0.00     0.066 C 
HETATM    8  C   UNL     1       5.292  27.149  54.114  1.00  0.00     0.221 C 
HETATM    9  C   UNL     1       5.572  26.867  50.556  1.00  0.00     0.088 A 
HETATM   10  H   UNL     1       7.616  25.266  51.642  1.00  0.00     0.161 HD
ENDROOT
BRANCH   1  11
HETATM   11  C   UNL     1       3.623  28.331  49.696  1.00  0.00     0.272 C 
HETATM   12  N   UNL     1       2.338  27.837  49.659  1.00  0.00    -0.354 N 
HETATM   13  H   UNL     1       2.161  27.034  50.256  1.00  0.00     0.162 HD
HETATM   14  O   UNL     1       4.047  29.175  48.911  1.00  0.00    -0.266 OA
BRANCH  12  15
HETATM   15  C   UNL     1       1.413  28.157  48.593  1.00  0.00     0.149 C 
BRANCH  15  16
HETATM   16  C   UNL     1       1.167  26.972  47.657  1.00  0.00     0.186 C 
BRANCH  16  17
HETATM   17  O   UNL     1       2.354  26.718  46.897  1.00  0.00    -0.394 OA
HETATM   18  C   UNL     1       2.912  25.450  47.213  1.00  0.00     0.201 C 
ENDBRANCH  16  17
ENDBRANCH  15  16
ENDBRANCH  12  15
ENDBRANCH   1  11
BRANCH   8  19
HETATM   19  C   UNL     1       6.132  28.301  54.617  1.00  0.00     0.409 C 
HETATM   20  F   UNL     1       5.411  29.424  54.819  1.00  0.00    -0.169 F 
HETATM   21  F   UNL     1       6.681  27.976  55.819  1.00  0.00    -0.169 F 
HETATM   22  F   UNL     1       7.161  28.611  53.800  1.00  0.00    -0.169 F 
ENDBRANCH   8  19
BRANCH   6  23
HETATM   23  C   UNL     1       7.536  23.988  53.927  1.00  0.00    -0.034 A 
HETATM   24  C   UNL     1       7.716  23.479  55.227  1.00  0.00     0.034 A 
HETATM   25  C   UNL     1       8.099  22.150  55.434  1.00  0.00     0.056 A 
HETATM   26 CL   UNL     1       8.289  21.612  57.065  1.00  0.00    -0.083 Cl
HETATM   27  C   UNL     1       8.317  21.312  54.338  1.00  0.00     0.055 A 
HETATM   28 CL   UNL     1       8.796  19.661  54.511  1.00  0.00    -0.083 Cl
HETATM   29  C   UNL     1       8.149  21.808  53.042  1.00  0.00     0.026 A 
HETATM   30  C   UNL     1       7.762  23.136  52.837  1.00  0.00     0.011 A 
ENDBRANCH   6  23
TORSDOF 6
ENDMDL
MODEL 6
REMARK VINA RESULT:      -8.5      3.380      4.432
REMARK  6 active torsions:
REMARK  status: ('A' for Active; 'I' for Inactive)
REMARK    1  A    between atoms: O_2  and  C_3 
REMARK    2  A    between atoms: C_3  and  C_4 
REMARK    3  A    between atoms: C_4  and  N_5 
REMARK       I    between atoms: N_5  and  C_6 
REMARK    4  A    between atoms: C_6  and  C_7 
REMARK    5  A    between atoms: C_12  and  C_13 
REMARK    6  A    between atoms: C_22  and  C_23 
ROOT
HETATM    1  C   UNL     1       7.240  31.116  59.172  1.00  0.00     0.148 A 
HETATM    2  N   UNL     1       8.379  30.390  59.081  1.00  0.00    -0.165 NA
HETATM    3  N   UNL     1       8.328  29.888  57.837  1.00  0.00    -0.240 N 
HETATM    4  C   UNL     1       7.178  30.181  57.160  1.00  0.00     0.123 A 
HETATM    5  N   UNL     1       6.921  29.650  55.945  1.00  0.00    -0.366 N 
HETATM    6  C   UNL     1       7.845  28.731  55.287  1.00  0.00     0.118 C 
HETATM    7  C   UNL     1       8.755  28.033  56.318  1.00  0.00     0.066 C 
HETATM    8  C   UNL     1       9.374  29.035  57.306  1.00  0.00     0.221 C 
HETATM    9  C   UNL     1       6.471  31.022  57.977  1.00  0.00     0.088 A 
HETATM   10  H   UNL     1       6.143  29.989  55.379  1.00  0.00     0.161 HD
ENDROOT
BRANCH   1  11
HETATM   11  C   UNL     1       6.877  31.858  60.388  1.00  0.00     0.272 C 
HETATM   12  N   UNL     1       7.271  31.236  61.552  1.00  0.00    -0.354 N 
HETATM   13  H   UNL     1       7.632  30.293  61.443  1.00  0.00     0.162 HD
HETATM   14  O   UNL     1       6.258  32.919  60.363  1.00  0.00    -0.266 OA
BRANCH  12  15
HETATM   15  C   UNL     1       6.858  31.701  62.859  1.00  0.00     0.149 C 
BRANCH  15  16
HETATM   16  C   UNL     1       7.904  32.603  63.516  1.00  0.00     0.186 C 
BRANCH  16  17
HETATM   17  O   UNL     1       7.438  32.999  64.812  1.00  0.00    -0.394 OA
HETATM   18  C   UNL     1       6.435  34.001  64.718  1.00  0.00     0.201 C 
ENDBRANCH  16  17
ENDBRANCH  15  16
ENDBRANCH  12  15
ENDBRANCH   1  11
BRANCH   8  19
HETATM   19  C   UNL     1      10.454  29.882  56.672  1.00  0.00     0.409 C 
HETATM   20  F   UNL     1      10.465  31.150  57.137  1.00  0.00    -0.169 F 
HETATM   21  F   UNL     1      11.675  29.356  56.960  1.00  0.00    -0.169 F 
HETATM   22  F   UNL     1      10.371  29.937  55.326  1.00  0.00    -0.169 F 
ENDBRANCH   8  19
BRANCH   6  23
HETATM   23  C   UNL     1       7.057  27.700  54.494  1.00  0.00    -0.034 A 
HETATM   24  C   UNL     1       7.709  26.746  53.690  1.00  0.00     0.034 A 
HETATM   25  C   UNL     1       6.982  25.810  52.947  1.00  0.00     0.056 A 
HETATM   26 CL   UNL     1       7.870  24.673  51.995  1.00  0.00    -0.083 Cl
HETATM   27  C   UNL     1       5.586  25.821  52.993  1.00  0.00     0.055 A 
HETATM   28 CL   UNL     1       4.617  24.702  52.102  1.00  0.00    -0.083 Cl
HETATM   29  C   UNL     1       4.926  26.769  53.782  1.00  0.00     0.026 A 
HETATM   30  C   UNL     1       5.655  27.702  54.527  1.00  0.00     0.011 A 
ENDBRANCH   6  23
TORSDOF 6
ENDMDL
MODEL 7
REMARK VINA RESULT:      -8.5      3.408      4.569
REMARK  6 active torsions:
REMARK  status: ('A' for Active; 'I' for Inactive)
REMARK    1  A    between atoms: O_2  and  C_3 
REMARK    2  A    between atoms: C_3  and  C_4 
REMARK    3  A    between atoms: C_4  and  N_5 
REMARK       I    between atoms: N_5  and  C_6 
REMARK    4  A    between atoms: C_6  and  C_7 
REMARK    5  A    between atoms: C_12  and  C_13 
REMARK    6  A    between atoms: C_22  and  C_23 
ROOT
HETATM    1  C   UNL     1       4.446  29.293  56.128  1.00  0.00     0.148 A 
HETATM    2  N   UNL     1       5.272  28.964  57.149  1.00  0.00    -0.165 NA
HETATM    3  N   UNL     1       6.138  28.109  56.583  1.00  0.00    -0.240 N 
HETATM    4  C   UNL     1       5.859  27.807  55.280  1.00  0.00     0.123 A 
HETATM    5  N   UNL     1       6.563  26.872  54.607  1.00  0.00    -0.366 N 
HETATM    6  C   UNL     1       7.655  26.126  55.227  1.00  0.00     0.118 C 
HETATM    7  C   UNL     1       7.502  26.100  56.762  1.00  0.00     0.066 C 
HETATM    8  C   UNL     1       7.220  27.500  57.332  1.00  0.00     0.221 C 
HETATM    9  C   UNL     1       4.798  28.599  54.935  1.00  0.00     0.088 A 
HETATM   10  H   UNL     1       6.458  26.760  53.599  1.00  0.00     0.161 HD
ENDROOT
BRANCH   1  11
HETATM   11  C   UNL     1       3.323  30.228  56.296  1.00  0.00     0.272 C 
HETATM   12  N   UNL     1       3.085  31.008  55.186  1.00  0.00    -0.354 N 
HETATM   13  H   UNL     1       3.785  30.949  54.452  1.00  0.00     0.162 HD
HETATM   14  O   UNL     1       2.678  30.317  57.337  1.00  0.00    -0.266 OA
BRANCH  12  15
HETATM   15  C   UNL     1       2.151  32.113  55.200  1.00  0.00     0.149 C 
BRANCH  15  16
HETATM   16  C   UNL     1       2.805  33.428  55.627  1.00  0.00     0.186 C 
BRANCH  16  17
HETATM   17  O   UNL     1       2.383  33.754  56.957  1.00  0.00    -0.394 OA
HETATM   18  C   UNL     1       3.493  33.894  57.834  1.00  0.00     0.201 C 
ENDBRANCH  16  17
ENDBRANCH  15  16
ENDBRANCH  12  15
ENDBRANCH   1  11
BRANCH   8  19
HETATM   19  C   UNL     1       8.437  28.397  57.296  1.00  0.00     0.409 C 
HETATM   20  F   UNL     1       8.539  29.182  58.390  1.00  0.00    -0.169 F 
HETATM   21  F   UNL     1       9.564  27.636  57.262  1.00  0.00    -0.169 F 
HETATM   22  F   UNL     1       8.484  29.194  56.208  1.00  0.00    -0.169 F 
ENDBRANCH   8  19
BRANCH   6  23
HETATM   23  C   UNL     1       7.679  24.709  54.675  1.00  0.00    -0.034 A 
HETATM   24  C   UNL     1       7.620  23.593  55.532  1.00  0.00     0.034 A 
HETATM   25  C   UNL     1       7.661  22.290  55.024  1.00  0.00     0.056 A 
HETATM   26 CL   UNL     1       7.576  20.984  56.153  1.00  0.00    -0.083 Cl
HETATM   27  C   UNL     1       7.769  22.086  53.647  1.00  0.00     0.055 A 
HETATM   28 CL   UNL     1       7.829  20.509  52.943  1.00  0.00    -0.083 Cl
HETATM   29  C   UNL     1       7.836  23.186  52.786  1.00  0.00     0.026 A 
HETATM   30  C   UNL     1       7.791  24.487  53.295  1.00  0.00     0.011 A 
ENDBRANCH   6  23
TORSDOF 6
ENDMDL
MODEL 8
REMARK VINA RESULT:      -8.4      9.920     14.303
REMARK  6 active torsions:
REMARK  status: ('A' for Active; 'I' for Inactive)
REMARK    1  A    between atoms: O_2  and  C_3 
REMARK    2  A    between atoms: C_3  and  C_4 
REMARK    3  A    between atoms: C_4  and  N_5 
REMARK       I    between atoms: N_5  and  C_6 
REMARK    4  A    between atoms: C_6  and  C_7 
REMARK    5  A    between atoms: C_12  and  C_13 
REMARK    6  A    between atoms: C_22  and  C_23 
ROOT
HETATM    1  C   UNL     1       6.647  32.818  63.725  1.00  0.00     0.148 A 
HETATM    2  N   UNL     1       5.366  32.942  64.147  1.00  0.00    -0.165 NA
HETATM    3  N   UNL     1       5.484  33.627  65.296  1.00  0.00    -0.240 N 
HETATM    4  C   UNL     1       6.774  33.871  65.675  1.00  0.00     0.123 A 
HETATM    5  N   UNL     1       7.062  34.441  66.864  1.00  0.00    -0.366 N 
HETATM    6  C   UNL     1       6.023  34.825  67.815  1.00  0.00     0.118 C 
HETATM    7  C   UNL     1       4.734  34.010  67.580  1.00  0.00     0.066 C 
HETATM    8  C   UNL     1       4.332  33.991  66.096  1.00  0.00     0.221 C 
HETATM    9  C   UNL     1       7.555  33.406  64.652  1.00  0.00     0.088 A 
HETATM   10  H   UNL     1       8.007  34.762  67.076  1.00  0.00     0.161 HD
ENDROOT
BRANCH   1  11
HETATM   11  C   UNL     1       7.000  32.122  62.478  1.00  0.00     0.272 C 
HETATM   12  N   UNL     1       6.740  32.859  61.344  1.00  0.00    -0.354 N 
HETATM   13  H   UNL     1       6.217  33.718  61.491  1.00  0.00     0.162 HD
HETATM   14  O   UNL     1       7.457  30.983  62.455  1.00  0.00    -0.266 OA
BRANCH  12  15
HETATM   15  C   UNL     1       6.842  32.299  60.014  1.00  0.00     0.149 C 
BRANCH  15  16
HETATM   16  C   UNL     1       5.487  32.222  59.307  1.00  0.00     0.186 C 
BRANCH  16  17
HETATM   17  O   UNL     1       4.522  32.972  60.054  1.00  0.00    -0.394 OA
HETATM   18  C   UNL     1       3.308  32.250  60.205  1.00  0.00     0.201 C 
ENDBRANCH  16  17
ENDBRANCH  15  16
ENDBRANCH  12  15
ENDBRANCH   1  11
BRANCH   8  19
HETATM   19  C   UNL     1       3.781  35.320  65.629  1.00  0.00     0.409 C 
HETATM   20  F   UNL     1       2.986  35.203  64.544  1.00  0.00    -0.169 F 
HETATM   21  F   UNL     1       3.015  35.868  66.611  1.00  0.00    -0.169 F 
HETATM   22  F   UNL     1       4.739  36.227  65.343  1.00  0.00    -0.169 F 
ENDBRANCH   8  19
BRANCH   6  23
HETATM   23  C   UNL     1       6.530  34.614  69.233  1.00  0.00    -0.034 A 
HETATM   24  C   UNL     1       7.236  35.626  69.912  1.00  0.00     0.034 A 
HETATM   25  C   UNL     1       7.718  35.424  71.209  1.00  0.00     0.056 A 
HETATM   26 CL   UNL     1       8.567  36.726  71.965  1.00  0.00    -0.083 Cl
HETATM   27  C   UNL     1       7.505  34.198  71.845  1.00  0.00     0.055 A 
HETATM   28 CL   UNL     1       8.072  33.869  73.443  1.00  0.00    -0.083 Cl
HETATM   29  C   UNL     1       6.812  33.183  71.178  1.00  0.00     0.026 A 
HETATM   30  C   UNL     1       6.328  33.388  69.883  1.00  0.00     0.011 A 
ENDBRANCH   6  23
TORSDOF 6
ENDMDL
MODEL 9
REMARK VINA RESULT:      -8.2      2.484      3.404
REMARK  6 active torsions:
REMARK  status: ('A' for Active; 'I' for Inactive)
REMARK    1  A    between atoms: O_2  and  C_3 
REMARK    2  A    between atoms: C_3  and  C_4 
REMARK    3  A    between atoms: C_4  and  N_5 
REMARK       I    between atoms: N_5  and  C_6 
REMARK    4  A    between atoms: C_6  and  C_7 
REMARK    5  A    between atoms: C_12  and  C_13 
REMARK    6  A    between atoms: C_22  and  C_23 
ROOT
HETATM    1  C   UNL     1       5.088  29.034  55.350  1.00  0.00     0.148 A 
HETATM    2  N   UNL     1       5.730  28.979  54.159  1.00  0.00    -0.165 NA
HETATM    3  N   UNL     1       5.883  27.661  53.951  1.00  0.00    -0.240 N 
HETATM    4  C   UNL     1       5.454  26.876  54.984  1.00  0.00     0.123 A 
HETATM    5  N   UNL     1       5.649  25.540  54.981  1.00  0.00    -0.366 N 
HETATM    6  C   UNL     1       6.331  24.856  53.885  1.00  0.00     0.118 C 
HETATM    7  C   UNL     1       7.253  25.828  53.119  1.00  0.00     0.066 C 
HETATM    8  C   UNL     1       6.532  27.139  52.765  1.00  0.00     0.221 C 
HETATM    9  C   UNL     1       4.882  27.731  55.887  1.00  0.00     0.088 A 
HETATM   10  H   UNL     1       5.194  24.942  55.671  1.00  0.00     0.161 HD
ENDROOT
BRANCH   1  11
HETATM   11  C   UNL     1       4.707  30.308  55.979  1.00  0.00     0.272 C 
HETATM   12  N   UNL     1       4.939  30.343  57.336  1.00  0.00    -0.354 N 
HETATM   13  H   UNL     1       5.207  29.458  57.757  1.00  0.00     0.162 HD
HETATM   14  O   UNL     1       4.207  31.239  55.353  1.00  0.00    -0.266 OA
BRANCH  12  15
HETATM   15  C   UNL     1       4.473  31.426  58.175  1.00  0.00     0.149 C 
BRANCH  15  16
HETATM   16  C   UNL     1       5.425  32.624  58.167  1.00  0.00     0.186 C 
BRANCH  16  17
HETATM   17  O   UNL     1       6.746  32.178  58.496  1.00  0.00    -0.394 OA
HETATM   18  C   UNL     1       6.918  32.055  59.901  1.00  0.00     0.201 C 
ENDBRANCH  16  17
ENDBRANCH  15  16
ENDBRANCH  12  15
ENDBRANCH   1  11
BRANCH   8  19
HETATM   19  C   UNL     1       5.515  26.961  51.659  1.00  0.00     0.409 C 
HETATM   20  F   UNL     1       5.714  25.833  50.944  1.00  0.00    -0.169 F 
HETATM   21  F   UNL     1       4.269  26.862  52.197  1.00  0.00    -0.169 F 
HETATM   22  F   UNL     1       5.476  27.996  50.795  1.00  0.00    -0.169 F 
ENDBRANCH   8  19
BRANCH   6  23
HETATM   23  C   UNL     1       7.137  23.691  54.439  1.00  0.00    -0.034 A 
HETATM   24  C   UNL     1       7.554  22.634  53.607  1.00  0.00     0.034 A 
HETATM   25  C   UNL     1       8.278  21.553  54.121  1.00  0.00     0.056 A 
HETATM   26 CL   UNL     1       8.752  20.307  53.022  1.00  0.00    -0.083 Cl
HETATM   27  C   UNL     1       8.590  21.513  55.482  1.00  0.00     0.055 A 
HETATM   28 CL   UNL     1       9.478  20.212  56.193  1.00  0.00    -0.083 Cl
HETATM   29  C   UNL     1       8.176  22.552  56.319  1.00  0.00     0.026 A 
HETATM   30  C   UNL     1       7.454  23.633  55.803  1.00  0.00     0.011 A 
ENDBRANCH   6  23
TORSDOF 6
ENDMDL
MODEL 10
REMARK VINA RESULT:      -7.9      4.928      8.418
REMARK  6 active torsions:
REMARK  status: ('A' for Active; 'I' for Inactive)
REMARK    1  A    between atoms: O_2  and  C_3 
REMARK    2  A    between atoms: C_3  and  C_4 
REMARK    3  A    between atoms: C_4  and  N_5 
REMARK       I    between atoms: N_5  and  C_6 
REMARK    4  A    between atoms: C_6  and  C_7 
REMARK    5  A    between atoms: C_12  and  C_13 
REMARK    6  A    between atoms: C_22  and  C_23 
ROOT
HETATM    1  C   UNL     1       6.601  25.489  54.996  1.00  0.00     0.148 A 
HETATM    2  N   UNL     1       5.384  26.071  55.114  1.00  0.00    -0.165 NA
HETATM    3  N   UNL     1       5.669  27.289  55.602  1.00  0.00    -0.240 N 
HETATM    4  C   UNL     1       6.991  27.485  55.886  1.00  0.00     0.123 A 
HETATM    5  N   UNL     1       7.421  28.611  56.494  1.00  0.00    -0.366 N 
HETATM    6  C   UNL     1       6.507  29.678  56.890  1.00  0.00     0.118 C 
HETATM    7  C   UNL     1       5.074  29.136  57.072  1.00  0.00     0.066 C 
HETATM    8  C   UNL     1       4.636  28.267  55.881  1.00  0.00     0.221 C 
HETATM    9  C   UNL     1       7.634  26.356  55.455  1.00  0.00     0.088 A 
HETATM   10  H   UNL     1       8.417  28.823  56.562  1.00  0.00     0.161 HD
ENDROOT
BRANCH   1  11
HETATM   11  C   UNL     1       6.772  24.120  54.487  1.00  0.00     0.272 C 
HETATM   12  N   UNL     1       7.286  23.246  55.420  1.00  0.00    -0.354 N 
HETATM   13  H   UNL     1       7.611  23.670  56.284  1.00  0.00     0.162 HD
HETATM   14  O   UNL     1       6.505  23.799  53.333  1.00  0.00    -0.266 OA
BRANCH  12  15
HETATM   15  C   UNL     1       7.700  21.902  55.078  1.00  0.00     0.149 C 
BRANCH  15  16
HETATM   16  C   UNL     1       9.141  21.847  54.565  1.00  0.00     0.186 C 
BRANCH  16  17
HETATM   17  O   UNL     1       9.189  21.040  53.382  1.00  0.00    -0.394 OA
HETATM   18  C   UNL     1       7.901  20.547  53.038  1.00  0.00     0.201 C 
ENDBRANCH  16  17
ENDBRANCH  15  16
ENDBRANCH  12  15
ENDBRANCH   1  11
BRANCH   8  19
HETATM   19  C   UNL     1       4.354  29.084  54.640  1.00  0.00     0.409 C 
HETATM   20  F   UNL     1       5.431  29.198  53.834  1.00  0.00    -0.169 F 
HETATM   21  F   UNL     1       3.384  28.476  53.905  1.00  0.00    -0.169 F 
HETATM   22  F   UNL     1       3.904  30.328  54.909  1.00  0.00    -0.169 F 
ENDBRANCH   8  19
BRANCH   6  23
HETATM   23  C   UNL     1       6.998  30.314  58.182  1.00  0.00    -0.034 A 
HETATM   24  C   UNL     1       6.297  31.377  58.783  1.00  0.00     0.034 A 
HETATM   25  C   UNL     1       6.761  31.972  59.961  1.00  0.00     0.056 A 
HETATM   26 CL   UNL     1       5.830  33.266  60.629  1.00  0.00    -0.083 Cl
HETATM   27  C   UNL     1       7.941  31.515  60.551  1.00  0.00     0.055 A 
HETATM   28 CL   UNL     1       8.581  32.201  62.002  1.00  0.00    -0.083 Cl
HETATM   29  C   UNL     1       8.651  30.465  59.960  1.00  0.00     0.026 A 
HETATM   30  C   UNL     1       8.184  29.869  58.784  1.00  0.00     0.011 A 
ENDBRANCH   6  23
TORSDOF 6
ENDMDL
