MODEL 1
REMARK VINA RESULT:      -9.5      0.000      0.000
REMARK  2 active torsions:
REMARK  status: ('A' for Active; 'I' for Inactive)
REMARK    1  A    between atoms: O_2  and  C_3 
REMARK    2  A    between atoms: C_4  and  N_5 
REMARK       I    between atoms: N_5  and  C_6 
REMARK       I    between atoms: C_6  and  N_7 
ROOT
HETATM    1  N   UNL     1       6.683  28.495  57.349  1.00  0.00    -0.306 N 
HETATM    2  C   UNL     1       7.101  28.183  56.078  1.00  0.00     0.323 C 
HETATM    3  N   UNL     1       7.478  26.849  55.934  1.00  0.00    -0.328 N 
HETATM    4  C   UNL     1       7.713  26.397  54.559  1.00  0.00     0.185 C 
HETATM    5  C   UNL     1       7.754  24.910  54.548  1.00  0.00     0.035 A 
HETATM    6  C   UNL     1       7.847  24.073  55.640  1.00  0.00    -0.020 A 
HETATM    7  C   UNL     1       7.870  24.615  57.026  1.00  0.00     0.061 C 
HETATM    8  C   UNL     1       8.205  26.118  57.000  1.00  0.00     0.132 C 
HETATM    9  N   UNL     1       7.718  24.135  53.422  1.00  0.00    -0.357 N 
HETATM   10  H   UNL     1       7.643  24.475  52.473  1.00  0.00     0.166 HD
HETATM   11  C   UNL     1       7.797  22.803  53.770  1.00  0.00     0.043 A 
HETATM   12  C   UNL     1       7.883  22.737  55.164  1.00  0.00    -0.001 A 
HETATM   13  C   UNL     1       7.796  21.659  52.962  1.00  0.00     0.030 A 
HETATM   14  C   UNL     1       7.890  20.417  53.595  1.00  0.00     0.002 A 
HETATM   15  C   UNL     1       7.980  20.322  54.982  1.00  0.00     0.001 A 
HETATM   16  C   UNL     1       7.975  21.473  55.778  1.00  0.00     0.014 A 
HETATM   17  O   UNL     1       7.092  28.964  55.131  1.00  0.00    -0.247 OA
HETATM   18  H   UNL     1       6.314  27.721  57.885  1.00  0.00     0.171 HD
ENDROOT
BRANCH   1  19
HETATM   19  C   UNL     1       6.354  29.768  57.853  1.00  0.00     0.071 A 
HETATM   20  C   UNL     1       7.298  30.396  58.682  1.00  0.00     0.095 A 
HETATM   21  C   UNL     1       7.084  31.684  59.175  1.00  0.00     0.041 A 
HETATM   22  C   UNL     1       5.898  32.345  58.861  1.00  0.00     0.026 A 
HETATM   23  C   UNL     1       4.947  31.719  58.054  1.00  0.00     0.036 A 
HETATM   24  C   UNL     1       5.167  30.436  57.546  1.00  0.00     0.056 A 
HETATM   25 CL   UNL     1       3.490  32.551  57.665  1.00  0.00    -0.084 Cl
BRANCH  20  26
HETATM   26  O   UNL     1       8.464  29.731  58.979  1.00  0.00    -0.354 OA
HETATM   27  C   UNL     1       9.587  30.473  58.497  1.00  0.00     0.210 C 
ENDBRANCH  20  26
ENDBRANCH   1  19
TORSDOF 2
ENDMDL
MODEL 2
REMARK VINA RESULT:      -9.2      1.971      2.995
REMARK  2 active torsions:
REMARK  status: ('A' for Active; 'I' for Inactive)
REMARK    1  A    between atoms: O_2  and  C_3 
REMARK    2  A    between atoms: C_4  and  N_5 
REMARK       I    between atoms: N_5  and  C_6 
REMARK       I    between atoms: C_6  and  N_7 
ROOT
HETATM    1  N   UNL     1       7.550  28.015  56.875  1.00  0.00    -0.306 N 
HETATM    2  C   UNL     1       7.542  26.802  57.518  1.00  0.00     0.323 C 
HETATM    3  N   UNL     1       7.458  25.717  56.648  1.00  0.00    -0.328 N 
HETATM    4  C   UNL     1       7.675  24.398  57.250  1.00  0.00     0.185 C 
HETATM    5  C   UNL     1       7.901  23.410  56.161  1.00  0.00     0.035 A 
HETATM    6  C   UNL     1       7.675  23.593  54.812  1.00  0.00    -0.020 A 
HETATM    7  C   UNL     1       7.194  24.898  54.282  1.00  0.00     0.061 C 
HETATM    8  C   UNL     1       6.618  25.753  55.427  1.00  0.00     0.132 C 
HETATM    9  N   UNL     1       8.367  22.138  56.343  1.00  0.00    -0.357 N 
HETATM   10  H   UNL     1       8.628  21.725  57.228  1.00  0.00     0.166 HD
HETATM   11  C   UNL     1       8.437  21.488  55.129  1.00  0.00     0.043 A 
HETATM   12  C   UNL     1       8.001  22.383  54.147  1.00  0.00    -0.001 A 
HETATM   13  C   UNL     1       8.852  20.184  54.827  1.00  0.00     0.030 A 
HETATM   14  C   UNL     1       8.816  19.785  53.488  1.00  0.00     0.002 A 
HETATM   15  C   UNL     1       8.384  20.655  52.490  1.00  0.00     0.001 A 
HETATM   16  C   UNL     1       7.976  21.957  52.805  1.00  0.00     0.014 A 
HETATM   17  O   UNL     1       7.661  26.657  58.732  1.00  0.00    -0.247 OA
HETATM   18  H   UNL     1       7.897  27.999  55.925  1.00  0.00     0.171 HD
ENDROOT
BRANCH   1  19
HETATM   19  C   UNL     1       7.506  29.296  57.461  1.00  0.00     0.071 A 
HETATM   20  C   UNL     1       6.281  29.983  57.413  1.00  0.00     0.095 A 
HETATM   21  C   UNL     1       6.127  31.228  58.023  1.00  0.00     0.041 A 
HETATM   22  C   UNL     1       7.218  31.812  58.665  1.00  0.00     0.026 A 
HETATM   23  C   UNL     1       8.444  31.143  58.698  1.00  0.00     0.036 A 
HETATM   24  C   UNL     1       8.594  29.888  58.103  1.00  0.00     0.056 A 
HETATM   25 CL   UNL     1       9.781  31.871  59.503  1.00  0.00    -0.084 Cl
BRANCH  20  26
HETATM   26  O   UNL     1       5.214  29.391  56.779  1.00  0.00    -0.354 OA
HETATM   27  C   UNL     1       4.015  30.121  57.055  1.00  0.00     0.210 C 
ENDBRANCH  20  26
ENDBRANCH   1  19
TORSDOF 2
ENDMDL
MODEL 3
REMARK VINA RESULT:      -9.1      1.435      2.159
REMARK  2 active torsions:
REMARK  status: ('A' for Active; 'I' for Inactive)
REMARK    1  A    between atoms: O_2  and  C_3 
REMARK    2  A    between atoms: C_4  and  N_5 
REMARK       I    between atoms: N_5  and  C_6 
REMARK       I    between atoms: C_6  and  N_7 
ROOT
HETATM    1  N   UNL     1       6.966  28.612  57.510  1.00  0.00    -0.306 N 
HETATM    2  C   UNL     1       7.330  28.305  56.221  1.00  0.00     0.323 C 
HETATM    3  N   UNL     1       7.658  26.962  56.047  1.00  0.00    -0.328 N 
HETATM    4  C   UNL     1       7.830  26.523  54.659  1.00  0.00     0.185 C 
HETATM    5  C   UNL     1       7.823  25.035  54.627  1.00  0.00     0.035 A 
HETATM    6  C   UNL     1       7.927  24.180  55.704  1.00  0.00    -0.020 A 
HETATM    7  C   UNL     1       8.016  24.701  57.095  1.00  0.00     0.061 C 
HETATM    8  C   UNL     1       8.398  26.194  57.076  1.00  0.00     0.132 C 
HETATM    9  N   UNL     1       7.723  24.278  53.493  1.00  0.00    -0.357 N 
HETATM   10  H   UNL     1       7.625  24.633  52.552  1.00  0.00     0.166 HD
HETATM   11  C   UNL     1       7.771  22.938  53.821  1.00  0.00     0.043 A 
HETATM   12  C   UNL     1       7.904  22.850  55.209  1.00  0.00    -0.001 A 
HETATM   13  C   UNL     1       7.705  21.807  52.998  1.00  0.00     0.030 A 
HETATM   14  C   UNL     1       7.781  20.553  53.611  1.00  0.00     0.002 A 
HETATM   15  C   UNL     1       7.916  20.436  54.993  1.00  0.00     0.001 A 
HETATM   16  C   UNL     1       7.976  21.575  55.803  1.00  0.00     0.014 A 
HETATM   17  O   UNL     1       7.312  29.099  55.285  1.00  0.00    -0.247 OA
HETATM   18  H   UNL     1       6.591  27.843  58.048  1.00  0.00     0.171 HD
ENDROOT
BRANCH   1  19
HETATM   19  C   UNL     1       6.696  29.888  58.042  1.00  0.00     0.071 A 
HETATM   20  C   UNL     1       5.432  30.442  57.775  1.00  0.00     0.095 A 
HETATM   21  C   UNL     1       5.054  31.671  58.314  1.00  0.00     0.041 A 
HETATM   22  C   UNL     1       5.959  32.375  59.107  1.00  0.00     0.026 A 
HETATM   23  C   UNL     1       7.224  31.840  59.358  1.00  0.00     0.036 A 
HETATM   24  C   UNL     1       7.597  30.601  58.834  1.00  0.00     0.056 A 
HETATM   25 CL   UNL     1       8.329  32.716  60.348  1.00  0.00    -0.084 Cl
BRANCH  20  26
HETATM   26  O   UNL     1       4.550  29.732  56.994  1.00  0.00    -0.354 OA
HETATM   27  C   UNL     1       3.293  30.411  56.937  1.00  0.00     0.210 C 
ENDBRANCH  20  26
ENDBRANCH   1  19
TORSDOF 2
ENDMDL
MODEL 4
REMARK VINA RESULT:      -8.9      2.458      3.403
REMARK  2 active torsions:
REMARK  status: ('A' for Active; 'I' for Inactive)
REMARK    1  A    between atoms: O_2  and  C_3 
REMARK    2  A    between atoms: C_4  and  N_5 
REMARK       I    between atoms: N_5  and  C_6 
REMARK       I    between atoms: C_6  and  N_7 
ROOT
HETATM    1  N   UNL     1       5.490  28.316  55.028  1.00  0.00    -0.306 N 
HETATM    2  C   UNL     1       6.356  27.808  54.092  1.00  0.00     0.323 C 
HETATM    3  N   UNL     1       6.878  26.563  54.442  1.00  0.00    -0.328 N 
HETATM    4  C   UNL     1       7.624  25.866  53.389  1.00  0.00     0.185 C 
HETATM    5  C   UNL     1       7.800  24.446  53.794  1.00  0.00     0.035 A 
HETATM    6  C   UNL     1       7.575  23.902  55.042  1.00  0.00    -0.020 A 
HETATM    7  C   UNL     1       7.058  24.735  56.162  1.00  0.00     0.061 C 
HETATM    8  C   UNL     1       7.243  26.230  55.839  1.00  0.00     0.132 C 
HETATM    9  N   UNL     1       8.235  23.445  52.969  1.00  0.00    -0.357 N 
HETATM   10  H   UNL     1       8.470  23.546  51.992  1.00  0.00     0.166 HD
HETATM   11  C   UNL     1       8.305  22.259  53.671  1.00  0.00     0.043 A 
HETATM   12  C   UNL     1       7.898  22.522  54.982  1.00  0.00    -0.001 A 
HETATM   13  C   UNL     1       8.693  20.983  53.245  1.00  0.00     0.030 A 
HETATM   14  C   UNL     1       8.668  19.950  54.186  1.00  0.00     0.002 A 
HETATM   15  C   UNL     1       8.269  20.183  55.500  1.00  0.00     0.001 A 
HETATM   16  C   UNL     1       7.880  21.463  55.910  1.00  0.00     0.014 A 
HETATM   17  O   UNL     1       6.613  28.344  53.017  1.00  0.00    -0.247 OA
HETATM   18  H   UNL     1       5.025  27.628  55.606  1.00  0.00     0.171 HD
ENDROOT
BRANCH   1  19
HETATM   19  C   UNL     1       4.890  29.590  55.037  1.00  0.00     0.071 A 
HETATM   20  C   UNL     1       3.791  29.791  54.184  1.00  0.00     0.095 A 
HETATM   21  C   UNL     1       3.096  31.000  54.173  1.00  0.00     0.041 A 
HETATM   22  C   UNL     1       3.519  32.037  55.003  1.00  0.00     0.026 A 
HETATM   23  C   UNL     1       4.623  31.851  55.838  1.00  0.00     0.036 A 
HETATM   24  C   UNL     1       5.309  30.634  55.863  1.00  0.00     0.056 A 
HETATM   25 CL   UNL     1       5.129  33.137  56.866  1.00  0.00    -0.084 Cl
BRANCH  20  26
HETATM   26  O   UNL     1       3.386  28.756  53.373  1.00  0.00    -0.354 OA
HETATM   27  C   UNL     1       3.164  29.235  52.044  1.00  0.00     0.210 C 
ENDBRANCH  20  26
ENDBRANCH   1  19
TORSDOF 2
ENDMDL
MODEL 5
REMARK VINA RESULT:      -8.7      3.133      8.374
REMARK  2 active torsions:
REMARK  status: ('A' for Active; 'I' for Inactive)
REMARK    1  A    between atoms: O_2  and  C_3 
REMARK    2  A    between atoms: C_4  and  N_5 
REMARK       I    between atoms: N_5  and  C_6 
REMARK       I    between atoms: C_6  and  N_7 
ROOT
HETATM    1  N   UNL     1       6.089  27.905  54.867  1.00  0.00    -0.306 N 
HETATM    2  C   UNL     1       7.341  28.356  55.206  1.00  0.00     0.323 C 
HETATM    3  N   UNL     1       7.331  29.264  56.263  1.00  0.00    -0.328 N 
HETATM    4  C   UNL     1       8.643  29.607  56.821  1.00  0.00     0.185 C 
HETATM    5  C   UNL     1       8.440  30.285  58.129  1.00  0.00     0.035 A 
HETATM    6  C   UNL     1       7.256  30.782  58.634  1.00  0.00    -0.020 A 
HETATM    7  C   UNL     1       5.978  30.634  57.885  1.00  0.00     0.061 C 
HETATM    8  C   UNL     1       6.267  30.285  56.412  1.00  0.00     0.132 C 
HETATM    9  N   UNL     1       9.426  30.534  59.043  1.00  0.00    -0.357 N 
HETATM   10  H   UNL     1      10.399  30.275  58.948  1.00  0.00     0.166 HD
HETATM   11  C   UNL     1       8.898  31.197  60.132  1.00  0.00     0.043 A 
HETATM   12  C   UNL     1       7.531  31.369  59.896  1.00  0.00    -0.001 A 
HETATM   13  C   UNL     1       9.523  31.652  61.300  1.00  0.00     0.030 A 
HETATM   14  C   UNL     1       8.730  32.303  62.248  1.00  0.00     0.002 A 
HETATM   15  C   UNL     1       7.366  32.490  62.039  1.00  0.00     0.001 A 
HETATM   16  C   UNL     1       6.753  32.026  60.868  1.00  0.00     0.014 A 
HETATM   17  O   UNL     1       8.385  27.966  54.690  1.00  0.00    -0.247 OA
HETATM   18  H   UNL     1       5.403  27.931  55.610  1.00  0.00     0.171 HD
ENDROOT
BRANCH   1  19
HETATM   19  C   UNL     1       5.741  27.082  53.778  1.00  0.00     0.071 A 
HETATM   20  C   UNL     1       5.491  25.726  54.049  1.00  0.00     0.095 A 
HETATM   21  C   UNL     1       5.079  24.852  53.043  1.00  0.00     0.041 A 
HETATM   22  C   UNL     1       4.943  25.328  51.740  1.00  0.00     0.026 A 
HETATM   23  C   UNL     1       5.210  26.669  51.460  1.00  0.00     0.036 A 
HETATM   24  C   UNL     1       5.605  27.550  52.470  1.00  0.00     0.056 A 
HETATM   25 CL   UNL     1       5.028  27.247  49.848  1.00  0.00    -0.084 Cl
BRANCH  20  26
HETATM   26  O   UNL     1       5.628  25.274  55.341  1.00  0.00    -0.354 OA
HETATM   27  C   UNL     1       6.726  24.361  55.425  1.00  0.00     0.210 C 
ENDBRANCH  20  26
ENDBRANCH   1  19
TORSDOF 2
ENDMDL
MODEL 6
REMARK VINA RESULT:      -8.7      1.937      2.639
REMARK  2 active torsions:
REMARK  status: ('A' for Active; 'I' for Inactive)
REMARK    1  A    between atoms: O_2  and  C_3 
REMARK    2  A    between atoms: C_4  and  N_5 
REMARK       I    between atoms: N_5  and  C_6 
REMARK       I    between atoms: C_6  and  N_7 
ROOT
HETATM    1  N   UNL     1       5.516  28.200  55.371  1.00  0.00    -0.306 N 
HETATM    2  C   UNL     1       5.581  27.144  56.246  1.00  0.00     0.323 C 
HETATM    3  N   UNL     1       5.904  25.937  55.628  1.00  0.00    -0.328 N 
HETATM    4  C   UNL     1       6.214  24.823  56.530  1.00  0.00     0.185 C 
HETATM    5  C   UNL     1       6.865  23.742  55.742  1.00  0.00     0.035 A 
HETATM    6  C   UNL     1       6.929  23.637  54.368  1.00  0.00    -0.020 A 
HETATM    7  C   UNL     1       6.353  24.690  53.488  1.00  0.00     0.061 C 
HETATM    8  C   UNL     1       5.379  25.574  54.290  1.00  0.00     0.132 C 
HETATM    9  N   UNL     1       7.502  22.658  56.280  1.00  0.00    -0.357 N 
HETATM   10  H   UNL     1       7.621  22.471  57.265  1.00  0.00     0.166 HD
HETATM   11  C   UNL     1       7.971  21.844  55.269  1.00  0.00     0.043 A 
HETATM   12  C   UNL     1       7.619  22.437  54.053  1.00  0.00    -0.001 A 
HETATM   13  C   UNL     1       8.678  20.636  55.340  1.00  0.00     0.030 A 
HETATM   14  C   UNL     1       9.028  20.019  54.136  1.00  0.00     0.002 A 
HETATM   15  C   UNL     1       8.688  20.586  52.911  1.00  0.00     0.001 A 
HETATM   16  C   UNL     1       7.985  21.796  52.855  1.00  0.00     0.014 A 
HETATM   17  O   UNL     1       5.439  27.238  57.462  1.00  0.00    -0.247 OA
HETATM   18  H   UNL     1       6.071  28.102  54.531  1.00  0.00     0.171 HD
ENDROOT
BRANCH   1  19
HETATM   19  C   UNL     1       5.101  29.518  55.649  1.00  0.00     0.071 A 
HETATM   20  C   UNL     1       6.030  30.366  56.275  1.00  0.00     0.095 A 
HETATM   21  C   UNL     1       5.728  31.704  56.530  1.00  0.00     0.041 A 
HETATM   22  C   UNL     1       4.472  32.198  56.184  1.00  0.00     0.026 A 
HETATM   23  C   UNL     1       3.537  31.354  55.580  1.00  0.00     0.036 A 
HETATM   24  C   UNL     1       3.844  30.019  55.307  1.00  0.00     0.056 A 
HETATM   25 CL   UNL     1       1.992  31.980  55.147  1.00  0.00    -0.084 Cl
BRANCH  20  26
HETATM   26  O   UNL     1       7.266  29.864  56.607  1.00  0.00    -0.354 OA
HETATM   27  C   UNL     1       7.523  30.078  57.998  1.00  0.00     0.210 C 
ENDBRANCH  20  26
ENDBRANCH   1  19
TORSDOF 2
ENDMDL
MODEL 7
REMARK VINA RESULT:      -8.6      3.247      8.328
REMARK  2 active torsions:
REMARK  status: ('A' for Active; 'I' for Inactive)
REMARK    1  A    between atoms: O_2  and  C_3 
REMARK    2  A    between atoms: C_4  and  N_5 
REMARK       I    between atoms: N_5  and  C_6 
REMARK       I    between atoms: C_6  and  N_7 
ROOT
HETATM    1  N   UNL     1       6.227  27.853  54.282  1.00  0.00    -0.306 N 
HETATM    2  C   UNL     1       5.428  28.564  55.144  1.00  0.00     0.323 C 
HETATM    3  N   UNL     1       6.070  28.909  56.332  1.00  0.00    -0.328 N 
HETATM    4  C   UNL     1       5.355  29.858  57.191  1.00  0.00     0.185 C 
HETATM    5  C   UNL     1       6.302  30.382  58.211  1.00  0.00     0.035 A 
HETATM    6  C   UNL     1       7.553  29.887  58.517  1.00  0.00    -0.020 A 
HETATM    7  C   UNL     1       8.127  28.733  57.773  1.00  0.00     0.061 C 
HETATM    8  C   UNL     1       7.013  27.989  57.012  1.00  0.00     0.132 C 
HETATM    9  N   UNL     1       6.060  31.453  59.026  1.00  0.00    -0.357 N 
HETATM   10  H   UNL     1       5.225  32.022  59.022  1.00  0.00     0.166 HD
HETATM   11  C   UNL     1       7.136  31.654  59.866  1.00  0.00     0.043 A 
HETATM   12  C   UNL     1       8.090  30.676  59.568  1.00  0.00    -0.001 A 
HETATM   13  C   UNL     1       7.336  32.621  60.859  1.00  0.00     0.030 A 
HETATM   14  C   UNL     1       8.540  32.584  61.567  1.00  0.00     0.002 A 
HETATM   15  C   UNL     1       9.507  31.620  61.292  1.00  0.00     0.001 A 
HETATM   16  C   UNL     1       9.295  30.662  60.294  1.00  0.00     0.014 A 
HETATM   17  O   UNL     1       4.283  28.928  54.892  1.00  0.00    -0.247 OA
HETATM   18  H   UNL     1       7.221  28.006  54.388  1.00  0.00     0.171 HD
ENDROOT
BRANCH   1  19
HETATM   19  C   UNL     1       5.852  27.255  53.063  1.00  0.00     0.071 A 
HETATM   20  C   UNL     1       5.502  25.895  53.094  1.00  0.00     0.095 A 
HETATM   21  C   UNL     1       5.056  25.237  51.948  1.00  0.00     0.041 A 
HETATM   22  C   UNL     1       4.986  25.936  50.745  1.00  0.00     0.026 A 
HETATM   23  C   UNL     1       5.352  27.283  50.702  1.00  0.00     0.036 A 
HETATM   24  C   UNL     1       5.781  27.948  51.854  1.00  0.00     0.056 A 
HETATM   25 CL   UNL     1       5.251  28.139  49.211  1.00  0.00    -0.084 Cl
BRANCH  20  26
HETATM   26  O   UNL     1       5.574  25.220  54.291  1.00  0.00    -0.354 OA
HETATM   27  C   UNL     1       6.595  24.221  54.228  1.00  0.00     0.210 C 
ENDBRANCH  20  26
ENDBRANCH   1  19
TORSDOF 2
ENDMDL
MODEL 8
REMARK VINA RESULT:      -8.6      3.015      9.079
REMARK  2 active torsions:
REMARK  status: ('A' for Active; 'I' for Inactive)
REMARK    1  A    between atoms: O_2  and  C_3 
REMARK    2  A    between atoms: C_4  and  N_5 
REMARK       I    between atoms: N_5  and  C_6 
REMARK       I    between atoms: C_6  and  N_7 
ROOT
HETATM    1  N   UNL     1       7.004  27.629  56.270  1.00  0.00    -0.306 N 
HETATM    2  C   UNL     1       7.962  28.206  57.067  1.00  0.00     0.323 C 
HETATM    3  N   UNL     1       7.538  29.390  57.668  1.00  0.00    -0.328 N 
HETATM    4  C   UNL     1       8.423  29.931  58.704  1.00  0.00     0.185 C 
HETATM    5  C   UNL     1       7.678  30.965  59.473  1.00  0.00     0.035 A 
HETATM    6  C   UNL     1       6.475  31.547  59.133  1.00  0.00    -0.020 A 
HETATM    7  C   UNL     1       5.739  31.135  57.906  1.00  0.00     0.061 C 
HETATM    8  C   UNL     1       6.681  30.369  56.958  1.00  0.00     0.132 C 
HETATM    9  N   UNL     1       8.095  31.513  60.654  1.00  0.00    -0.357 N 
HETATM   10  H   UNL     1       8.941  31.273  61.151  1.00  0.00     0.166 HD
HETATM   11  C   UNL     1       7.180  32.453  61.081  1.00  0.00     0.043 A 
HETATM   12  C   UNL     1       6.151  32.497  60.136  1.00  0.00    -0.001 A 
HETATM   13  C   UNL     1       7.186  33.261  62.225  1.00  0.00     0.030 A 
HETATM   14  C   UNL     1       6.113  34.139  62.405  1.00  0.00     0.002 A 
HETATM   15  C   UNL     1       5.075  34.205  61.478  1.00  0.00     0.001 A 
HETATM   16  C   UNL     1       5.080  33.388  60.341  1.00  0.00     0.014 A 
HETATM   17  O   UNL     1       9.065  27.717  57.296  1.00  0.00    -0.247 OA
HETATM   18  H   UNL     1       6.048  27.854  56.511  1.00  0.00     0.171 HD
ENDROOT
BRANCH   1  19
HETATM   19  C   UNL     1       7.150  26.504  55.434  1.00  0.00     0.071 A 
HETATM   20  C   UNL     1       7.322  26.741  54.060  1.00  0.00     0.095 A 
HETATM   21  C   UNL     1       7.538  25.691  53.168  1.00  0.00     0.041 A 
HETATM   22  C   UNL     1       7.552  24.382  53.646  1.00  0.00     0.026 A 
HETATM   23  C   UNL     1       7.361  24.139  55.007  1.00  0.00     0.036 A 
HETATM   24  C   UNL     1       7.163  25.190  55.905  1.00  0.00     0.056 A 
HETATM   25 CL   UNL     1       7.391  22.517  55.587  1.00  0.00    -0.084 Cl
BRANCH  20  26
HETATM   26  O   UNL     1       7.308  28.039  53.606  1.00  0.00    -0.354 OA
HETATM   27  C   UNL     1       6.153  28.259  52.791  1.00  0.00     0.210 C 
ENDBRANCH  20  26
ENDBRANCH   1  19
TORSDOF 2
ENDMDL
MODEL 9
REMARK VINA RESULT:      -8.6      3.539      9.463
REMARK  2 active torsions:
REMARK  status: ('A' for Active; 'I' for Inactive)
REMARK    1  A    between atoms: O_2  and  C_3 
REMARK    2  A    between atoms: C_4  and  N_5 
REMARK       I    between atoms: N_5  and  C_6 
REMARK       I    between atoms: C_6  and  N_7 
ROOT
HETATM    1  N   UNL     1       6.667  29.029  57.141  1.00  0.00    -0.306 N 
HETATM    2  C   UNL     1       7.727  29.274  57.978  1.00  0.00     0.323 C 
HETATM    3  N   UNL     1       7.502  30.332  58.857  1.00  0.00    -0.328 N 
HETATM    4  C   UNL     1       8.494  30.497  59.924  1.00  0.00     0.185 C 
HETATM    5  C   UNL     1       7.936  31.415  60.953  1.00  0.00     0.035 A 
HETATM    6  C   UNL     1       6.819  32.215  60.836  1.00  0.00    -0.020 A 
HETATM    7  C   UNL     1       5.986  32.199  59.602  1.00  0.00     0.061 C 
HETATM    8  C   UNL     1       6.771  31.554  58.444  1.00  0.00     0.132 C 
HETATM    9  N   UNL     1       8.472  31.615  62.195  1.00  0.00    -0.357 N 
HETATM   10  H   UNL     1       9.292  31.156  62.566  1.00  0.00     0.166 HD
HETATM   11  C   UNL     1       7.720  32.545  62.884  1.00  0.00     0.043 A 
HETATM   12  C   UNL     1       6.673  32.942  62.046  1.00  0.00    -0.001 A 
HETATM   13  C   UNL     1       7.885  33.058  64.176  1.00  0.00     0.030 A 
HETATM   14  C   UNL     1       6.958  34.005  64.621  1.00  0.00     0.002 A 
HETATM   15  C   UNL     1       5.908  34.421  63.807  1.00  0.00     0.001 A 
HETATM   16  C   UNL     1       5.752  33.896  62.519  1.00  0.00     0.014 A 
HETATM   17  O   UNL     1       8.755  28.603  58.015  1.00  0.00    -0.247 OA
HETATM   18  H   UNL     1       5.763  29.317  57.491  1.00  0.00     0.171 HD
ENDROOT
BRANCH   1  19
HETATM   19  C   UNL     1       6.616  28.119  56.067  1.00  0.00     0.071 A 
HETATM   20  C   UNL     1       5.955  28.536  54.899  1.00  0.00     0.095 A 
HETATM   21  C   UNL     1       5.912  27.726  53.765  1.00  0.00     0.041 A 
HETATM   22  C   UNL     1       6.509  26.467  53.803  1.00  0.00     0.026 A 
HETATM   23  C   UNL     1       7.150  26.038  54.967  1.00  0.00     0.036 A 
HETATM   24  C   UNL     1       7.210  26.856  56.098  1.00  0.00     0.056 A 
HETATM   25 CL   UNL     1       7.894  24.485  54.997  1.00  0.00    -0.084 Cl
BRANCH  20  26
HETATM   26  O   UNL     1       5.373  29.782  54.878  1.00  0.00    -0.354 OA
HETATM   27  C   UNL     1       3.964  29.659  54.668  1.00  0.00     0.210 C 
ENDBRANCH  20  26
ENDBRANCH   1  19
TORSDOF 2
ENDMDL
MODEL 10
REMARK VINA RESULT:      -8.4      3.792      4.728
REMARK  2 active torsions:
REMARK  status: ('A' for Active; 'I' for Inactive)
REMARK    1  A    between atoms: O_2  and  C_3 
REMARK    2  A    between atoms: C_4  and  N_5 
REMARK       I    between atoms: N_5  and  C_6 
REMARK       I    between atoms: C_6  and  N_7 
ROOT
HETATM    1  N   UNL     1       4.639  27.738  52.901  1.00  0.00    -0.306 N 
HETATM    2  C   UNL     1       5.603  27.069  52.187  1.00  0.00     0.323 C 
HETATM    3  N   UNL     1       6.232  26.064  52.919  1.00  0.00    -0.328 N 
HETATM    4  C   UNL     1       7.102  25.166  52.152  1.00  0.00     0.185 C 
HETATM    5  C   UNL     1       7.403  23.971  52.986  1.00  0.00     0.035 A 
HETATM    6  C   UNL     1       7.170  23.819  54.337  1.00  0.00    -0.020 A 
HETATM    7  C   UNL     1       6.509  24.892  55.129  1.00  0.00     0.061 C 
HETATM    8  C   UNL     1       6.555  26.224  54.357  1.00  0.00     0.132 C 
HETATM    9  N   UNL     1       7.983  22.822  52.524  1.00  0.00    -0.357 N 
HETATM   10  H   UNL     1       8.258  22.642  51.569  1.00  0.00     0.166 HD
HETATM   11  C   UNL     1       8.139  21.928  53.563  1.00  0.00     0.043 A 
HETATM   12  C   UNL     1       7.638  22.535  54.719  1.00  0.00    -0.001 A 
HETATM   13  C   UNL     1       8.680  20.636  53.566  1.00  0.00     0.030 A 
HETATM   14  C   UNL     1       8.713  19.950  54.783  1.00  0.00     0.002 A 
HETATM   15  C   UNL     1       8.223  20.531  55.950  1.00  0.00     0.001 A 
HETATM   16  C   UNL     1       7.681  21.821  55.931  1.00  0.00     0.014 A 
HETATM   17  O   UNL     1       5.859  27.272  51.003  1.00  0.00    -0.247 OA
HETATM   18  H   UNL     1       4.219  27.215  53.657  1.00  0.00     0.171 HD
ENDROOT
BRANCH   1  19
HETATM   19  C   UNL     1       3.910  28.875  52.498  1.00  0.00     0.071 A 
HETATM   20  C   UNL     1       3.970  30.006  53.330  1.00  0.00     0.095 A 
HETATM   21  C   UNL     1       3.332  31.195  52.979  1.00  0.00     0.041 A 
HETATM   22  C   UNL     1       2.597  31.251  51.796  1.00  0.00     0.026 A 
HETATM   23  C   UNL     1       2.517  30.124  50.975  1.00  0.00     0.036 A 
HETATM   24  C   UNL     1       3.170  28.938  51.317  1.00  0.00     0.056 A 
HETATM   25 CL   UNL     1       1.615  30.210  49.510  1.00  0.00    -0.084 Cl
BRANCH  20  26
HETATM   26  O   UNL     1       4.701  29.934  54.493  1.00  0.00    -0.354 OA
HETATM   27  C   UNL     1       3.843  30.119  55.622  1.00  0.00     0.210 C 
ENDBRANCH  20  26
ENDBRANCH   1  19
TORSDOF 2
ENDMDL
