MODEL 1
REMARK VINA RESULT:      -8.6      0.000      0.000
REMARK  4 active torsions:
REMARK  status: ('A' for Active; 'I' for Inactive)
REMARK    1  A    between atoms: C_5  and  C_6 
REMARK    2  A    between atoms: C_6  and  N_7 
REMARK    3  A    between atoms: C_6  and  C_18 
REMARK    4  A    between atoms: N_7  and  C_8 
ROOT
HETATM    1  C   UNL     1       7.852  25.221  54.988  1.00  0.00     0.288 C 
ENDROOT
BRANCH   1   2
HETATM    2  C   UNL     1       8.051  23.814  55.523  1.00  0.00    -0.003 A 
HETATM    3  C   UNL     1       8.250  23.599  56.886  1.00  0.00     0.126 A 
HETATM    4  N   UNL     1       8.403  22.383  57.453  1.00  0.00    -0.272 NA
HETATM    5  C   UNL     1       8.394  21.318  56.624  1.00  0.00     0.116 A 
HETATM    6  C   UNL     1       8.221  21.414  55.255  1.00  0.00     0.020 A 
HETATM    7  C   UNL     1       8.041  22.679  54.701  1.00  0.00     0.012 A 
ENDBRANCH   1   2
BRANCH   1   8
HETATM    8  N   UNL     1       7.426  26.118  56.089  1.00  0.00     0.101 N 
HETATM    9  H   UNL     1       8.154  26.100  56.798  1.00  0.00     0.317 HD
BRANCH   8  10
HETATM   10  C   UNL     1       7.025  27.474  55.694  1.00  0.00     0.225 C 
HETATM   11  C   UNL     1       8.169  28.364  55.161  1.00  0.00     0.069 C 
HETATM   12  C   UNL     1       9.129  28.751  56.270  1.00  0.00     0.190 C 
HETATM   13  N   UNL     1       8.358  29.467  57.347  1.00  0.00    -0.067 N 
HETATM   14  C   UNL     1      10.190  29.780  55.936  1.00  0.00     0.035 C 
HETATM   15  H   UNL     1       7.860  30.258  56.913  1.00  0.00     0.280 HD
HETATM   16  C   UNL     1       7.325  28.597  57.992  1.00  0.00     0.237 C 
HETATM   17  C   UNL     1       9.407  30.078  58.240  1.00  0.00     0.235 C 
HETATM   18  C   UNL     1       6.347  28.147  56.910  1.00  0.00     0.063 C 
HETATM   19  C   UNL     1      10.604  30.300  57.313  1.00  0.00     0.030 C 
ENDBRANCH   8  10
ENDBRANCH   1   8
BRANCH   1  20
HETATM   20  C   UNL     1       6.941  25.244  53.767  1.00  0.00    -0.021 A 
HETATM   21  C   UNL     1       5.574  24.938  53.918  1.00  0.00     0.012 A 
HETATM   22  C   UNL     1       4.713  24.964  52.820  1.00  0.00     0.043 A 
HETATM   23  C   UNL     1       5.206  25.303  51.568  1.00  0.00     0.116 A 
HETATM   24  F   UNL     1       4.380  25.324  50.515  1.00  0.00    -0.206 F 
HETATM   25  C   UNL     1       6.547  25.623  51.393  1.00  0.00     0.043 A 
HETATM   26  C   UNL     1       7.411  25.598  52.489  1.00  0.00     0.012 A 
ENDBRANCH   1  20
TORSDOF 4
ENDMDL
MODEL 2
REMARK VINA RESULT:      -8.6      2.520      4.689
REMARK  4 active torsions:
REMARK  status: ('A' for Active; 'I' for Inactive)
REMARK    1  A    between atoms: C_5  and  C_6 
REMARK    2  A    between atoms: C_6  and  N_7 
REMARK    3  A    between atoms: C_6  and  C_18 
REMARK    4  A    between atoms: N_7  and  C_8 
ROOT
HETATM    1  C   UNL     1       6.523  24.356  54.799  1.00  0.00     0.288 C 
ENDROOT
BRANCH   1   2
HETATM    2  C   UNL     1       6.143  25.079  53.519  1.00  0.00    -0.003 A 
HETATM    3  C   UNL     1       6.814  26.239  53.139  1.00  0.00     0.126 A 
HETATM    4  N   UNL     1       6.565  26.927  52.003  1.00  0.00    -0.272 NA
HETATM    5  C   UNL     1       5.573  26.465  51.215  1.00  0.00     0.116 A 
HETATM    6  C   UNL     1       4.831  25.334  51.501  1.00  0.00     0.020 A 
HETATM    7  C   UNL     1       5.125  24.630  52.666  1.00  0.00     0.012 A 
ENDBRANCH   1   2
BRANCH   1   8
HETATM    8  N   UNL     1       7.239  25.287  55.704  1.00  0.00     0.101 N 
HETATM    9  H   UNL     1       7.507  26.101  55.157  1.00  0.00     0.317 HD
BRANCH   8  10
HETATM   10  C   UNL     1       6.550  25.623  56.956  1.00  0.00     0.225 C 
HETATM   11  C   UNL     1       5.246  26.433  56.787  1.00  0.00     0.069 C 
HETATM   12  C   UNL     1       5.533  27.849  56.326  1.00  0.00     0.190 C 
HETATM   13  N   UNL     1       6.440  28.509  57.330  1.00  0.00    -0.067 N 
HETATM   14  C   UNL     1       4.367  28.817  56.305  1.00  0.00     0.035 C 
HETATM   15  H   UNL     1       5.996  28.440  58.258  1.00  0.00     0.280 HD
HETATM   16  C   UNL     1       7.774  27.839  57.430  1.00  0.00     0.237 C 
HETATM   17  C   UNL     1       6.423  29.972  56.972  1.00  0.00     0.235 C 
HETATM   18  C   UNL     1       7.543  26.392  57.859  1.00  0.00     0.063 C 
HETATM   19  C   UNL     1       5.058  30.182  56.315  1.00  0.00     0.030 C 
ENDBRANCH   8  10
ENDBRANCH   1   8
BRANCH   1  20
HETATM   20  C   UNL     1       7.263  23.053  54.521  1.00  0.00    -0.021 A 
HETATM   21  C   UNL     1       7.523  22.165  55.583  1.00  0.00     0.012 A 
HETATM   22  C   UNL     1       8.188  20.959  55.356  1.00  0.00     0.043 A 
HETATM   23  C   UNL     1       8.588  20.627  54.069  1.00  0.00     0.116 A 
HETATM   24  F   UNL     1       9.228  19.471  53.853  1.00  0.00    -0.206 F 
HETATM   25  C   UNL     1       8.332  21.477  53.001  1.00  0.00     0.043 A 
HETATM   26  C   UNL     1       7.668  22.685  53.224  1.00  0.00     0.012 A 
ENDBRANCH   1  20
TORSDOF 4
ENDMDL
MODEL 3
REMARK VINA RESULT:      -8.3      1.691      5.687
REMARK  4 active torsions:
REMARK  status: ('A' for Active; 'I' for Inactive)
REMARK    1  A    between atoms: C_5  and  C_6 
REMARK    2  A    between atoms: C_6  and  N_7 
REMARK    3  A    between atoms: C_6  and  C_18 
REMARK    4  A    between atoms: N_7  and  C_8 
ROOT
HETATM    1  C   UNL     1       5.723  25.673  55.808  1.00  0.00     0.288 C 
ENDROOT
BRANCH   1   2
HETATM    2  C   UNL     1       6.265  26.908  56.505  1.00  0.00    -0.003 A 
HETATM    3  C   UNL     1       5.407  27.943  56.873  1.00  0.00     0.126 A 
HETATM    4  N   UNL     1       5.795  29.061  57.524  1.00  0.00    -0.272 NA
HETATM    5  C   UNL     1       7.111  29.182  57.797  1.00  0.00     0.116 A 
HETATM    6  C   UNL     1       8.053  28.226  57.466  1.00  0.00     0.020 A 
HETATM    7  C   UNL     1       7.621  27.072  56.816  1.00  0.00     0.012 A 
ENDBRANCH   1   2
BRANCH   1   8
HETATM    8  N   UNL     1       6.487  24.479  56.242  1.00  0.00     0.101 N 
HETATM    9  H   UNL     1       5.952  23.657  55.971  1.00  0.00     0.317 HD
BRANCH   8  10
HETATM   10  C   UNL     1       7.893  24.428  55.821  1.00  0.00     0.225 C 
HETATM   11  C   UNL     1       8.123  23.953  54.369  1.00  0.00     0.069 C 
HETATM   12  C   UNL     1       7.811  22.477  54.216  1.00  0.00     0.190 C 
HETATM   13  N   UNL     1       8.677  21.699  55.172  1.00  0.00    -0.067 N 
HETATM   14  C   UNL     1       8.176  21.827  52.897  1.00  0.00     0.035 C 
HETATM   15  H   UNL     1       9.660  21.952  54.993  1.00  0.00     0.280 HD
HETATM   16  C   UNL     1       8.392  22.026  56.605  1.00  0.00     0.237 C 
HETATM   17  C   UNL     1       8.537  20.260  54.747  1.00  0.00     0.235 C 
HETATM   18  C   UNL     1       8.657  23.515  56.809  1.00  0.00     0.063 C 
HETATM   19  C   UNL     1       8.225  20.340  53.251  1.00  0.00     0.030 C 
ENDBRANCH   8  10
ENDBRANCH   1   8
BRANCH   1  20
HETATM   20  C   UNL     1       5.647  25.857  54.297  1.00  0.00    -0.021 A 
HETATM   21  C   UNL     1       4.987  24.889  53.514  1.00  0.00     0.012 A 
HETATM   22  C   UNL     1       4.891  25.038  52.130  1.00  0.00     0.043 A 
HETATM   23  C   UNL     1       5.443  26.156  51.519  1.00  0.00     0.116 A 
HETATM   24  F   UNL     1       5.353  26.296  50.191  1.00  0.00    -0.206 F 
HETATM   25  C   UNL     1       6.087  27.133  52.268  1.00  0.00     0.043 A 
HETATM   26  C   UNL     1       6.185  26.987  53.653  1.00  0.00     0.012 A 
ENDBRANCH   1  20
TORSDOF 4
ENDMDL
MODEL 4
REMARK VINA RESULT:      -8.3      2.218      6.076
REMARK  4 active torsions:
REMARK  status: ('A' for Active; 'I' for Inactive)
REMARK    1  A    between atoms: C_5  and  C_6 
REMARK    2  A    between atoms: C_6  and  N_7 
REMARK    3  A    between atoms: C_6  and  C_18 
REMARK    4  A    between atoms: N_7  and  C_8 
ROOT
HETATM    1  C   UNL     1       7.513  27.713  57.275  1.00  0.00     0.288 C 
ENDROOT
BRANCH   1   2
HETATM    2  C   UNL     1       8.487  28.839  57.573  1.00  0.00    -0.003 A 
HETATM    3  C   UNL     1       8.207  29.768  58.573  1.00  0.00     0.126 A 
HETATM    4  N   UNL     1       9.028  30.780  58.927  1.00  0.00    -0.272 NA
HETATM    5  C   UNL     1      10.176  30.906  58.230  1.00  0.00     0.116 A 
HETATM    6  C   UNL     1      10.549  30.053  57.207  1.00  0.00     0.020 A 
HETATM    7  C   UNL     1       9.694  29.003  56.880  1.00  0.00     0.012 A 
ENDBRANCH   1   2
BRANCH   1   8
HETATM    8  N   UNL     1       8.259  26.516  56.816  1.00  0.00     0.101 N 
HETATM    9  H   UNL     1       9.245  26.681  57.000  1.00  0.00     0.317 HD
BRANCH   8  10
HETATM   10  C   UNL     1       7.776  25.225  57.321  1.00  0.00     0.225 C 
HETATM   11  C   UNL     1       8.695  24.021  57.021  1.00  0.00     0.069 C 
HETATM   12  C   UNL     1       8.686  23.677  55.544  1.00  0.00     0.190 C 
HETATM   13  N   UNL     1       7.271  23.381  55.125  1.00  0.00    -0.067 N 
HETATM   14  C   UNL     1       9.387  22.399  55.129  1.00  0.00     0.035 C 
HETATM   15  H   UNL     1       6.902  22.642  55.741  1.00  0.00     0.280 HD
HETATM   16  C   UNL     1       6.367  24.565  55.268  1.00  0.00     0.237 C 
HETATM   17  C   UNL     1       7.388  22.759  53.757  1.00  0.00     0.235 C 
HETATM   18  C   UNL     1       6.364  24.979  56.738  1.00  0.00     0.063 C 
HETATM   19  C   UNL     1       8.768  22.099  53.763  1.00  0.00     0.030 C 
ENDBRANCH   8  10
ENDBRANCH   1   8
BRANCH   1  20
HETATM   20  C   UNL     1       6.395  28.156  56.340  1.00  0.00    -0.021 A 
HETATM   21  C   UNL     1       5.131  28.475  56.874  1.00  0.00     0.012 A 
HETATM   22  C   UNL     1       4.092  28.896  56.043  1.00  0.00     0.043 A 
HETATM   23  C   UNL     1       4.309  29.012  54.677  1.00  0.00     0.116 A 
HETATM   24  F   UNL     1       3.311  29.413  53.880  1.00  0.00    -0.206 F 
HETATM   25  C   UNL     1       5.549  28.718  54.125  1.00  0.00     0.043 A 
HETATM   26  C   UNL     1       6.591  28.295  54.953  1.00  0.00     0.012 A 
ENDBRANCH   1  20
TORSDOF 4
ENDMDL
MODEL 5
REMARK VINA RESULT:      -7.9      2.848      6.291
REMARK  4 active torsions:
REMARK  status: ('A' for Active; 'I' for Inactive)
REMARK    1  A    between atoms: C_5  and  C_6 
REMARK    2  A    between atoms: C_6  and  N_7 
REMARK    3  A    between atoms: C_6  and  C_18 
REMARK    4  A    between atoms: N_7  and  C_8 
ROOT
HETATM    1  C   UNL     1       7.452  26.927  53.776  1.00  0.00     0.288 C 
ENDROOT
BRANCH   1   2
HETATM    2  C   UNL     1       7.216  27.577  55.128  1.00  0.00    -0.003 A 
HETATM    3  C   UNL     1       8.157  28.456  55.662  1.00  0.00     0.126 A 
HETATM    4  N   UNL     1       8.016  29.103  56.839  1.00  0.00    -0.272 NA
HETATM    5  C   UNL     1       6.898  28.842  57.548  1.00  0.00     0.116 A 
HETATM    6  C   UNL     1       5.906  27.977  57.124  1.00  0.00     0.020 A 
HETATM    7  C   UNL     1       6.067  27.342  55.895  1.00  0.00     0.012 A 
ENDBRANCH   1   2
BRANCH   1   8
HETATM    8  N   UNL     1       6.484  27.462  52.789  1.00  0.00     0.101 N 
HETATM    9  H   UNL     1       6.984  27.602  51.915  1.00  0.00     0.317 HD
BRANCH   8  10
HETATM   10  C   UNL     1       5.237  26.702  52.636  1.00  0.00     0.225 C 
HETATM   11  C   UNL     1       5.058  26.008  51.268  1.00  0.00     0.069 C 
HETATM   12  C   UNL     1       4.816  27.020  50.165  1.00  0.00     0.190 C 
HETATM   13  N   UNL     1       3.595  27.829  50.512  1.00  0.00    -0.067 N 
HETATM   14  C   UNL     1       4.429  26.478  48.804  1.00  0.00     0.035 C 
HETATM   15  H   UNL     1       2.814  27.178  50.678  1.00  0.00     0.280 HD
HETATM   16  C   UNL     1       3.771  28.631  51.764  1.00  0.00     0.237 C 
HETATM   17  C   UNL     1       3.248  28.579  49.252  1.00  0.00     0.235 C 
HETATM   18  C   UNL     1       4.054  27.661  52.908  1.00  0.00     0.063 C 
HETATM   19  C   UNL     1       3.779  27.686  48.128  1.00  0.00     0.030 C 
ENDBRANCH   8  10
ENDBRANCH   1   8
BRANCH   1  20
HETATM   20  C   UNL     1       7.481  25.406  53.871  1.00  0.00    -0.021 A 
HETATM   21  C   UNL     1       7.954  24.654  52.779  1.00  0.00     0.012 A 
HETATM   22  C   UNL     1       8.004  23.260  52.842  1.00  0.00     0.043 A 
HETATM   23  C   UNL     1       7.591  22.610  53.996  1.00  0.00     0.116 A 
HETATM   24  F   UNL     1       7.636  21.273  54.055  1.00  0.00    -0.206 F 
HETATM   25  C   UNL     1       7.132  23.327  55.094  1.00  0.00     0.043 A 
HETATM   26  C   UNL     1       7.081  24.722  55.034  1.00  0.00     0.012 A 
ENDBRANCH   1  20
TORSDOF 4
ENDMDL
MODEL 6
REMARK VINA RESULT:      -7.8      2.923      5.708
REMARK  4 active torsions:
REMARK  status: ('A' for Active; 'I' for Inactive)
REMARK    1  A    between atoms: C_5  and  C_6 
REMARK    2  A    between atoms: C_6  and  N_7 
REMARK    3  A    between atoms: C_6  and  C_18 
REMARK    4  A    between atoms: N_7  and  C_8 
ROOT
HETATM    1  C   UNL     1       6.613  25.018  54.607  1.00  0.00     0.288 C 
ENDROOT
BRANCH   1   2
HETATM    2  C   UNL     1       7.476  23.770  54.662  1.00  0.00    -0.003 A 
HETATM    3  C   UNL     1       7.662  23.093  55.865  1.00  0.00     0.126 A 
HETATM    4  N   UNL     1       8.384  21.959  56.000  1.00  0.00    -0.272 NA
HETATM    5  C   UNL     1       8.988  21.485  54.891  1.00  0.00     0.116 A 
HETATM    6  C   UNL     1       8.886  22.084  53.648  1.00  0.00     0.020 A 
HETATM    7  C   UNL     1       8.115  23.238  53.533  1.00  0.00     0.012 A 
ENDBRANCH   1   2
BRANCH   1   8
HETATM    8  N   UNL     1       6.306  25.352  53.195  1.00  0.00     0.101 N 
HETATM    9  H   UNL     1       6.893  24.765  52.608  1.00  0.00     0.317 HD
BRANCH   8  10
HETATM   10  C   UNL     1       4.886  25.321  52.822  1.00  0.00     0.225 C 
HETATM   11  C   UNL     1       4.611  25.102  51.319  1.00  0.00     0.069 C 
HETATM   12  C   UNL     1       5.008  26.318  50.504  1.00  0.00     0.190 C 
HETATM   13  N   UNL     1       4.247  27.512  51.014  1.00  0.00    -0.067 N 
HETATM   14  C   UNL     1       4.616  26.326  49.040  1.00  0.00     0.035 C 
HETATM   15  H   UNL     1       3.241  27.286  50.988  1.00  0.00     0.280 HD
HETATM   16  C   UNL     1       4.585  27.849  52.433  1.00  0.00     0.237 C 
HETATM   17  C   UNL     1       4.457  28.585  49.977  1.00  0.00     0.235 C 
HETATM   18  C   UNL     1       4.236  26.641  53.299  1.00  0.00     0.063 C 
HETATM   19  C   UNL     1       4.682  27.810  48.678  1.00  0.00     0.030 C 
ENDBRANCH   8  10
ENDBRANCH   1   8
BRANCH   1  20
HETATM   20  C   UNL     1       7.217  26.165  55.409  1.00  0.00    -0.021 A 
HETATM   21  C   UNL     1       7.424  26.007  56.793  1.00  0.00     0.012 A 
HETATM   22  C   UNL     1       7.986  27.036  57.551  1.00  0.00     0.043 A 
HETATM   23  C   UNL     1       8.354  28.223  56.932  1.00  0.00     0.116 A 
HETATM   24  F   UNL     1       8.891  29.209  57.660  1.00  0.00    -0.206 F 
HETATM   25  C   UNL     1       8.174  28.400  55.566  1.00  0.00     0.043 A 
HETATM   26  C   UNL     1       7.611  27.373  54.805  1.00  0.00     0.012 A 
ENDBRANCH   1  20
TORSDOF 4
ENDMDL
MODEL 7
REMARK VINA RESULT:      -7.7      2.705      4.875
REMARK  4 active torsions:
REMARK  status: ('A' for Active; 'I' for Inactive)
REMARK    1  A    between atoms: C_5  and  C_6 
REMARK    2  A    between atoms: C_6  and  N_7 
REMARK    3  A    between atoms: C_6  and  C_18 
REMARK    4  A    between atoms: N_7  and  C_8 
ROOT
HETATM    1  C   UNL     1       5.620  26.783  53.620  1.00  0.00     0.288 C 
ENDROOT
BRANCH   1   2
HETATM    2  C   UNL     1       5.443  27.500  52.294  1.00  0.00    -0.003 A 
HETATM    3  C   UNL     1       5.815  28.836  52.159  1.00  0.00     0.126 A 
HETATM    4  N   UNL     1       5.724  29.542  51.011  1.00  0.00    -0.272 NA
HETATM    5  C   UNL     1       5.202  28.905  49.943  1.00  0.00     0.116 A 
HETATM    6  C   UNL     1       4.785  27.586  49.966  1.00  0.00     0.020 A 
HETATM    7  C   UNL     1       4.914  26.875  51.156  1.00  0.00     0.012 A 
ENDBRANCH   1   2
BRANCH   1   8
HETATM    8  N   UNL     1       6.083  27.744  54.650  1.00  0.00     0.101 N 
HETATM    9  H   UNL     1       6.175  28.652  54.201  1.00  0.00     0.317 HD
BRANCH   8  10
HETATM   10  C   UNL     1       5.301  27.781  55.892  1.00  0.00     0.225 C 
HETATM   11  C   UNL     1       4.997  29.195  56.432  1.00  0.00     0.069 C 
HETATM   12  C   UNL     1       6.252  29.863  56.962  1.00  0.00     0.190 C 
HETATM   13  N   UNL     1       6.839  28.997  58.044  1.00  0.00    -0.067 N 
HETATM   14  C   UNL     1       6.076  31.175  57.700  1.00  0.00     0.035 C 
HETATM   15  H   UNL     1       6.109  28.829  58.752  1.00  0.00     0.280 HD
HETATM   16  C   UNL     1       7.277  27.659  57.538  1.00  0.00     0.237 C 
HETATM   17  C   UNL     1       7.877  29.858  58.717  1.00  0.00     0.235 C 
HETATM   18  C   UNL     1       6.055  26.952  56.958  1.00  0.00     0.063 C 
HETATM   19  C   UNL     1       7.370  31.287  58.508  1.00  0.00     0.030 C 
ENDBRANCH   8  10
ENDBRANCH   1   8
BRANCH   1  20
HETATM   20  C   UNL     1       6.490  25.538  53.485  1.00  0.00    -0.021 A 
HETATM   21  C   UNL     1       6.289  24.456  54.363  1.00  0.00     0.012 A 
HETATM   22  C   UNL     1       7.062  23.298  54.255  1.00  0.00     0.043 A 
HETATM   23  C   UNL     1       8.031  23.209  53.265  1.00  0.00     0.116 A 
HETATM   24  F   UNL     1       8.773  22.100  53.164  1.00  0.00    -0.206 F 
HETATM   25  C   UNL     1       8.240  24.256  52.376  1.00  0.00     0.043 A 
HETATM   26  C   UNL     1       7.469  25.416  52.482  1.00  0.00     0.012 A 
ENDBRANCH   1  20
TORSDOF 4
ENDMDL
MODEL 8
REMARK VINA RESULT:      -7.7      3.474      6.399
REMARK  4 active torsions:
REMARK  status: ('A' for Active; 'I' for Inactive)
REMARK    1  A    between atoms: C_5  and  C_6 
REMARK    2  A    between atoms: C_6  and  N_7 
REMARK    3  A    between atoms: C_6  and  C_18 
REMARK    4  A    between atoms: N_7  and  C_8 
ROOT
HETATM    1  C   UNL     1       6.532  26.949  54.289  1.00  0.00     0.288 C 
ENDROOT
BRANCH   1   2
HETATM    2  C   UNL     1       6.989  25.531  53.998  1.00  0.00    -0.003 A 
HETATM    3  C   UNL     1       6.777  24.517  54.930  1.00  0.00     0.126 A 
HETATM    4  N   UNL     1       7.119  23.223  54.742  1.00  0.00    -0.272 NA
HETATM    5  C   UNL     1       7.739  22.919  53.582  1.00  0.00     0.116 A 
HETATM    6  C   UNL     1       8.013  23.846  52.594  1.00  0.00     0.020 A 
HETATM    7  C   UNL     1       7.627  25.168  52.804  1.00  0.00     0.012 A 
ENDBRANCH   1   2
BRANCH   1   8
HETATM    8  N   UNL     1       6.371  27.693  53.016  1.00  0.00     0.101 N 
HETATM    9  H   UNL     1       6.922  27.212  52.309  1.00  0.00     0.317 HD
BRANCH   8  10
HETATM   10  C   UNL     1       4.989  27.963  52.600  1.00  0.00     0.225 C 
HETATM   11  C   UNL     1       4.410  26.967  51.572  1.00  0.00     0.069 C 
HETATM   12  C   UNL     1       5.066  27.132  50.215  1.00  0.00     0.190 C 
HETATM   13  N   UNL     1       4.865  28.550  49.751  1.00  0.00    -0.067 N 
HETATM   14  C   UNL     1       4.466  26.358  49.059  1.00  0.00     0.035 C 
HETATM   15  H   UNL     1       3.855  28.753  49.768  1.00  0.00     0.280 HD
HETATM   16  C   UNL     1       5.530  29.550  50.645  1.00  0.00     0.237 C 
HETATM   17  C   UNL     1       5.262  28.548  48.297  1.00  0.00     0.235 C 
HETATM   18  C   UNL     1       4.929  29.404  52.041  1.00  0.00     0.063 C 
HETATM   19  C   UNL     1       4.985  27.116  47.836  1.00  0.00     0.030 C 
ENDBRANCH   8  10
ENDBRANCH   1   8
BRANCH   1  20
HETATM   20  C   UNL     1       7.426  27.638  55.313  1.00  0.00    -0.021 A 
HETATM   21  C   UNL     1       8.346  28.614  54.883  1.00  0.00     0.012 A 
HETATM   22  C   UNL     1       9.169  29.270  55.800  1.00  0.00     0.043 A 
HETATM   23  C   UNL     1       9.072  28.965  57.150  1.00  0.00     0.116 A 
HETATM   24  F   UNL     1       9.864  29.593  58.028  1.00  0.00    -0.206 F 
HETATM   25  C   UNL     1       8.164  28.017  57.604  1.00  0.00     0.043 A 
HETATM   26  C   UNL     1       7.340  27.358  56.689  1.00  0.00     0.012 A 
ENDBRANCH   1  20
TORSDOF 4
ENDMDL
MODEL 9
REMARK VINA RESULT:      -7.7      2.309      5.967
REMARK  4 active torsions:
REMARK  status: ('A' for Active; 'I' for Inactive)
REMARK    1  A    between atoms: C_5  and  C_6 
REMARK    2  A    between atoms: C_6  and  N_7 
REMARK    3  A    between atoms: C_6  and  C_18 
REMARK    4  A    between atoms: N_7  and  C_8 
ROOT
HETATM    1  C   UNL     1       6.476  27.480  55.479  1.00  0.00     0.288 C 
ENDROOT
BRANCH   1   2
HETATM    2  C   UNL     1       7.499  28.292  56.254  1.00  0.00    -0.003 A 
HETATM    3  C   UNL     1       7.380  28.444  57.634  1.00  0.00     0.126 A 
HETATM    4  N   UNL     1       8.259  29.119  58.406  1.00  0.00    -0.272 NA
HETATM    5  C   UNL     1       9.297  29.709  57.777  1.00  0.00     0.116 A 
HETATM    6  C   UNL     1       9.505  29.637  56.412  1.00  0.00     0.020 A 
HETATM    7  C   UNL     1       8.597  28.913  55.643  1.00  0.00     0.012 A 
ENDBRANCH   1   2
BRANCH   1   8
HETATM    8  N   UNL     1       7.092  26.215  55.013  1.00  0.00     0.101 N 
HETATM    9  H   UNL     1       7.970  26.099  55.513  1.00  0.00     0.317 HD
BRANCH   8  10
HETATM   10  C   UNL     1       6.230  25.027  55.058  1.00  0.00     0.225 C 
HETATM   11  C   UNL     1       6.703  23.913  56.017  1.00  0.00     0.069 C 
HETATM   12  C   UNL     1       7.957  23.235  55.499  1.00  0.00     0.190 C 
HETATM   13  N   UNL     1       7.672  22.672  54.132  1.00  0.00    -0.067 N 
HETATM   14  C   UNL     1       8.426  21.995  56.234  1.00  0.00     0.035 C 
HETATM   15  H   UNL     1       6.848  22.056  54.204  1.00  0.00     0.280 HD
HETATM   16  C   UNL     1       7.342  23.732  53.129  1.00  0.00     0.237 C 
HETATM   17  C   UNL     1       8.839  21.768  53.828  1.00  0.00     0.235 C 
HETATM   18  C   UNL     1       6.101  24.473  53.619  1.00  0.00     0.063 C 
HETATM   19  C   UNL     1       9.325  21.309  55.204  1.00  0.00     0.030 C 
ENDBRANCH   8  10
ENDBRANCH   1   8
BRANCH   1  20
HETATM   20  C   UNL     1       5.810  28.300  54.380  1.00  0.00    -0.021 A 
HETATM   21  C   UNL     1       6.214  28.120  53.043  1.00  0.00     0.012 A 
HETATM   22  C   UNL     1       5.613  28.848  52.014  1.00  0.00     0.043 A 
HETATM   23  C   UNL     1       4.602  29.751  52.311  1.00  0.00     0.116 A 
HETATM   24  F   UNL     1       4.029  30.450  51.324  1.00  0.00    -0.206 F 
HETATM   25  C   UNL     1       4.175  29.938  53.619  1.00  0.00     0.043 A 
HETATM   26  C   UNL     1       4.774  29.212  54.651  1.00  0.00     0.012 A 
ENDBRANCH   1  20
TORSDOF 4
ENDMDL
MODEL 10
REMARK VINA RESULT:      -7.5      3.206      6.175
REMARK  4 active torsions:
REMARK  status: ('A' for Active; 'I' for Inactive)
REMARK    1  A    between atoms: C_5  and  C_6 
REMARK    2  A    between atoms: C_6  and  N_7 
REMARK    3  A    between atoms: C_6  and  C_18 
REMARK    4  A    between atoms: N_7  and  C_8 
ROOT
HETATM    1  C   UNL     1       6.975  27.260  56.150  1.00  0.00     0.288 C 
ENDROOT
BRANCH   1   2
HETATM    2  C   UNL     1       7.628  25.889  56.176  1.00  0.00    -0.003 A 
HETATM    3  C   UNL     1       7.733  25.136  55.008  1.00  0.00     0.126 A 
HETATM    4  N   UNL     1       8.325  23.925  54.931  1.00  0.00    -0.272 NA
HETATM    5  C   UNL     1       8.811  23.409  56.080  1.00  0.00     0.116 A 
HETATM    6  C   UNL     1       8.747  24.060  57.298  1.00  0.00     0.020 A 
HETATM    7  C   UNL     1       8.153  25.319  57.343  1.00  0.00     0.012 A 
ENDBRANCH   1   2
BRANCH   1   8
HETATM    8  N   UNL     1       6.540  27.580  54.769  1.00  0.00     0.101 N 
HETATM    9  H   UNL     1       7.200  27.142  54.131  1.00  0.00     0.317 HD
BRANCH   8  10
HETATM   10  C   UNL     1       5.136  27.286  54.454  1.00  0.00     0.225 C 
HETATM   11  C   UNL     1       4.921  26.317  53.271  1.00  0.00     0.069 C 
HETATM   12  C   UNL     1       5.294  26.967  51.952  1.00  0.00     0.190 C 
HETATM   13  N   UNL     1       4.465  28.210  51.775  1.00  0.00    -0.067 N 
HETATM   14  C   UNL     1       4.952  26.206  50.687  1.00  0.00     0.035 C 
HETATM   15  H   UNL     1       3.472  27.949  51.861  1.00  0.00     0.280 HD
HETATM   16  C   UNL     1       4.741  29.241  52.825  1.00  0.00     0.237 C 
HETATM   17  C   UNL     1       4.664  28.615  50.337  1.00  0.00     0.235 C 
HETATM   18  C   UNL     1       4.415  28.627  54.184  1.00  0.00     0.063 C 
HETATM   19  C   UNL     1       4.967  27.299  49.617  1.00  0.00     0.030 C 
ENDBRANCH   8  10
ENDBRANCH   1   8
BRANCH   1  20
HETATM   20  C   UNL     1       7.855  28.324  56.796  1.00  0.00    -0.021 A 
HETATM   21  C   UNL     1       8.994  28.789  56.110  1.00  0.00     0.012 A 
HETATM   22  C   UNL     1       9.811  29.771  56.671  1.00  0.00     0.043 A 
HETATM   23  C   UNL     1       9.493  30.302  57.914  1.00  0.00     0.116 A 
HETATM   24  F   UNL     1      10.280  31.242  58.452  1.00  0.00    -0.206 F 
HETATM   25  C   UNL     1       8.369  29.871  58.606  1.00  0.00     0.043 A 
HETATM   26  C   UNL     1       7.549  28.888  58.048  1.00  0.00     0.012 A 
ENDBRANCH   1  20
TORSDOF 4
ENDMDL
