MODEL 1
REMARK VINA RESULT:     -10.7      0.000      0.000
REMARK  6 active torsions:
REMARK  status: ('A' for Active; 'I' for Inactive)
REMARK    1  A    between atoms: C_2  and  N_3 
REMARK    2  A    between atoms: N_7  and  C_8 
REMARK    3  A    between atoms: C_11  and  N_12 
REMARK    4  A    between atoms: C_13  and  N_14 
REMARK       I    between atoms: N_14  and  C_15 
REMARK    5  A    between atoms: C_15  and  C_16 
REMARK    6  A    between atoms: C_18  and  C_19 
ROOT
HETATM    1  N   UNL     1       9.044  29.646  56.458  1.00  0.00    -0.338 N 
HETATM    2  C   UNL     1       9.173  30.279  57.639  1.00  0.00     0.157 C 
HETATM    3  S   UNL     1      10.546  31.208  57.892  1.00  0.00    -0.047 SA
HETATM    4  H   UNL     1       9.665  30.016  55.744  1.00  0.00     0.168 HD
ENDROOT
BRANCH   2   5
HETATM    5  N   UNL     1       8.214  30.309  58.602  1.00  0.00    -0.199 NA
HETATM    6  C   UNL     1       7.709  31.450  59.221  1.00  0.00     0.261 C 
HETATM    7  O   UNL     1       7.031  32.308  58.666  1.00  0.00    -0.271 OA
HETATM    8  H   UNL     1       8.452  29.598  59.288  1.00  0.00     0.139 HD
BRANCH   6   9
HETATM    9  C   UNL     1       7.915  31.459  60.658  1.00  0.00     0.138 A 
HETATM   10  O   UNL     1       7.145  32.272  61.446  1.00  0.00    -0.305 OA
HETATM   11  C   UNL     1       7.480  32.021  62.751  1.00  0.00     0.088 A 
HETATM   12  C   UNL     1       8.519  31.112  62.786  1.00  0.00     0.041 A 
HETATM   13  C   UNL     1       8.782  30.734  61.450  1.00  0.00     0.045 A 
BRANCH  11  14
HETATM   14  C   UNL     1       6.693  32.728  63.761  1.00  0.00     0.020 A 
HETATM   15  C   UNL     1       5.290  32.854  63.702  1.00  0.00     0.048 A 
HETATM   16 CL   UNL     1       4.342  32.237  62.390  1.00  0.00    -0.083 Cl
HETATM   17  C   UNL     1       4.586  33.536  64.703  1.00  0.00     0.048 A 
HETATM   18  C   UNL     1       5.272  34.108  65.768  1.00  0.00     0.035 A 
HETATM   19 CL   UNL     1       4.405  34.949  66.991  1.00  0.00    -0.084 Cl
HETATM   20  C   UNL     1       6.657  34.009  65.844  1.00  0.00     0.025 A 
HETATM   21  C   UNL     1       7.361  33.325  64.847  1.00  0.00     0.017 A 
ENDBRANCH  11  14
ENDBRANCH   6   9
ENDBRANCH   2   5
BRANCH   1  22
HETATM   22  C   UNL     1       8.407  28.445  56.104  1.00  0.00     0.034 A 
HETATM   23  C   UNL     1       7.747  28.238  54.898  1.00  0.00     0.032 A 
HETATM   24  C   UNL     1       7.130  27.006  54.625  1.00  0.00     0.031 A 
HETATM   25  C   UNL     1       7.162  25.949  55.543  1.00  0.00     0.030 A 
HETATM   26  C   UNL     1       7.771  26.208  56.781  1.00  0.00     0.031 A 
HETATM   27  C   UNL     1       8.373  27.437  57.065  1.00  0.00     0.032 A 
BRANCH  25  28
HETATM   28  N   UNL     1       6.610  24.690  55.302  1.00  0.00    -0.378 N 
HETATM   29  C   UNL     1       6.976  23.631  56.265  1.00  0.00     0.150 C 
HETATM   30  C   UNL     1       8.156  22.786  55.738  1.00  0.00     0.254 C 
HETATM   31  N   UNL     1       7.814  22.208  54.358  1.00  0.00    -0.068 N 
HETATM   32  H   UNL     1       6.946  21.666  54.463  1.00  0.00     0.280 HD
HETATM   33  C   UNL     1       7.499  23.353  53.385  1.00  0.00     0.254 C 
HETATM   34  C   UNL     1       6.352  24.230  53.930  1.00  0.00     0.150 C 
BRANCH  31  35
HETATM   35  C   UNL     1       8.874  21.291  53.802  1.00  0.00     0.230 C 
HETATM   36  C   UNL     1       8.304  20.403  52.712  1.00  0.00     0.034 C 
ENDBRANCH  31  35
ENDBRANCH  25  28
ENDBRANCH   1  22
TORSDOF 6
ENDMDL
MODEL 2
REMARK VINA RESULT:     -10.5      4.624     11.652
REMARK  6 active torsions:
REMARK  status: ('A' for Active; 'I' for Inactive)
REMARK    1  A    between atoms: C_2  and  N_3 
REMARK    2  A    between atoms: N_7  and  C_8 
REMARK    3  A    between atoms: C_11  and  N_12 
REMARK    4  A    between atoms: C_13  and  N_14 
REMARK       I    between atoms: N_14  and  C_15 
REMARK    5  A    between atoms: C_15  and  C_16 
REMARK    6  A    between atoms: C_18  and  C_19 
ROOT
HETATM    1  N   UNL     1       9.611  30.445  59.082  1.00  0.00    -0.338 N 
HETATM    2  C   UNL     1       9.346  30.042  57.824  1.00  0.00     0.157 C 
HETATM    3  S   UNL     1      10.585  30.105  56.697  1.00  0.00    -0.047 SA
HETATM    4  H   UNL     1      10.607  30.492  59.278  1.00  0.00     0.168 HD
ENDROOT
BRANCH   2   5
HETATM    5  N   UNL     1       8.172  29.481  57.430  1.00  0.00    -0.199 NA
HETATM    6  C   UNL     1       7.835  28.133  57.527  1.00  0.00     0.261 C 
HETATM    7  O   UNL     1       7.651  27.529  58.578  1.00  0.00    -0.271 OA
HETATM    8  H   UNL     1       7.959  29.845  56.506  1.00  0.00     0.139 HD
BRANCH   6   9
HETATM    9  C   UNL     1       7.547  27.524  56.241  1.00  0.00     0.138 A 
HETATM   10  O   UNL     1       7.876  26.211  56.027  1.00  0.00    -0.305 OA
HETATM   11  C   UNL     1       7.419  25.869  54.781  1.00  0.00     0.088 A 
HETATM   12  C   UNL     1       6.878  26.984  54.173  1.00  0.00     0.041 A 
HETATM   13  C   UNL     1       6.938  28.036  55.115  1.00  0.00     0.045 A 
BRANCH  11  14
HETATM   14  C   UNL     1       7.591  24.466  54.401  1.00  0.00     0.020 A 
HETATM   15  C   UNL     1       7.766  24.040  53.068  1.00  0.00     0.048 A 
HETATM   16 CL   UNL     1       7.733  25.126  51.719  1.00  0.00    -0.083 Cl
HETATM   17  C   UNL     1       7.934  22.683  52.763  1.00  0.00     0.048 A 
HETATM   18  C   UNL     1       7.921  21.736  53.781  1.00  0.00     0.035 A 
HETATM   19 CL   UNL     1       8.122  20.071  53.402  1.00  0.00    -0.084 Cl
HETATM   20  C   UNL     1       7.738  22.128  55.102  1.00  0.00     0.025 A 
HETATM   21  C   UNL     1       7.574  23.484  55.409  1.00  0.00     0.017 A 
ENDBRANCH  11  14
ENDBRANCH   6   9
ENDBRANCH   2   5
BRANCH   1  22
HETATM   22  C   UNL     1       8.801  31.033  60.066  1.00  0.00     0.034 A 
HETATM   23  C   UNL     1       7.798  31.960  59.800  1.00  0.00     0.032 A 
HETATM   24  C   UNL     1       7.035  32.506  60.845  1.00  0.00     0.031 A 
HETATM   25  C   UNL     1       7.247  32.138  62.179  1.00  0.00     0.030 A 
HETATM   26  C   UNL     1       8.312  31.257  62.429  1.00  0.00     0.031 A 
HETATM   27  C   UNL     1       9.085  30.722  61.394  1.00  0.00     0.032 A 
BRANCH  25  28
HETATM   28  N   UNL     1       6.486  32.610  63.249  1.00  0.00    -0.378 N 
HETATM   29  C   UNL     1       5.088  32.135  63.305  1.00  0.00     0.150 C 
HETATM   30  C   UNL     1       4.127  33.164  62.671  1.00  0.00     0.254 C 
HETATM   31  N   UNL     1       4.292  34.528  63.354  1.00  0.00    -0.068 N 
HETATM   32  H   UNL     1       4.125  34.386  64.359  1.00  0.00     0.280 HD
HETATM   33  C   UNL     1       5.747  34.998  63.216  1.00  0.00     0.254 C 
HETATM   34  C   UNL     1       6.716  33.952  63.804  1.00  0.00     0.150 C 
BRANCH  31  35
HETATM   35  C   UNL     1       3.327  35.577  62.862  1.00  0.00     0.230 C 
HETATM   36  C   UNL     1       3.881  36.971  63.088  1.00  0.00     0.034 C 
ENDBRANCH  31  35
ENDBRANCH  25  28
ENDBRANCH   1  22
TORSDOF 6
ENDMDL
MODEL 3
REMARK VINA RESULT:     -10.4      1.503      2.062
REMARK  6 active torsions:
REMARK  status: ('A' for Active; 'I' for Inactive)
REMARK    1  A    between atoms: C_2  and  N_3 
REMARK    2  A    between atoms: N_7  and  C_8 
REMARK    3  A    between atoms: C_11  and  N_12 
REMARK    4  A    between atoms: C_13  and  N_14 
REMARK       I    between atoms: N_14  and  C_15 
REMARK    5  A    between atoms: C_15  and  C_16 
REMARK    6  A    between atoms: C_18  and  C_19 
ROOT
HETATM    1  N   UNL     1       8.698  29.999  57.288  1.00  0.00    -0.338 N 
HETATM    2  C   UNL     1       8.459  30.638  58.449  1.00  0.00     0.157 C 
HETATM    3  S   UNL     1       9.683  31.582  59.097  1.00  0.00    -0.047 SA
HETATM    4  H   UNL     1       9.503  30.371  56.792  1.00  0.00     0.168 HD
ENDROOT
BRANCH   2   5
HETATM    5  N   UNL     1       7.253  30.662  59.077  1.00  0.00    -0.199 NA
HETATM    6  C   UNL     1       6.096  31.277  58.606  1.00  0.00     0.261 C 
HETATM    7  O   UNL     1       5.459  30.916  57.623  1.00  0.00    -0.271 OA
HETATM    8  H   UNL     1       7.425  30.903  60.049  1.00  0.00     0.139 HD
BRANCH   6   9
HETATM    9  C   UNL     1       5.597  32.310  59.496  1.00  0.00     0.138 A 
HETATM   10  O   UNL     1       5.894  32.252  60.832  1.00  0.00    -0.305 OA
HETATM   11  C   UNL     1       5.384  33.381  61.418  1.00  0.00     0.088 A 
HETATM   12  C   UNL     1       4.692  34.111  60.472  1.00  0.00     0.041 A 
HETATM   13  C   UNL     1       4.848  33.439  59.239  1.00  0.00     0.045 A 
BRANCH  11  14
HETATM   14  C   UNL     1       5.684  33.554  62.840  1.00  0.00     0.020 A 
HETATM   15  C   UNL     1       4.698  33.813  63.814  1.00  0.00     0.048 A 
HETATM   16 CL   UNL     1       3.022  34.020  63.427  1.00  0.00    -0.083 Cl
HETATM   17  C   UNL     1       5.041  33.961  65.164  1.00  0.00     0.048 A 
HETATM   18  C   UNL     1       6.371  33.862  65.557  1.00  0.00     0.035 A 
HETATM   19 CL   UNL     1       6.789  34.050  67.214  1.00  0.00    -0.084 Cl
HETATM   20  C   UNL     1       7.364  33.618  64.615  1.00  0.00     0.025 A 
HETATM   21  C   UNL     1       7.022  33.466  63.267  1.00  0.00     0.017 A 
ENDBRANCH  11  14
ENDBRANCH   6   9
ENDBRANCH   2   5
BRANCH   1  22
HETATM   22  C   UNL     1       8.208  28.789  56.768  1.00  0.00     0.034 A 
HETATM   23  C   UNL     1       8.147  27.600  57.486  1.00  0.00     0.032 A 
HETATM   24  C   UNL     1       7.648  26.430  56.889  1.00  0.00     0.031 A 
HETATM   25  C   UNL     1       7.193  26.419  55.564  1.00  0.00     0.030 A 
HETATM   26  C   UNL     1       7.334  27.613  54.839  1.00  0.00     0.031 A 
HETATM   27  C   UNL     1       7.844  28.776  55.423  1.00  0.00     0.032 A 
BRANCH  25  28
HETATM   28  N   UNL     1       6.642  25.300  54.939  1.00  0.00    -0.378 N 
HETATM   29  C   UNL     1       6.529  24.085  55.773  1.00  0.00     0.150 C 
HETATM   30  C   UNL     1       7.729  23.141  55.542  1.00  0.00     0.254 C 
HETATM   31  N   UNL     1       7.850  22.799  54.051  1.00  0.00    -0.068 N 
HETATM   32  H   UNL     1       6.953  22.389  53.760  1.00  0.00     0.280 HD
HETATM   33  C   UNL     1       8.022  24.091  53.240  1.00  0.00     0.254 C 
HETATM   34  C   UNL     1       6.850  25.060  53.504  1.00  0.00     0.150 C 
BRANCH  31  35
HETATM   35  C   UNL     1       8.942  21.807  53.740  1.00  0.00     0.230 C 
HETATM   36  C   UNL     1       8.402  20.645  52.926  1.00  0.00     0.034 C 
ENDBRANCH  31  35
ENDBRANCH  25  28
ENDBRANCH   1  22
TORSDOF 6
ENDMDL
MODEL 4
REMARK VINA RESULT:     -10.3      4.633      6.527
REMARK  6 active torsions:
REMARK  status: ('A' for Active; 'I' for Inactive)
REMARK    1  A    between atoms: C_2  and  N_3 
REMARK    2  A    between atoms: N_7  and  C_8 
REMARK    3  A    between atoms: C_11  and  N_12 
REMARK    4  A    between atoms: C_13  and  N_14 
REMARK       I    between atoms: N_14  and  C_15 
REMARK    5  A    between atoms: C_15  and  C_16 
REMARK    6  A    between atoms: C_18  and  C_19 
ROOT
HETATM    1  N   UNL     1       5.173  25.708  54.790  1.00  0.00    -0.338 N 
HETATM    2  C   UNL     1       5.836  26.058  55.909  1.00  0.00     0.157 C 
HETATM    3  S   UNL     1       5.112  25.740  57.387  1.00  0.00    -0.047 SA
HETATM    4  H   UNL     1       4.424  25.046  54.968  1.00  0.00     0.168 HD
ENDROOT
BRANCH   2   5
HETATM    5  N   UNL     1       7.103  26.551  55.927  1.00  0.00    -0.199 NA
HETATM    6  C   UNL     1       7.919  26.673  57.050  1.00  0.00     0.261 C 
HETATM    7  O   UNL     1       8.386  25.733  57.683  1.00  0.00    -0.271 OA
HETATM    8  H   UNL     1       7.101  27.409  55.383  1.00  0.00     0.139 HD
BRANCH   6   9
HETATM    9  C   UNL     1       8.318  28.043  57.318  1.00  0.00     0.138 A 
HETATM   10  O   UNL     1       7.951  28.635  58.497  1.00  0.00    -0.305 OA
HETATM   11  C   UNL     1       8.527  29.878  58.533  1.00  0.00     0.088 A 
HETATM   12  C   UNL     1       9.188  30.106  57.343  1.00  0.00     0.041 A 
HETATM   13  C   UNL     1       9.075  28.925  56.576  1.00  0.00     0.045 A 
BRANCH  11  14
HETATM   14  C   UNL     1       8.330  30.638  59.768  1.00  0.00     0.020 A 
HETATM   15  C   UNL     1       7.278  31.559  59.951  1.00  0.00     0.048 A 
HETATM   16 CL   UNL     1       6.133  31.942  58.709  1.00  0.00    -0.083 Cl
HETATM   17  C   UNL     1       7.132  32.253  61.159  1.00  0.00     0.048 A 
HETATM   18  C   UNL     1       8.038  32.045  62.194  1.00  0.00     0.035 A 
HETATM   19 CL   UNL     1       7.859  32.904  63.672  1.00  0.00    -0.084 Cl
HETATM   20  C   UNL     1       9.091  31.152  62.034  1.00  0.00     0.025 A 
HETATM   21  C   UNL     1       9.235  30.454  60.829  1.00  0.00     0.017 A 
ENDBRANCH  11  14
ENDBRANCH   6   9
ENDBRANCH   2   5
BRANCH   1  22
HETATM   22  C   UNL     1       5.163  26.259  53.498  1.00  0.00     0.034 A 
HETATM   23  C   UNL     1       5.076  27.621  53.232  1.00  0.00     0.032 A 
HETATM   24  C   UNL     1       5.065  28.090  51.907  1.00  0.00     0.031 A 
HETATM   25  C   UNL     1       5.147  27.215  50.817  1.00  0.00     0.030 A 
HETATM   26  C   UNL     1       5.161  25.842  51.111  1.00  0.00     0.031 A 
HETATM   27  C   UNL     1       5.156  25.368  52.426  1.00  0.00     0.032 A 
BRANCH  25  28
HETATM   28  N   UNL     1       5.192  27.629  49.486  1.00  0.00    -0.378 N 
HETATM   29  C   UNL     1       4.834  29.042  49.238  1.00  0.00     0.150 C 
HETATM   30  C   UNL     1       3.352  29.173  48.824  1.00  0.00     0.254 C 
HETATM   31  N   UNL     1       3.068  28.290  47.601  1.00  0.00    -0.068 N 
HETATM   32  H   UNL     1       3.720  28.578  46.860  1.00  0.00     0.280 HD
HETATM   33  C   UNL     1       3.403  26.829  47.934  1.00  0.00     0.254 C 
HETATM   34  C   UNL     1       4.870  26.698  48.395  1.00  0.00     0.150 C 
BRANCH  31  35
HETATM   35  C   UNL     1       1.664  28.423  47.067  1.00  0.00     0.230 C 
HETATM   36  C   UNL     1       0.802  27.255  47.513  1.00  0.00     0.034 C 
ENDBRANCH  31  35
ENDBRANCH  25  28
ENDBRANCH   1  22
TORSDOF 6
ENDMDL
MODEL 5
REMARK VINA RESULT:      -9.9      5.524      9.599
REMARK  6 active torsions:
REMARK  status: ('A' for Active; 'I' for Inactive)
REMARK    1  A    between atoms: C_2  and  N_3 
REMARK    2  A    between atoms: N_7  and  C_8 
REMARK    3  A    between atoms: C_11  and  N_12 
REMARK    4  A    between atoms: C_13  and  N_14 
REMARK       I    between atoms: N_14  and  C_15 
REMARK    5  A    between atoms: C_15  and  C_16 
REMARK    6  A    between atoms: C_18  and  C_19 
ROOT
HETATM    1  N   UNL     1       6.426  30.612  58.456  1.00  0.00    -0.338 N 
HETATM    2  C   UNL     1       7.568  30.010  58.840  1.00  0.00     0.157 C 
HETATM    3  S   UNL     1       8.679  30.910  59.716  1.00  0.00    -0.047 SA
HETATM    4  H   UNL     1       6.242  31.470  58.970  1.00  0.00     0.168 HD
ENDROOT
BRANCH   2   5
HETATM    5  N   UNL     1       7.836  28.689  58.663  1.00  0.00    -0.199 NA
HETATM    6  C   UNL     1       8.345  28.104  57.506  1.00  0.00     0.261 C 
HETATM    7  O   UNL     1       9.475  28.286  57.066  1.00  0.00    -0.271 OA
HETATM    8  H   UNL     1       7.036  28.170  59.013  1.00  0.00     0.139 HD
BRANCH   6   9
HETATM    9  C   UNL     1       7.460  27.104  56.936  1.00  0.00     0.138 A 
HETATM   10  O   UNL     1       7.974  26.137  56.114  1.00  0.00    -0.305 OA
HETATM   11  C   UNL     1       6.954  25.280  55.795  1.00  0.00     0.088 A 
HETATM   12  C   UNL     1       5.777  25.750  56.344  1.00  0.00     0.041 A 
HETATM   13  C   UNL     1       6.105  26.903  57.093  1.00  0.00     0.045 A 
BRANCH  11  14
HETATM   14  C   UNL     1       7.325  24.113  54.993  1.00  0.00     0.020 A 
HETATM   15  C   UNL     1       7.619  24.181  53.616  1.00  0.00     0.048 A 
HETATM   16 CL   UNL     1       7.510  25.647  52.699  1.00  0.00    -0.083 Cl
HETATM   17  C   UNL     1       7.978  23.032  52.899  1.00  0.00     0.048 A 
HETATM   18  C   UNL     1       8.040  21.802  53.546  1.00  0.00     0.035 A 
HETATM   19 CL   UNL     1       8.475  20.393  52.662  1.00  0.00    -0.084 Cl
HETATM   20  C   UNL     1       7.744  21.706  54.900  1.00  0.00     0.025 A 
HETATM   21  C   UNL     1       7.389  22.854  55.618  1.00  0.00     0.017 A 
ENDBRANCH  11  14
ENDBRANCH   6   9
ENDBRANCH   2   5
BRANCH   1  22
HETATM   22  C   UNL     1       5.593  30.416  57.342  1.00  0.00     0.034 A 
HETATM   23  C   UNL     1       4.237  30.120  57.426  1.00  0.00     0.032 A 
HETATM   24  C   UNL     1       3.475  29.932  56.260  1.00  0.00     0.031 A 
HETATM   25  C   UNL     1       4.044  30.040  54.986  1.00  0.00     0.030 A 
HETATM   26  C   UNL     1       5.428  30.267  54.930  1.00  0.00     0.031 A 
HETATM   27  C   UNL     1       6.195  30.440  56.086  1.00  0.00     0.032 A 
BRANCH  25  28
HETATM   28  N   UNL     1       3.324  29.913  53.797  1.00  0.00    -0.378 N 
HETATM   29  C   UNL     1       3.383  28.588  53.145  1.00  0.00     0.150 C 
HETATM   30  C   UNL     1       4.461  28.562  52.041  1.00  0.00     0.254 C 
HETATM   31  N   UNL     1       4.203  29.685  51.027  1.00  0.00    -0.068 N 
HETATM   32  H   UNL     1       3.250  29.552  50.663  1.00  0.00     0.280 HD
HETATM   33  C   UNL     1       4.209  31.040  51.748  1.00  0.00     0.254 C 
HETATM   34  C   UNL     1       3.166  31.056  52.886  1.00  0.00     0.150 C 
BRANCH  31  35
HETATM   35  C   UNL     1       5.156  29.681  49.858  1.00  0.00     0.230 C 
HETATM   36  C   UNL     1       5.950  30.974  49.803  1.00  0.00     0.034 C 
ENDBRANCH  31  35
ENDBRANCH  25  28
ENDBRANCH   1  22
TORSDOF 6
ENDMDL
MODEL 6
REMARK VINA RESULT:      -9.6      6.360     10.019
REMARK  6 active torsions:
REMARK  status: ('A' for Active; 'I' for Inactive)
REMARK    1  A    between atoms: C_2  and  N_3 
REMARK    2  A    between atoms: N_7  and  C_8 
REMARK    3  A    between atoms: C_11  and  N_12 
REMARK    4  A    between atoms: C_13  and  N_14 
REMARK       I    between atoms: N_14  and  C_15 
REMARK    5  A    between atoms: C_15  and  C_16 
REMARK    6  A    between atoms: C_18  and  C_19 
ROOT
HETATM    1  N   UNL     1       3.340  30.113  55.228  1.00  0.00    -0.338 N 
HETATM    2  C   UNL     1       3.953  29.639  56.330  1.00  0.00     0.157 C 
HETATM    3  S   UNL     1       3.787  30.502  57.758  1.00  0.00    -0.047 SA
HETATM    4  H   UNL     1       2.622  30.799  55.442  1.00  0.00     0.168 HD
ENDROOT
BRANCH   2   5
HETATM    5  N   UNL     1       4.606  28.448  56.392  1.00  0.00    -0.199 NA
HETATM    6  C   UNL     1       5.968  28.272  56.628  1.00  0.00     0.261 C 
HETATM    7  O   UNL     1       6.535  28.520  57.686  1.00  0.00    -0.271 OA
HETATM    8  H   UNL     1       4.298  27.894  55.598  1.00  0.00     0.139 HD
BRANCH   6   9
HETATM    9  C   UNL     1       6.651  27.594  55.541  1.00  0.00     0.138 A 
HETATM   10  O   UNL     1       6.962  26.265  55.662  1.00  0.00    -0.305 OA
HETATM   11  C   UNL     1       7.512  25.859  54.475  1.00  0.00     0.088 A 
HETATM   12  C   UNL     1       7.629  26.947  53.633  1.00  0.00     0.041 A 
HETATM   13  C   UNL     1       7.056  28.051  54.304  1.00  0.00     0.045 A 
BRANCH  11  14
HETATM   14  C   UNL     1       7.827  24.434  54.370  1.00  0.00     0.020 A 
HETATM   15  C   UNL     1       8.449  23.700  55.400  1.00  0.00     0.048 A 
HETATM   16 CL   UNL     1       8.973  24.419  56.887  1.00  0.00    -0.083 Cl
HETATM   17  C   UNL     1       8.719  22.334  55.248  1.00  0.00     0.048 A 
HETATM   18  C   UNL     1       8.379  21.686  54.066  1.00  0.00     0.035 A 
HETATM   19 CL   UNL     1       8.717  20.011  53.881  1.00  0.00    -0.084 Cl
HETATM   20  C   UNL     1       7.775  22.390  53.030  1.00  0.00     0.025 A 
HETATM   21  C   UNL     1       7.502  23.754  53.182  1.00  0.00     0.017 A 
ENDBRANCH  11  14
ENDBRANCH   6   9
ENDBRANCH   2   5
BRANCH   1  22
HETATM   22  C   UNL     1       3.666  30.024  53.864  1.00  0.00     0.034 A 
HETATM   23  C   UNL     1       3.934  31.122  53.054  1.00  0.00     0.032 A 
HETATM   24  C   UNL     1       4.247  30.946  51.695  1.00  0.00     0.031 A 
HETATM   25  C   UNL     1       4.307  29.674  51.114  1.00  0.00     0.030 A 
HETATM   26  C   UNL     1       3.961  28.588  51.935  1.00  0.00     0.031 A 
HETATM   27  C   UNL     1       3.634  28.758  53.284  1.00  0.00     0.032 A 
BRANCH  25  28
HETATM   28  N   UNL     1       4.661  29.439  49.786  1.00  0.00    -0.378 N 
HETATM   29  C   UNL     1       3.729  29.965  48.766  1.00  0.00     0.150 C 
HETATM   30  C   UNL     1       2.750  28.869  48.293  1.00  0.00     0.254 C 
HETATM   31  N   UNL     1       3.532  27.654  47.776  1.00  0.00    -0.068 N 
HETATM   32  H   UNL     1       4.154  27.989  47.029  1.00  0.00     0.280 HD
HETATM   33  C   UNL     1       4.440  27.115  48.891  1.00  0.00     0.254 C 
HETATM   34  C   UNL     1       5.387  28.220  49.403  1.00  0.00     0.150 C 
BRANCH  31  35
HETATM   35  C   UNL     1       2.658  26.565  47.206  1.00  0.00     0.230 C 
HETATM   36  C   UNL     1       3.062  25.206  47.748  1.00  0.00     0.034 C 
ENDBRANCH  31  35
ENDBRANCH  25  28
ENDBRANCH   1  22
TORSDOF 6
ENDMDL
MODEL 7
REMARK VINA RESULT:      -9.6      4.889     11.658
REMARK  6 active torsions:
REMARK  status: ('A' for Active; 'I' for Inactive)
REMARK    1  A    between atoms: C_2  and  N_3 
REMARK    2  A    between atoms: N_7  and  C_8 
REMARK    3  A    between atoms: C_11  and  N_12 
REMARK    4  A    between atoms: C_13  and  N_14 
REMARK       I    between atoms: N_14  and  C_15 
REMARK    5  A    between atoms: C_15  and  C_16 
REMARK    6  A    between atoms: C_18  and  C_19 
ROOT
HETATM    1  N   UNL     1       4.883  31.812  56.302  1.00  0.00    -0.338 N 
HETATM    2  C   UNL     1       5.000  30.549  55.850  1.00  0.00     0.157 C 
HETATM    3  S   UNL     1       4.432  30.205  54.310  1.00  0.00    -0.047 SA
HETATM    4  H   UNL     1       4.705  32.481  55.558  1.00  0.00     0.168 HD
ENDROOT
BRANCH   2   5
HETATM    5  N   UNL     1       5.650  29.554  56.511  1.00  0.00    -0.199 NA
HETATM    6  C   UNL     1       6.586  28.680  55.963  1.00  0.00     0.261 C 
HETATM    7  O   UNL     1       7.700  29.003  55.567  1.00  0.00    -0.271 OA
HETATM    8  H   UNL     1       4.955  29.051  57.056  1.00  0.00     0.139 HD
BRANCH   6   9
HETATM    9  C   UNL     1       6.186  27.288  56.054  1.00  0.00     0.138 A 
HETATM   10  O   UNL     1       6.806  26.354  55.266  1.00  0.00    -0.305 OA
HETATM   11  C   UNL     1       6.309  25.125  55.613  1.00  0.00     0.088 A 
HETATM   12  C   UNL     1       5.316  25.286  56.558  1.00  0.00     0.041 A 
HETATM   13  C   UNL     1       5.254  26.666  56.858  1.00  0.00     0.045 A 
BRANCH  11  14
HETATM   14  C   UNL     1       6.922  23.976  54.943  1.00  0.00     0.020 A 
HETATM   15  C   UNL     1       6.904  23.794  53.545  1.00  0.00     0.048 A 
HETATM   16 CL   UNL     1       6.098  24.880  52.463  1.00  0.00    -0.083 Cl
HETATM   17  C   UNL     1       7.514  22.679  52.958  1.00  0.00     0.048 A 
HETATM   18  C   UNL     1       8.141  21.728  53.757  1.00  0.00     0.035 A 
HETATM   19 CL   UNL     1       8.883  20.358  53.032  1.00  0.00    -0.084 Cl
HETATM   20  C   UNL     1       8.162  21.878  55.139  1.00  0.00     0.025 A 
HETATM   21  C   UNL     1       7.556  22.994  55.727  1.00  0.00     0.017 A 
ENDBRANCH  11  14
ENDBRANCH   6   9
ENDBRANCH   2   5
BRANCH   1  22
HETATM   22  C   UNL     1       4.719  32.331  57.596  1.00  0.00     0.034 A 
HETATM   23  C   UNL     1       5.536  32.009  58.675  1.00  0.00     0.032 A 
HETATM   24  C   UNL     1       5.299  32.568  59.942  1.00  0.00     0.031 A 
HETATM   25  C   UNL     1       4.248  33.466  60.163  1.00  0.00     0.030 A 
HETATM   26  C   UNL     1       3.394  33.718  59.076  1.00  0.00     0.031 A 
HETATM   27  C   UNL     1       3.615  33.152  57.817  1.00  0.00     0.032 A 
BRANCH  25  28
HETATM   28  N   UNL     1       3.999  34.089  61.386  1.00  0.00    -0.378 N 
HETATM   29  C   UNL     1       4.744  35.341  61.636  1.00  0.00     0.150 C 
HETATM   30  C   UNL     1       6.014  35.072  62.473  1.00  0.00     0.254 C 
HETATM   31  N   UNL     1       5.641  34.360  63.780  1.00  0.00    -0.068 N 
HETATM   32  H   UNL     1       4.957  34.956  64.266  1.00  0.00     0.280 HD
HETATM   33  C   UNL     1       4.921  33.042  63.460  1.00  0.00     0.254 C 
HETATM   34  C   UNL     1       3.678  33.299  62.583  1.00  0.00     0.150 C 
BRANCH  31  35
HETATM   35  C   UNL     1       6.809  34.136  64.707  1.00  0.00     0.230 C 
HETATM   36  C   UNL     1       7.708  33.030  64.187  1.00  0.00     0.034 C 
ENDBRANCH  31  35
ENDBRANCH  25  28
ENDBRANCH   1  22
TORSDOF 6
ENDMDL
MODEL 8
REMARK VINA RESULT:      -9.4      3.673      4.555
REMARK  6 active torsions:
REMARK  status: ('A' for Active; 'I' for Inactive)
REMARK    1  A    between atoms: C_2  and  N_3 
REMARK    2  A    between atoms: N_7  and  C_8 
REMARK    3  A    between atoms: C_11  and  N_12 
REMARK    4  A    between atoms: C_13  and  N_14 
REMARK       I    between atoms: N_14  and  C_15 
REMARK    5  A    between atoms: C_15  and  C_16 
REMARK    6  A    between atoms: C_18  and  C_19 
ROOT
HETATM    1  N   UNL     1       4.271  29.438  56.589  1.00  0.00    -0.338 N 
HETATM    2  C   UNL     1       4.766  30.394  57.398  1.00  0.00     0.157 C 
HETATM    3  S   UNL     1       3.749  31.048  58.560  1.00  0.00    -0.047 SA
HETATM    4  H   UNL     1       3.413  29.026  56.945  1.00  0.00     0.168 HD
ENDROOT
BRANCH   2   5
HETATM    5  N   UNL     1       6.067  30.788  57.414  1.00  0.00    -0.199 NA
HETATM    6  C   UNL     1       7.099  30.178  58.124  1.00  0.00     0.261 C 
HETATM    7  O   UNL     1       7.548  29.062  57.889  1.00  0.00    -0.271 OA
HETATM    8  H   UNL     1       6.076  31.794  57.550  1.00  0.00     0.139 HD
BRANCH   6   9
HETATM    9  C   UNL     1       7.731  31.063  59.085  1.00  0.00     0.138 A 
HETATM   10  O   UNL     1       7.002  31.543  60.141  1.00  0.00    -0.305 OA
HETATM   11  C   UNL     1       7.852  32.271  60.933  1.00  0.00     0.088 A 
HETATM   12  C   UNL     1       9.096  32.323  60.336  1.00  0.00     0.041 A 
HETATM   13  C   UNL     1       9.025  31.532  59.167  1.00  0.00     0.045 A 
BRANCH  11  14
HETATM   14  C   UNL     1       7.280  32.792  62.175  1.00  0.00     0.020 A 
HETATM   15  C   UNL     1       6.053  33.485  62.232  1.00  0.00     0.048 A 
HETATM   16 CL   UNL     1       5.113  33.856  60.825  1.00  0.00    -0.083 Cl
HETATM   17  C   UNL     1       5.548  33.955  63.451  1.00  0.00     0.048 A 
HETATM   18  C   UNL     1       6.264  33.747  64.625  1.00  0.00     0.035 A 
HETATM   19 CL   UNL     1       5.644  34.330  66.119  1.00  0.00    -0.084 Cl
HETATM   20  C   UNL     1       7.481  33.077  64.595  1.00  0.00     0.025 A 
HETATM   21  C   UNL     1       7.985  32.604  63.378  1.00  0.00     0.017 A 
ENDBRANCH  11  14
ENDBRANCH   6   9
ENDBRANCH   2   5
BRANCH   1  22
HETATM   22  C   UNL     1       4.574  29.086  55.263  1.00  0.00     0.034 A 
HETATM   23  C   UNL     1       3.921  29.604  54.150  1.00  0.00     0.032 A 
HETATM   24  C   UNL     1       4.281  29.194  52.856  1.00  0.00     0.031 A 
HETATM   25  C   UNL     1       5.304  28.263  52.638  1.00  0.00     0.030 A 
HETATM   26  C   UNL     1       5.898  27.701  53.780  1.00  0.00     0.031 A 
HETATM   27  C   UNL     1       5.533  28.093  55.071  1.00  0.00     0.032 A 
BRANCH  25  28
HETATM   28  N   UNL     1       5.736  27.860  51.375  1.00  0.00    -0.378 N 
HETATM   29  C   UNL     1       5.398  28.766  50.258  1.00  0.00     0.150 C 
HETATM   30  C   UNL     1       4.111  28.303  49.539  1.00  0.00     0.254 C 
HETATM   31  N   UNL     1       4.266  26.851  49.067  1.00  0.00    -0.068 N 
HETATM   32  H   UNL     1       5.099  26.814  48.466  1.00  0.00     0.280 HD
HETATM   33  C   UNL     1       4.560  25.948  50.274  1.00  0.00     0.254 C 
HETATM   34  C   UNL     1       5.817  26.434  51.025  1.00  0.00     0.150 C 
BRANCH  31  35
HETATM   35  C   UNL     1       3.091  26.340  48.273  1.00  0.00     0.230 C 
HETATM   36  C   UNL     1       3.111  24.825  48.189  1.00  0.00     0.034 C 
ENDBRANCH  31  35
ENDBRANCH  25  28
ENDBRANCH   1  22
TORSDOF 6
ENDMDL
MODEL 9
REMARK VINA RESULT:      -9.4      6.690     10.029
REMARK  6 active torsions:
REMARK  status: ('A' for Active; 'I' for Inactive)
REMARK    1  A    between atoms: C_2  and  N_3 
REMARK    2  A    between atoms: N_7  and  C_8 
REMARK    3  A    between atoms: C_11  and  N_12 
REMARK    4  A    between atoms: C_13  and  N_14 
REMARK       I    between atoms: N_14  and  C_15 
REMARK    5  A    between atoms: C_15  and  C_16 
REMARK    6  A    between atoms: C_18  and  C_19 
ROOT
HETATM    1  N   UNL     1       3.176  30.281  55.249  1.00  0.00    -0.338 N 
HETATM    2  C   UNL     1       3.812  29.907  56.376  1.00  0.00     0.157 C 
HETATM    3  S   UNL     1       3.611  30.852  57.746  1.00  0.00    -0.047 SA
HETATM    4  H   UNL     1       2.428  30.947  55.422  1.00  0.00     0.168 HD
ENDROOT
BRANCH   2   5
HETATM    5  N   UNL     1       4.518  28.753  56.511  1.00  0.00    -0.199 NA
HETATM    6  C   UNL     1       5.890  28.652  56.724  1.00  0.00     0.261 C 
HETATM    7  O   UNL     1       6.470  29.004  57.746  1.00  0.00    -0.271 OA
HETATM    8  H   UNL     1       4.217  28.127  55.770  1.00  0.00     0.139 HD
BRANCH   6   9
HETATM    9  C   UNL     1       6.578  27.922  55.675  1.00  0.00     0.138 A 
HETATM   10  O   UNL     1       6.763  26.571  55.801  1.00  0.00    -0.305 OA
HETATM   11  C   UNL     1       7.349  26.124  54.645  1.00  0.00     0.088 A 
HETATM   12  C   UNL     1       7.612  27.202  53.823  1.00  0.00     0.041 A 
HETATM   13  C   UNL     1       7.098  28.348  54.470  1.00  0.00     0.045 A 
BRANCH  11  14
HETATM   14  C   UNL     1       7.543  24.677  54.546  1.00  0.00     0.020 A 
HETATM   15  C   UNL     1       7.731  24.003  53.322  1.00  0.00     0.048 A 
HETATM   16 CL   UNL     1       7.689  24.806  51.787  1.00  0.00    -0.083 Cl
HETATM   17  C   UNL     1       7.921  22.616  53.286  1.00  0.00     0.048 A 
HETATM   18  C   UNL     1       7.917  21.884  54.469  1.00  0.00     0.035 A 
HETATM   19 CL   UNL     1       8.145  20.181  54.420  1.00  0.00    -0.084 Cl
HETATM   20  C   UNL     1       7.722  22.523  55.688  1.00  0.00     0.025 A 
HETATM   21  C   UNL     1       7.536  23.909  55.725  1.00  0.00     0.017 A 
ENDBRANCH  11  14
ENDBRANCH   6   9
ENDBRANCH   2   5
BRANCH   1  22
HETATM   22  C   UNL     1       3.503  30.119  53.892  1.00  0.00     0.034 A 
HETATM   23  C   UNL     1       3.594  31.167  52.982  1.00  0.00     0.032 A 
HETATM   24  C   UNL     1       3.921  30.918  51.639  1.00  0.00     0.031 A 
HETATM   25  C   UNL     1       4.171  29.622  51.171  1.00  0.00     0.030 A 
HETATM   26  C   UNL     1       4.001  28.576  52.093  1.00  0.00     0.031 A 
HETATM   27  C   UNL     1       3.661  28.816  53.427  1.00  0.00     0.032 A 
BRANCH  25  28
HETATM   28  N   UNL     1       4.548  29.324  49.862  1.00  0.00    -0.378 N 
HETATM   29  C   UNL     1       3.750  29.968  48.798  1.00  0.00     0.150 C 
HETATM   30  C   UNL     1       2.646  29.019  48.283  1.00  0.00     0.254 C 
HETATM   31  N   UNL     1       3.267  27.698  47.809  1.00  0.00    -0.068 N 
HETATM   32  H   UNL     1       3.964  27.932  47.090  1.00  0.00     0.280 HD
HETATM   33  C   UNL     1       4.035  27.047  48.968  1.00  0.00     0.254 C 
HETATM   34  C   UNL     1       5.108  28.009  49.519  1.00  0.00     0.150 C 
BRANCH  31  35
HETATM   35  C   UNL     1       2.272  26.741  47.203  1.00  0.00     0.230 C 
HETATM   36  C   UNL     1       1.000  27.465  46.801  1.00  0.00     0.034 C 
ENDBRANCH  31  35
ENDBRANCH  25  28
ENDBRANCH   1  22
TORSDOF 6
ENDMDL
MODEL 10
REMARK VINA RESULT:      -9.3      5.425     11.289
REMARK  6 active torsions:
REMARK  status: ('A' for Active; 'I' for Inactive)
REMARK    1  A    between atoms: C_2  and  N_3 
REMARK    2  A    between atoms: N_7  and  C_8 
REMARK    3  A    between atoms: C_11  and  N_12 
REMARK    4  A    between atoms: C_13  and  N_14 
REMARK       I    between atoms: N_14  and  C_15 
REMARK    5  A    between atoms: C_15  and  C_16 
REMARK    6  A    between atoms: C_18  and  C_19 
ROOT
HETATM    1  N   UNL     1       7.176  24.444  57.020  1.00  0.00    -0.338 N 
HETATM    2  C   UNL     1       7.336  23.615  55.971  1.00  0.00     0.157 C 
HETATM    3  S   UNL     1       8.077  22.135  56.239  1.00  0.00    -0.047 SA
HETATM    4  H   UNL     1       7.281  23.971  57.914  1.00  0.00     0.168 HD
ENDROOT
BRANCH   2   5
HETATM    5  N   UNL     1       6.838  23.847  54.727  1.00  0.00    -0.199 NA
HETATM    6  C   UNL     1       7.562  24.295  53.625  1.00  0.00     0.261 C 
HETATM    7  O   UNL     1       8.427  23.650  53.044  1.00  0.00    -0.271 OA
HETATM    8  H   UNL     1       5.980  24.378  54.841  1.00  0.00     0.139 HD
BRANCH   6   9
HETATM    9  C   UNL     1       7.078  25.559  53.101  1.00  0.00     0.138 A 
HETATM   10  O   UNL     1       6.371  25.579  51.928  1.00  0.00    -0.305 OA
HETATM   11  C   UNL     1       5.961  26.869  51.713  1.00  0.00     0.088 A 
HETATM   12  C   UNL     1       6.479  27.681  52.703  1.00  0.00     0.041 A 
HETATM   13  C   UNL     1       7.173  26.841  53.603  1.00  0.00     0.045 A 
BRANCH  11  14
HETATM   14  C   UNL     1       5.102  27.081  50.548  1.00  0.00     0.020 A 
HETATM   15  C   UNL     1       4.796  28.358  50.033  1.00  0.00     0.048 A 
HETATM   16 CL   UNL     1       5.352  29.827  50.762  1.00  0.00    -0.083 Cl
HETATM   17  C   UNL     1       3.973  28.501  48.908  1.00  0.00     0.048 A 
HETATM   18  C   UNL     1       3.440  27.375  48.290  1.00  0.00     0.035 A 
HETATM   19 CL   UNL     1       2.426  27.556  46.913  1.00  0.00    -0.084 Cl
HETATM   20  C   UNL     1       3.717  26.106  48.785  1.00  0.00     0.025 A 
HETATM   21  C   UNL     1       4.541  25.961  49.906  1.00  0.00     0.017 A 
ENDBRANCH  11  14
ENDBRANCH   6   9
ENDBRANCH   2   5
BRANCH   1  22
HETATM   22  C   UNL     1       7.138  25.845  57.109  1.00  0.00     0.034 A 
HETATM   23  C   UNL     1       5.969  26.597  57.077  1.00  0.00     0.032 A 
HETATM   24  C   UNL     1       6.019  27.998  57.165  1.00  0.00     0.031 A 
HETATM   25  C   UNL     1       7.233  28.683  57.293  1.00  0.00     0.030 A 
HETATM   26  C   UNL     1       8.403  27.907  57.249  1.00  0.00     0.031 A 
HETATM   27  C   UNL     1       8.360  26.513  57.146  1.00  0.00     0.032 A 
BRANCH  25  28
HETATM   28  N   UNL     1       7.337  30.067  57.435  1.00  0.00    -0.378 N 
HETATM   29  C   UNL     1       8.424  30.546  58.315  1.00  0.00     0.150 C 
HETATM   30  C   UNL     1       7.899  30.828  59.739  1.00  0.00     0.254 C 
HETATM   31  N   UNL     1       6.732  31.824  59.682  1.00  0.00    -0.068 N 
HETATM   32  H   UNL     1       7.076  32.667  59.204  1.00  0.00     0.280 HD
HETATM   33  C   UNL     1       5.611  31.251  58.803  1.00  0.00     0.254 C 
HETATM   34  C   UNL     1       6.141  30.921  57.392  1.00  0.00     0.150 C 
BRANCH  31  35
HETATM   35  C   UNL     1       6.213  32.232  61.038  1.00  0.00     0.230 C 
HETATM   36  C   UNL     1       5.202  33.357  60.914  1.00  0.00     0.034 C 
ENDBRANCH  31  35
ENDBRANCH  25  28
ENDBRANCH   1  22
TORSDOF 6
ENDMDL
