MODEL 1
REMARK VINA RESULT:      -9.0      0.000      0.000
REMARK  5 active torsions:
REMARK  status: ('A' for Active; 'I' for Inactive)
REMARK    1  A    between atoms: C_2  and  C_3 
REMARK    2  A    between atoms: C_3  and  O_4 
REMARK    3  A    between atoms: O_4  and  C_5 
REMARK    4  A    between atoms: C_8  and  C_9 
REMARK    5  A    between atoms: C_15  and  C_16 
ROOT
HETATM    1  C   UNL     1       5.571  25.306  54.204  1.00  0.00     0.066 C 
HETATM    2  C   UNL     1       6.621  24.767  53.301  1.00  0.00     0.028 A 
HETATM    3  C   UNL     1       6.840  25.261  52.040  1.00  0.00     0.133 A 
HETATM    4  N   UNL     1       7.896  24.583  51.521  1.00  0.00    -0.261 N 
HETATM    5  H   UNL     1       8.346  24.689  50.618  1.00  0.00     0.191 HD
HETATM    6  N   UNL     1       8.369  23.647  52.356  1.00  0.00    -0.172 NA
HETATM    7  C   UNL     1       7.596  23.734  53.455  1.00  0.00     0.098 A 
HETATM    8  N   UNL     1       6.102  26.288  51.509  1.00  0.00    -0.312 N 
HETATM    9  C   UNL     1       4.972  26.793  52.225  1.00  0.00     0.224 C 
HETATM   10  O   UNL     1       4.415  27.758  51.726  1.00  0.00    -0.273 OA
HETATM   11  C   UNL     1       4.469  26.037  53.429  1.00  0.00     0.117 C 
HETATM   12  H   UNL     1       6.334  26.730  50.627  1.00  0.00     0.170 HD
ENDROOT
BRANCH   1  13
HETATM   13  C   UNL     1       6.262  26.200  55.222  1.00  0.00    -0.049 A 
HETATM   14  C   UNL     1       6.037  26.112  56.606  1.00  0.00     0.010 A 
HETATM   15  C   UNL     1       6.777  26.888  57.500  1.00  0.00     0.037 A 
HETATM   16  C   UNL     1       7.769  27.747  57.038  1.00  0.00     0.069 A 
HETATM   17  C   UNL     1       7.970  27.892  55.668  1.00  0.00     0.037 A 
HETATM   18  C   UNL     1       7.226  27.120  54.769  1.00  0.00     0.010 A 
BRANCH  16  19
HETATM   19  O   UNL     1       8.470  28.418  58.000  1.00  0.00    -0.348 OA
BRANCH  19  20
HETATM   20  C   UNL     1       8.575  29.828  57.791  1.00  0.00     0.202 C 
BRANCH  20  21
HETATM   21  C   UNL     1      10.031  30.180  57.850  1.00  0.00    -0.011 C 
HETATM   22  C   UNL     1      10.959  29.725  56.998  1.00  0.00     0.009 C 
ENDBRANCH  20  21
ENDBRANCH  19  20
ENDBRANCH  16  19
ENDBRANCH   1  13
BRANCH   7  23
HETATM   23  C   UNL     1       7.836  22.858  54.599  1.00  0.00    -0.005 A 
HETATM   24  C   UNL     1       7.667  21.474  54.462  1.00  0.00     0.014 A 
HETATM   25  C   UNL     1       7.890  20.620  55.544  1.00  0.00     0.001 A 
HETATM   26  C   UNL     1       8.281  21.144  56.775  1.00  0.00     0.000 A 
HETATM   27  C   UNL     1       8.438  22.520  56.928  1.00  0.00     0.001 A 
HETATM   28  C   UNL     1       8.211  23.375  55.846  1.00  0.00     0.014 A 
ENDBRANCH   7  23
TORSDOF 5
ENDMDL
MODEL 2
REMARK VINA RESULT:      -8.6      2.299      5.896
REMARK  5 active torsions:
REMARK  status: ('A' for Active; 'I' for Inactive)
REMARK    1  A    between atoms: C_2  and  C_3 
REMARK    2  A    between atoms: C_3  and  O_4 
REMARK    3  A    between atoms: O_4  and  C_5 
REMARK    4  A    between atoms: C_8  and  C_9 
REMARK    5  A    between atoms: C_15  and  C_16 
ROOT
HETATM    1  C   UNL     1       7.099  26.459  53.838  1.00  0.00     0.066 C 
HETATM    2  C   UNL     1       6.052  27.325  54.440  1.00  0.00     0.028 A 
HETATM    3  C   UNL     1       4.739  27.284  54.045  1.00  0.00     0.133 A 
HETATM    4  N   UNL     1       4.056  28.156  54.831  1.00  0.00    -0.261 N 
HETATM    5  H   UNL     1       3.066  28.377  54.834  1.00  0.00     0.191 HD
HETATM    6  N   UNL     1       4.848  28.794  55.704  1.00  0.00    -0.172 NA
HETATM    7  C   UNL     1       6.082  28.306  55.478  1.00  0.00     0.098 A 
HETATM    8  N   UNL     1       4.289  26.446  53.057  1.00  0.00    -0.312 N 
HETATM    9  C   UNL     1       5.225  25.668  52.305  1.00  0.00     0.224 C 
HETATM   10  O   UNL     1       4.743  24.888  51.500  1.00  0.00    -0.273 OA
HETATM   11  C   UNL     1       6.699  25.958  52.447  1.00  0.00     0.117 C 
HETATM   12  H   UNL     1       3.305  26.331  52.842  1.00  0.00     0.170 HD
ENDROOT
BRANCH   1  13
HETATM   13  C   UNL     1       7.366  25.324  54.815  1.00  0.00    -0.049 A 
HETATM   14  C   UNL     1       6.877  24.019  54.635  1.00  0.00     0.010 A 
HETATM   15  C   UNL     1       7.240  22.993  55.509  1.00  0.00     0.037 A 
HETATM   16  C   UNL     1       8.113  23.240  56.565  1.00  0.00     0.069 A 
HETATM   17  C   UNL     1       8.565  24.536  56.795  1.00  0.00     0.037 A 
HETATM   18  C   UNL     1       8.198  25.567  55.924  1.00  0.00     0.010 A 
BRANCH  16  19
HETATM   19  O   UNL     1       8.446  22.155  57.326  1.00  0.00    -0.348 OA
BRANCH  19  20
HETATM   20  C   UNL     1       8.062  20.895  56.771  1.00  0.00     0.202 C 
BRANCH  20  21
HETATM   21  C   UNL     1       9.172  20.449  55.867  1.00  0.00    -0.011 C 
HETATM   22  C   UNL     1       8.995  19.908  54.655  1.00  0.00     0.009 C 
ENDBRANCH  20  21
ENDBRANCH  19  20
ENDBRANCH  16  19
ENDBRANCH   1  13
BRANCH   7  23
HETATM   23  C   UNL     1       7.218  28.772  56.271  1.00  0.00    -0.005 A 
HETATM   24  C   UNL     1       7.086  28.913  57.659  1.00  0.00     0.014 A 
HETATM   25  C   UNL     1       8.159  29.358  58.433  1.00  0.00     0.001 A 
HETATM   26  C   UNL     1       9.374  29.670  57.826  1.00  0.00     0.000 A 
HETATM   27  C   UNL     1       9.513  29.548  56.444  1.00  0.00     0.001 A 
HETATM   28  C   UNL     1       8.438  29.106  55.668  1.00  0.00     0.014 A 
ENDBRANCH   7  23
TORSDOF 5
ENDMDL
MODEL 3
REMARK VINA RESULT:      -8.4      1.785      2.882
REMARK  5 active torsions:
REMARK  status: ('A' for Active; 'I' for Inactive)
REMARK    1  A    between atoms: C_2  and  C_3 
REMARK    2  A    between atoms: C_3  and  O_4 
REMARK    3  A    between atoms: O_4  and  C_5 
REMARK    4  A    between atoms: C_8  and  C_9 
REMARK    5  A    between atoms: C_15  and  C_16 
ROOT
HETATM    1  C   UNL     1       5.436  27.235  55.147  1.00  0.00     0.066 C 
HETATM    2  C   UNL     1       5.613  26.985  53.692  1.00  0.00     0.028 A 
HETATM    3  C   UNL     1       5.178  27.862  52.731  1.00  0.00     0.133 A 
HETATM    4  N   UNL     1       5.546  27.352  51.527  1.00  0.00    -0.261 N 
HETATM    5  H   UNL     1       5.406  27.735  50.598  1.00  0.00     0.191 HD
HETATM    6  N   UNL     1       6.173  26.173  51.636  1.00  0.00    -0.172 NA
HETATM    7  C   UNL     1       6.219  25.921  52.957  1.00  0.00     0.098 A 
HETATM    8  N   UNL     1       4.538  29.036  53.035  1.00  0.00    -0.312 N 
HETATM    9  C   UNL     1       4.184  29.320  54.392  1.00  0.00     0.224 C 
HETATM   10  O   UNL     1       3.690  30.418  54.593  1.00  0.00    -0.273 OA
HETATM   11  C   UNL     1       4.303  28.227  55.424  1.00  0.00     0.117 C 
HETATM   12  H   UNL     1       4.319  29.737  52.337  1.00  0.00     0.170 HD
ENDROOT
BRANCH   1  13
HETATM   13  C   UNL     1       6.775  27.709  55.691  1.00  0.00    -0.049 A 
HETATM   14  C   UNL     1       7.640  28.559  54.982  1.00  0.00     0.010 A 
HETATM   15  C   UNL     1       8.808  29.045  55.574  1.00  0.00     0.037 A 
HETATM   16  C   UNL     1       9.125  28.714  56.888  1.00  0.00     0.069 A 
HETATM   17  C   UNL     1       8.312  27.829  57.589  1.00  0.00     0.037 A 
HETATM   18  C   UNL     1       7.144  27.336  56.997  1.00  0.00     0.010 A 
BRANCH  16  19
HETATM   19  O   UNL     1      10.261  29.287  57.386  1.00  0.00    -0.348 OA
BRANCH  19  20
HETATM   20  C   UNL     1      10.250  30.716  57.408  1.00  0.00     0.202 C 
BRANCH  20  21
HETATM   21  C   UNL     1       9.316  31.138  58.503  1.00  0.00    -0.011 C 
HETATM   22  C   UNL     1       9.687  31.806  59.603  1.00  0.00     0.009 C 
ENDBRANCH  20  21
ENDBRANCH  19  20
ENDBRANCH  16  19
ENDBRANCH   1  13
BRANCH   7  23
HETATM   23  C   UNL     1       6.857  24.704  53.456  1.00  0.00    -0.005 A 
HETATM   24  C   UNL     1       6.657  24.310  54.786  1.00  0.00     0.014 A 
HETATM   25  C   UNL     1       7.258  23.151  55.282  1.00  0.00     0.001 A 
HETATM   26  C   UNL     1       8.068  22.378  54.453  1.00  0.00     0.000 A 
HETATM   27  C   UNL     1       8.286  22.767  53.132  1.00  0.00     0.001 A 
HETATM   28  C   UNL     1       7.687  23.929  52.637  1.00  0.00     0.014 A 
ENDBRANCH   7  23
TORSDOF 5
ENDMDL
MODEL 4
REMARK VINA RESULT:      -8.3      2.980      6.076
REMARK  5 active torsions:
REMARK  status: ('A' for Active; 'I' for Inactive)
REMARK    1  A    between atoms: C_2  and  C_3 
REMARK    2  A    between atoms: C_3  and  O_4 
REMARK    3  A    between atoms: O_4  and  C_5 
REMARK    4  A    between atoms: C_8  and  C_9 
REMARK    5  A    between atoms: C_15  and  C_16 
ROOT
HETATM    1  C   UNL     1       6.488  27.769  54.840  1.00  0.00     0.066 C 
HETATM    2  C   UNL     1       5.873  26.781  55.764  1.00  0.00     0.028 A 
HETATM    3  C   UNL     1       4.972  27.136  56.736  1.00  0.00     0.133 A 
HETATM    4  N   UNL     1       4.576  25.993  57.353  1.00  0.00    -0.261 N 
HETATM    5  H   UNL     1       3.910  25.869  58.108  1.00  0.00     0.191 HD
HETATM    6  N   UNL     1       5.187  24.905  56.865  1.00  0.00    -0.172 NA
HETATM    7  C   UNL     1       5.996  25.364  55.892  1.00  0.00     0.098 A 
HETATM    8  N   UNL     1       4.573  28.433  56.937  1.00  0.00    -0.312 N 
HETATM    9  C   UNL     1       5.201  29.490  56.207  1.00  0.00     0.224 C 
HETATM   10  O   UNL     1       4.737  30.606  56.382  1.00  0.00    -0.273 OA
HETATM   11  C   UNL     1       6.446  29.191  55.409  1.00  0.00     0.117 C 
HETATM   12  H   UNL     1       3.826  28.684  57.574  1.00  0.00     0.170 HD
ENDROOT
BRANCH   1  13
HETATM   13  C   UNL     1       5.768  27.652  53.505  1.00  0.00    -0.049 A 
HETATM   14  C   UNL     1       4.535  28.270  53.236  1.00  0.00     0.010 A 
HETATM   15  C   UNL     1       3.972  28.213  51.960  1.00  0.00     0.037 A 
HETATM   16  C   UNL     1       4.633  27.561  50.923  1.00  0.00     0.069 A 
HETATM   17  C   UNL     1       5.827  26.894  51.181  1.00  0.00     0.037 A 
HETATM   18  C   UNL     1       6.391  26.944  52.460  1.00  0.00     0.010 A 
BRANCH  16  19
HETATM   19  O   UNL     1       4.020  27.613  49.703  1.00  0.00    -0.348 OA
BRANCH  19  20
HETATM   20  C   UNL     1       4.687  26.887  48.668  1.00  0.00     0.202 C 
BRANCH  20  21
HETATM   21  C   UNL     1       3.628  26.263  47.808  1.00  0.00    -0.011 C 
HETATM   22  C   UNL     1       3.071  25.067  48.034  1.00  0.00     0.009 C 
ENDBRANCH  20  21
ENDBRANCH  19  20
ENDBRANCH  16  19
ENDBRANCH   1  13
BRANCH   7  23
HETATM   23  C   UNL     1       6.820  24.439  55.117  1.00  0.00    -0.005 A 
HETATM   24  C   UNL     1       7.995  23.918  55.678  1.00  0.00     0.014 A 
HETATM   25  C   UNL     1       8.797  23.034  54.954  1.00  0.00     0.001 A 
HETATM   26  C   UNL     1       8.433  22.664  53.660  1.00  0.00     0.000 A 
HETATM   27  C   UNL     1       7.274  23.185  53.087  1.00  0.00     0.001 A 
HETATM   28  C   UNL     1       6.474  24.074  53.810  1.00  0.00     0.014 A 
ENDBRANCH   7  23
TORSDOF 5
ENDMDL
MODEL 5
REMARK VINA RESULT:      -8.2     11.087     14.598
REMARK  5 active torsions:
REMARK  status: ('A' for Active; 'I' for Inactive)
REMARK    1  A    between atoms: C_2  and  C_3 
REMARK    2  A    between atoms: C_3  and  O_4 
REMARK    3  A    between atoms: O_4  and  C_5 
REMARK    4  A    between atoms: C_8  and  C_9 
REMARK    5  A    between atoms: C_15  and  C_16 
ROOT
HETATM    1  C   UNL     1       5.840  33.743  63.606  1.00  0.00     0.066 C 
HETATM    2  C   UNL     1       4.671  34.362  62.928  1.00  0.00     0.028 A 
HETATM    3  C   UNL     1       3.605  33.629  62.473  1.00  0.00     0.133 A 
HETATM    4  N   UNL     1       2.703  34.506  61.962  1.00  0.00    -0.261 N 
HETATM    5  H   UNL     1       1.793  34.326  61.552  1.00  0.00     0.191 HD
HETATM    6  N   UNL     1       3.127  35.777  62.026  1.00  0.00    -0.172 NA
HETATM    7  C   UNL     1       4.338  35.714  62.608  1.00  0.00     0.098 A 
HETATM    8  N   UNL     1       3.536  32.265  62.601  1.00  0.00    -0.312 N 
HETATM    9  C   UNL     1       4.662  31.542  63.107  1.00  0.00     0.224 C 
HETATM   10  O   UNL     1       4.495  30.343  63.266  1.00  0.00    -0.273 OA
HETATM   11  C   UNL     1       5.980  32.256  63.265  1.00  0.00     0.117 C 
HETATM   12  H   UNL     1       2.703  31.735  62.371  1.00  0.00     0.170 HD
ENDROOT
BRANCH   1  13
HETATM   13  C   UNL     1       5.682  33.989  65.099  1.00  0.00    -0.049 A 
HETATM   14  C   UNL     1       4.434  34.107  65.734  1.00  0.00     0.010 A 
HETATM   15  C   UNL     1       4.348  34.228  67.122  1.00  0.00     0.037 A 
HETATM   16  C   UNL     1       5.498  34.211  67.906  1.00  0.00     0.069 A 
HETATM   17  C   UNL     1       6.747  34.153  67.294  1.00  0.00     0.037 A 
HETATM   18  C   UNL     1       6.837  34.037  65.902  1.00  0.00     0.010 A 
BRANCH  16  19
HETATM   19  O   UNL     1       5.298  34.281  69.256  1.00  0.00    -0.348 OA
BRANCH  19  20
HETATM   20  C   UNL     1       6.471  34.077  70.046  1.00  0.00     0.202 C 
BRANCH  20  21
HETATM   21  C   UNL     1       6.838  35.399  70.650  1.00  0.00    -0.011 C 
HETATM   22  C   UNL     1       7.824  36.190  70.206  1.00  0.00     0.009 C 
ENDBRANCH  20  21
ENDBRANCH  19  20
ENDBRANCH  16  19
ENDBRANCH   1  13
BRANCH   7  23
HETATM   23  C   UNL     1       5.104  36.934  62.856  1.00  0.00    -0.005 A 
HETATM   24  C   UNL     1       5.845  37.512  61.817  1.00  0.00     0.014 A 
HETATM   25  C   UNL     1       6.585  38.676  62.034  1.00  0.00     0.001 A 
HETATM   26  C   UNL     1       6.592  39.272  63.294  1.00  0.00     0.000 A 
HETATM   27  C   UNL     1       5.870  38.698  64.339  1.00  0.00     0.001 A 
HETATM   28  C   UNL     1       5.133  37.530  64.123  1.00  0.00     0.014 A 
ENDBRANCH   7  23
TORSDOF 5
ENDMDL
MODEL 6
REMARK VINA RESULT:      -8.0      2.900      5.684
REMARK  5 active torsions:
REMARK  status: ('A' for Active; 'I' for Inactive)
REMARK    1  A    between atoms: C_2  and  C_3 
REMARK    2  A    between atoms: C_3  and  O_4 
REMARK    3  A    between atoms: O_4  and  C_5 
REMARK    4  A    between atoms: C_8  and  C_9 
REMARK    5  A    between atoms: C_15  and  C_16 
ROOT
HETATM    1  C   UNL     1       7.839  27.757  55.175  1.00  0.00     0.066 C 
HETATM    2  C   UNL     1       7.629  26.721  56.221  1.00  0.00     0.028 A 
HETATM    3  C   UNL     1       7.460  27.030  57.547  1.00  0.00     0.133 A 
HETATM    4  N   UNL     1       7.241  25.863  58.206  1.00  0.00    -0.261 N 
HETATM    5  H   UNL     1       7.062  25.707  59.192  1.00  0.00     0.191 HD
HETATM    6  N   UNL     1       7.284  24.797  57.395  1.00  0.00    -0.172 NA
HETATM    7  C   UNL     1       7.530  25.297  56.170  1.00  0.00     0.098 A 
HETATM    8  N   UNL     1       7.481  28.319  58.015  1.00  0.00    -0.312 N 
HETATM    9  C   UNL     1       7.818  29.390  57.129  1.00  0.00     0.224 C 
HETATM   10  O   UNL     1       7.736  30.514  57.599  1.00  0.00    -0.273 OA
HETATM   11  C   UNL     1       8.373  29.066  55.765  1.00  0.00     0.117 C 
HETATM   12  H   UNL     1       7.244  28.558  58.971  1.00  0.00     0.170 HD
ENDROOT
BRANCH   1  13
HETATM   13  C   UNL     1       6.518  27.940  54.445  1.00  0.00    -0.049 A 
HETATM   14  C   UNL     1       5.278  28.026  55.101  1.00  0.00     0.010 A 
HETATM   15  C   UNL     1       4.110  28.298  54.386  1.00  0.00     0.037 A 
HETATM   16  C   UNL     1       4.155  28.511  53.011  1.00  0.00     0.069 A 
HETATM   17  C   UNL     1       5.363  28.374  52.334  1.00  0.00     0.037 A 
HETATM   18  C   UNL     1       6.535  28.096  53.046  1.00  0.00     0.010 A 
BRANCH  16  19
HETATM   19  O   UNL     1       2.964  28.824  52.420  1.00  0.00    -0.348 OA
BRANCH  19  20
HETATM   20  C   UNL     1       2.982  30.017  51.633  1.00  0.00     0.202 C 
BRANCH  20  21
HETATM   21  C   UNL     1       2.017  29.820  50.502  1.00  0.00    -0.011 C 
HETATM   22  C   UNL     1       1.920  28.702  49.771  1.00  0.00     0.009 C 
ENDBRANCH  20  21
ENDBRANCH  19  20
ENDBRANCH  16  19
ENDBRANCH   1  13
BRANCH   7  23
HETATM   23  C   UNL     1       7.631  24.408  55.014  1.00  0.00    -0.005 A 
HETATM   24  C   UNL     1       6.744  24.561  53.940  1.00  0.00     0.014 A 
HETATM   25  C   UNL     1       6.824  23.721  52.828  1.00  0.00     0.001 A 
HETATM   26  C   UNL     1       7.789  22.717  52.781  1.00  0.00     0.000 A 
HETATM   27  C   UNL     1       8.668  22.546  53.850  1.00  0.00     0.001 A 
HETATM   28  C   UNL     1       8.585  23.385  54.965  1.00  0.00     0.014 A 
ENDBRANCH   7  23
TORSDOF 5
ENDMDL
MODEL 7
REMARK VINA RESULT:      -7.9      8.086     11.442
REMARK  5 active torsions:
REMARK  status: ('A' for Active; 'I' for Inactive)
REMARK    1  A    between atoms: C_2  and  C_3 
REMARK    2  A    between atoms: C_3  and  O_4 
REMARK    3  A    between atoms: O_4  and  C_5 
REMARK    4  A    between atoms: C_8  and  C_9 
REMARK    5  A    between atoms: C_15  and  C_16 
ROOT
HETATM    1  C   UNL     1       3.793  34.756  60.554  1.00  0.00     0.066 C 
HETATM    2  C   UNL     1       3.218  34.382  61.873  1.00  0.00     0.028 A 
HETATM    3  C   UNL     1       1.879  34.478  62.152  1.00  0.00     0.133 A 
HETATM    4  N   UNL     1       1.698  34.009  63.414  1.00  0.00    -0.261 N 
HETATM    5  H   UNL     1       0.840  33.916  63.947  1.00  0.00     0.191 HD
HETATM    6  N   UNL     1       2.846  33.635  63.995  1.00  0.00    -0.172 NA
HETATM    7  C   UNL     1       3.798  33.863  63.071  1.00  0.00     0.098 A 
HETATM    8  N   UNL     1       0.963  34.935  61.239  1.00  0.00    -0.312 N 
HETATM    9  C   UNL     1       1.411  35.459  59.986  1.00  0.00     0.224 C 
HETATM   10  O   UNL     1       0.535  35.771  59.196  1.00  0.00    -0.273 OA
HETATM   11  C   UNL     1       2.883  35.720  59.785  1.00  0.00     0.117 C 
HETATM   12  H   UNL     1      -0.036  34.900  61.402  1.00  0.00     0.170 HD
ENDROOT
BRANCH   1  13
HETATM   13  C   UNL     1       4.056  33.467  59.791  1.00  0.00    -0.049 A 
HETATM   14  C   UNL     1       3.264  32.314  59.927  1.00  0.00     0.010 A 
HETATM   15  C   UNL     1       3.490  31.194  59.124  1.00  0.00     0.037 A 
HETATM   16  C   UNL     1       4.491  31.207  58.157  1.00  0.00     0.069 A 
HETATM   17  C   UNL     1       5.323  32.317  58.044  1.00  0.00     0.037 A 
HETATM   18  C   UNL     1       5.103  33.439  58.851  1.00  0.00     0.010 A 
BRANCH  16  19
HETATM   19  O   UNL     1       4.591  30.081  57.391  1.00  0.00    -0.348 OA
BRANCH  19  20
HETATM   20  C   UNL     1       5.846  29.919  56.725  1.00  0.00     0.202 C 
BRANCH  20  21
HETATM   21  C   UNL     1       6.642  28.921  57.511  1.00  0.00    -0.011 C 
HETATM   22  C   UNL     1       7.745  29.212  58.213  1.00  0.00     0.009 C 
ENDBRANCH  20  21
ENDBRANCH  19  20
ENDBRANCH  16  19
ENDBRANCH   1  13
BRANCH   7  23
HETATM   23  C   UNL     1       5.197  33.553  63.358  1.00  0.00    -0.005 A 
HETATM   24  C   UNL     1       5.846  34.193  64.423  1.00  0.00     0.014 A 
HETATM   25  C   UNL     1       7.182  33.912  64.712  1.00  0.00     0.001 A 
HETATM   26  C   UNL     1       7.884  32.990  63.937  1.00  0.00     0.000 A 
HETATM   27  C   UNL     1       7.253  32.358  62.866  1.00  0.00     0.001 A 
HETATM   28  C   UNL     1       5.916  32.643  62.574  1.00  0.00     0.014 A 
ENDBRANCH   7  23
TORSDOF 5
ENDMDL
MODEL 8
REMARK VINA RESULT:      -7.9      2.691      5.584
REMARK  5 active torsions:
REMARK  status: ('A' for Active; 'I' for Inactive)
REMARK    1  A    between atoms: C_2  and  C_3 
REMARK    2  A    between atoms: C_3  and  O_4 
REMARK    3  A    between atoms: O_4  and  C_5 
REMARK    4  A    between atoms: C_8  and  C_9 
REMARK    5  A    between atoms: C_15  and  C_16 
ROOT
HETATM    1  C   UNL     1       6.284  27.712  52.486  1.00  0.00     0.066 C 
HETATM    2  C   UNL     1       5.313  28.098  53.543  1.00  0.00     0.028 A 
HETATM    3  C   UNL     1       3.971  28.244  53.299  1.00  0.00     0.133 A 
HETATM    4  N   UNL     1       3.379  28.546  54.483  1.00  0.00    -0.261 N 
HETATM    5  H   UNL     1       2.399  28.709  54.688  1.00  0.00     0.191 HD
HETATM    6  N   UNL     1       4.257  28.636  55.492  1.00  0.00    -0.172 NA
HETATM    7  C   UNL     1       5.455  28.373  54.937  1.00  0.00     0.098 A 
HETATM    8  N   UNL     1       3.420  28.054  52.058  1.00  0.00    -0.312 N 
HETATM    9  C   UNL     1       4.270  27.820  50.932  1.00  0.00     0.224 C 
HETATM   10  O   UNL     1       3.702  27.581  49.878  1.00  0.00    -0.273 OA
HETATM   11  C   UNL     1       5.757  28.023  51.082  1.00  0.00     0.117 C 
HETATM   12  H   UNL     1       2.419  28.050  51.898  1.00  0.00     0.170 HD
ENDROOT
BRANCH   1  13
HETATM   13  C   UNL     1       6.602  26.237  52.679  1.00  0.00    -0.049 A 
HETATM   14  C   UNL     1       7.783  25.634  52.213  1.00  0.00     0.010 A 
HETATM   15  C   UNL     1       8.068  24.300  52.510  1.00  0.00     0.037 A 
HETATM   16  C   UNL     1       7.197  23.547  53.292  1.00  0.00     0.069 A 
HETATM   17  C   UNL     1       5.995  24.107  53.715  1.00  0.00     0.037 A 
HETATM   18  C   UNL     1       5.704  25.442  53.416  1.00  0.00     0.010 A 
BRANCH  16  19
HETATM   19  O   UNL     1       7.599  22.271  53.567  1.00  0.00    -0.348 OA
BRANCH  19  20
HETATM   20  C   UNL     1       7.586  21.925  54.953  1.00  0.00     0.202 C 
BRANCH  20  21
HETATM   21  C   UNL     1       8.751  22.617  55.596  1.00  0.00    -0.011 C 
HETATM   22  C   UNL     1       8.655  23.475  56.619  1.00  0.00     0.009 C 
ENDBRANCH  20  21
ENDBRANCH  19  20
ENDBRANCH  16  19
ENDBRANCH   1  13
BRANCH   7  23
HETATM   23  C   UNL     1       6.665  28.369  55.758  1.00  0.00    -0.005 A 
HETATM   24  C   UNL     1       7.132  27.165  56.302  1.00  0.00     0.014 A 
HETATM   25  C   UNL     1       8.284  27.141  57.090  1.00  0.00     0.001 A 
HETATM   26  C   UNL     1       8.979  28.322  57.343  1.00  0.00     0.000 A 
HETATM   27  C   UNL     1       8.517  29.528  56.819  1.00  0.00     0.001 A 
HETATM   28  C   UNL     1       7.361  29.553  56.034  1.00  0.00     0.014 A 
ENDBRANCH   7  23
TORSDOF 5
ENDMDL
MODEL 9
REMARK VINA RESULT:      -7.8      3.919      7.149
REMARK  5 active torsions:
REMARK  status: ('A' for Active; 'I' for Inactive)
REMARK    1  A    between atoms: C_2  and  C_3 
REMARK    2  A    between atoms: C_3  and  O_4 
REMARK    3  A    between atoms: O_4  and  C_5 
REMARK    4  A    between atoms: C_8  and  C_9 
REMARK    5  A    between atoms: C_15  and  C_16 
ROOT
HETATM    1  C   UNL     1       3.840  27.832  52.766  1.00  0.00     0.066 C 
HETATM    2  C   UNL     1       4.125  28.859  51.730  1.00  0.00     0.028 A 
HETATM    3  C   UNL     1       4.608  30.106  52.035  1.00  0.00     0.133 A 
HETATM    4  N   UNL     1       4.802  30.760  50.860  1.00  0.00    -0.261 N 
HETATM    5  H   UNL     1       5.161  31.694  50.697  1.00  0.00     0.191 HD
HETATM    6  N   UNL     1       4.446  30.026  49.796  1.00  0.00    -0.172 NA
HETATM    7  C   UNL     1       4.018  28.855  50.305  1.00  0.00     0.098 A 
HETATM    8  N   UNL     1       4.860  30.508  53.322  1.00  0.00    -0.312 N 
HETATM    9  C   UNL     1       4.492  29.661  54.414  1.00  0.00     0.224 C 
HETATM   10  O   UNL     1       4.821  30.051  55.523  1.00  0.00    -0.273 OA
HETATM   11  C   UNL     1       3.624  28.457  54.148  1.00  0.00     0.117 C 
HETATM   12  H   UNL     1       5.323  31.382  53.542  1.00  0.00     0.170 HD
ENDROOT
BRANCH   1  13
HETATM   13  C   UNL     1       4.991  26.838  52.747  1.00  0.00    -0.049 A 
HETATM   14  C   UNL     1       6.342  27.218  52.823  1.00  0.00     0.010 A 
HETATM   15  C   UNL     1       7.351  26.256  52.906  1.00  0.00     0.037 A 
HETATM   16  C   UNL     1       7.035  24.901  52.939  1.00  0.00     0.069 A 
HETATM   17  C   UNL     1       5.708  24.501  52.809  1.00  0.00     0.037 A 
HETATM   18  C   UNL     1       4.695  25.462  52.720  1.00  0.00     0.010 A 
BRANCH  16  19
HETATM   19  O   UNL     1       8.093  24.048  53.077  1.00  0.00    -0.348 OA
BRANCH  19  20
HETATM   20  C   UNL     1       7.805  22.849  53.801  1.00  0.00     0.202 C 
BRANCH  20  21
HETATM   21  C   UNL     1       8.351  21.704  53.001  1.00  0.00    -0.011 C 
HETATM   22  C   UNL     1       7.921  20.439  53.094  1.00  0.00     0.009 C 
ENDBRANCH  20  21
ENDBRANCH  19  20
ENDBRANCH  16  19
ENDBRANCH   1  13
BRANCH   7  23
HETATM   23  C   UNL     1       3.557  27.788  49.420  1.00  0.00    -0.005 A 
HETATM   24  C   UNL     1       2.304  27.890  48.801  1.00  0.00     0.014 A 
HETATM   25  C   UNL     1       1.846  26.881  47.953  1.00  0.00     0.001 A 
HETATM   26  C   UNL     1       2.636  25.757  47.717  1.00  0.00     0.000 A 
HETATM   27  C   UNL     1       3.879  25.638  48.337  1.00  0.00     0.001 A 
HETATM   28  C   UNL     1       4.336  26.646  49.190  1.00  0.00     0.014 A 
ENDBRANCH   7  23
TORSDOF 5
ENDMDL
MODEL 10
REMARK VINA RESULT:      -7.8      9.912     13.660
REMARK  5 active torsions:
REMARK  status: ('A' for Active; 'I' for Inactive)
REMARK    1  A    between atoms: C_2  and  C_3 
REMARK    2  A    between atoms: C_3  and  O_4 
REMARK    3  A    between atoms: O_4  and  C_5 
REMARK    4  A    between atoms: C_8  and  C_9 
REMARK    5  A    between atoms: C_15  and  C_16 
ROOT
HETATM    1  C   UNL     1       4.353  33.990  64.983  1.00  0.00     0.066 C 
HETATM    2  C   UNL     1       4.469  35.417  64.583  1.00  0.00     0.028 A 
HETATM    3  C   UNL     1       4.965  36.383  65.420  1.00  0.00     0.133 A 
HETATM    4  N   UNL     1       4.979  37.549  64.724  1.00  0.00    -0.261 N 
HETATM    5  H   UNL     1       5.293  38.468  65.016  1.00  0.00     0.191 HD
HETATM    6  N   UNL     1       4.492  37.414  63.482  1.00  0.00    -0.172 NA
HETATM    7  C   UNL     1       4.164  36.113  63.374  1.00  0.00     0.098 A 
HETATM    8  N   UNL     1       5.386  36.111  66.697  1.00  0.00    -0.312 N 
HETATM    9  C   UNL     1       5.192  34.805  67.245  1.00  0.00     0.224 C 
HETATM   10  O   UNL     1       5.665  34.618  68.355  1.00  0.00    -0.273 OA
HETATM   11  C   UNL     1       4.320  33.822  66.505  1.00  0.00     0.117 C 
HETATM   12  H   UNL     1       5.857  36.797  67.276  1.00  0.00     0.170 HD
ENDROOT
BRANCH   1  13
HETATM   13  C   UNL     1       5.510  33.242  64.337  1.00  0.00    -0.049 A 
HETATM   14  C   UNL     1       5.344  32.312  63.296  1.00  0.00     0.010 A 
HETATM   15  C   UNL     1       6.451  31.734  62.672  1.00  0.00     0.037 A 
HETATM   16  C   UNL     1       7.742  32.086  63.055  1.00  0.00     0.069 A 
HETATM   17  C   UNL     1       7.929  32.962  64.120  1.00  0.00     0.037 A 
HETATM   18  C   UNL     1       6.822  33.538  64.752  1.00  0.00     0.010 A 
BRANCH  16  19
HETATM   19  O   UNL     1       8.752  31.503  62.342  1.00  0.00    -0.348 OA
BRANCH  19  20
HETATM   20  C   UNL     1       8.421  31.181  60.990  1.00  0.00     0.202 C 
BRANCH  20  21
HETATM   21  C   UNL     1       9.237  32.075  60.105  1.00  0.00    -0.011 C 
HETATM   22  C   UNL     1       9.773  31.704  58.935  1.00  0.00     0.009 C 
ENDBRANCH  20  21
ENDBRANCH  19  20
ENDBRANCH  16  19
ENDBRANCH   1  13
BRANCH   7  23
HETATM   23  C   UNL     1       3.606  35.592  62.127  1.00  0.00    -0.005 A 
HETATM   24  C   UNL     1       2.292  35.104  62.104  1.00  0.00     0.014 A 
HETATM   25  C   UNL     1       1.741  34.602  60.924  1.00  0.00     0.001 A 
HETATM   26  C   UNL     1       2.500  34.579  59.756  1.00  0.00     0.000 A 
HETATM   27  C   UNL     1       3.813  35.049  59.769  1.00  0.00     0.001 A 
HETATM   28  C   UNL     1       4.366  35.548  60.952  1.00  0.00     0.014 A 
ENDBRANCH   7  23
TORSDOF 5
ENDMDL
