MODEL 1
REMARK VINA RESULT:      -8.7      0.000      0.000
REMARK  4 active torsions:
REMARK  status: ('A' for Active; 'I' for Inactive)
REMARK    1  A    between atoms: C_9  and  C_10 
REMARK    2  A    between atoms: C_18  and  C_19 
REMARK       I    between atoms: C_19  and  N_20 
REMARK    3  A    between atoms: N_20  and  C_21 
REMARK    4  A    between atoms: C_24  and  O_25 
ROOT
HETATM    1  C   UNL     1       5.473  26.409  50.124  1.00  0.00     0.070 C 
HETATM    2  C   UNL     1       5.037  27.317  51.247  1.00  0.00     0.037 C 
HETATM    3  N   UNL     1       4.734  28.624  50.877  1.00  0.00    -0.192 N 
HETATM    4  C   UNL     1       4.127  29.500  51.700  1.00  0.00     0.725 A 
HETATM    5  N   UNL     1       3.900  29.152  53.003  1.00  0.00    -0.084 N 
HETATM    6  N   UNL     1       3.226  30.120  53.660  1.00  0.00    -0.149 NA
HETATM    7  C   UNL     1       3.112  31.040  52.694  1.00  0.00     0.275 A 
HETATM    8  N   UNL     1       3.653  30.699  51.481  1.00  0.00    -0.054 NA
HETATM    9  C   UNL     1       4.304  27.872  53.595  1.00  0.00     0.202 C 
HETATM   10  C   UNL     1       4.867  26.929  52.535  1.00  0.00     0.062 C 
HETATM   11  H   UNL     1       4.799  28.863  49.891  1.00  0.00     0.184 HD
ENDROOT
BRANCH  10  12
HETATM   12  C   UNL     1       5.104  25.550  53.040  1.00  0.00     0.256 C 
HETATM   13  N   UNL     1       6.435  25.261  53.246  1.00  0.00    -0.323 N 
HETATM   14  H   UNL     1       7.106  25.987  53.026  1.00  0.00     0.169 HD
HETATM   15  O   UNL     1       4.135  24.841  53.283  1.00  0.00    -0.267 OA
BRANCH  13  16
HETATM   16  C   UNL     1       6.981  24.053  53.729  1.00  0.00     0.035 A 
HETATM   17  C   UNL     1       7.065  23.720  55.080  1.00  0.00     0.032 A 
HETATM   18  C   UNL     1       7.619  22.497  55.473  1.00  0.00     0.039 A 
HETATM   19  C   UNL     1       8.088  21.584  54.527  1.00  0.00     0.068 A 
HETATM   20  C   UNL     1       8.006  21.911  53.177  1.00  0.00     0.039 A 
HETATM   21  C   UNL     1       7.460  23.140  52.782  1.00  0.00     0.032 A 
BRANCH  19  22
HETATM   22  O   UNL     1       8.597  20.428  55.049  1.00  0.00    -0.356 OA
HETATM   23  C   UNL     1       8.830  20.402  56.451  1.00  0.00     0.210 C 
ENDBRANCH  19  22
ENDBRANCH  13  16
ENDBRANCH  10  12
BRANCH   9  24
HETATM   24  C   UNL     1       5.290  28.101  54.741  1.00  0.00    -0.026 A 
HETATM   25  C   UNL     1       6.615  28.512  54.509  1.00  0.00     0.035 A 
HETATM   26  C   UNL     1       7.504  28.700  55.575  1.00  0.00     0.056 A 
HETATM   27 CL   UNL     1       9.112  29.205  55.195  1.00  0.00    -0.083 Cl
HETATM   28  C   UNL     1       7.080  28.472  56.887  1.00  0.00     0.055 A 
HETATM   29 CL   UNL     1       8.121  28.683  58.249  1.00  0.00    -0.083 Cl
HETATM   30  C   UNL     1       5.770  28.052  57.127  1.00  0.00     0.026 A 
HETATM   31  C   UNL     1       4.882  27.865  56.064  1.00  0.00     0.011 A 
ENDBRANCH   9  24
TORSDOF 4
ENDMDL
MODEL 2
REMARK VINA RESULT:      -8.6      2.001      2.929
REMARK  4 active torsions:
REMARK  status: ('A' for Active; 'I' for Inactive)
REMARK    1  A    between atoms: C_9  and  C_10 
REMARK    2  A    between atoms: C_18  and  C_19 
REMARK       I    between atoms: C_19  and  N_20 
REMARK    3  A    between atoms: N_20  and  C_21 
REMARK    4  A    between atoms: C_24  and  O_25 
ROOT
HETATM    1  C   UNL     1       4.348  27.079  53.039  1.00  0.00     0.070 C 
HETATM    2  C   UNL     1       4.700  28.207  53.977  1.00  0.00     0.037 C 
HETATM    3  N   UNL     1       4.376  29.483  53.527  1.00  0.00    -0.192 N 
HETATM    4  C   UNL     1       4.417  30.575  54.314  1.00  0.00     0.725 A 
HETATM    5  N   UNL     1       4.913  30.469  55.584  1.00  0.00    -0.084 N 
HETATM    6  N   UNL     1       4.816  31.640  56.249  1.00  0.00    -0.149 NA
HETATM    7  C   UNL     1       4.281  32.418  55.301  1.00  0.00     0.275 A 
HETATM    8  N   UNL     1       4.024  31.804  54.101  1.00  0.00    -0.054 NA
HETATM    9  C   UNL     1       5.446  29.228  56.158  1.00  0.00     0.202 C 
HETATM   10  C   UNL     1       5.232  28.049  55.214  1.00  0.00     0.062 C 
HETATM   11  H   UNL     1       3.909  29.563  52.626  1.00  0.00     0.184 HD
ENDROOT
BRANCH  10  12
HETATM   12  C   UNL     1       5.568  26.736  55.827  1.00  0.00     0.256 C 
HETATM   13  N   UNL     1       6.635  26.106  55.225  1.00  0.00    -0.323 N 
HETATM   14  H   UNL     1       7.066  26.575  54.438  1.00  0.00     0.169 HD
HETATM   15  O   UNL     1       4.939  26.372  56.812  1.00  0.00    -0.267 OA
BRANCH  13  16
HETATM   16  C   UNL     1       7.202  24.864  55.580  1.00  0.00     0.035 A 
HETATM   17  C   UNL     1       7.915  24.639  56.757  1.00  0.00     0.032 A 
HETATM   18  C   UNL     1       8.443  23.372  57.032  1.00  0.00     0.039 A 
HETATM   19  C   UNL     1       8.260  22.310  56.145  1.00  0.00     0.068 A 
HETATM   20  C   UNL     1       7.550  22.529  54.969  1.00  0.00     0.039 A 
HETATM   21  C   UNL     1       7.029  23.799  54.687  1.00  0.00     0.032 A 
BRANCH  19  22
HETATM   22  O   UNL     1       8.822  21.129  56.543  1.00  0.00    -0.356 OA
HETATM   23  C   UNL     1       8.645  20.009  55.686  1.00  0.00     0.210 C 
ENDBRANCH  19  22
ENDBRANCH  13  16
ENDBRANCH  10  12
BRANCH   9  24
HETATM   24  C   UNL     1       6.918  29.403  56.534  1.00  0.00    -0.026 A 
HETATM   25  C   UNL     1       7.314  29.775  57.831  1.00  0.00     0.035 A 
HETATM   26  C   UNL     1       8.668  29.943  58.146  1.00  0.00     0.056 A 
HETATM   27 CL   UNL     1       9.061  30.402  59.766  1.00  0.00    -0.083 Cl
HETATM   28  C   UNL     1       9.644  29.748  57.165  1.00  0.00     0.055 A 
HETATM   29 CL   UNL     1      11.331  29.940  57.481  1.00  0.00    -0.083 Cl
HETATM   30  C   UNL     1       9.260  29.391  55.870  1.00  0.00     0.026 A 
HETATM   31  C   UNL     1       7.909  29.222  55.555  1.00  0.00     0.011 A 
ENDBRANCH   9  24
TORSDOF 4
ENDMDL
MODEL 3
REMARK VINA RESULT:      -8.4      3.518      5.339
REMARK  4 active torsions:
REMARK  status: ('A' for Active; 'I' for Inactive)
REMARK    1  A    between atoms: C_9  and  C_10 
REMARK    2  A    between atoms: C_18  and  C_19 
REMARK       I    between atoms: C_19  and  N_20 
REMARK    3  A    between atoms: N_20  and  C_21 
REMARK    4  A    between atoms: C_24  and  O_25 
ROOT
HETATM    1  C   UNL     1       4.198  29.108  54.562  1.00  0.00     0.070 C 
HETATM    2  C   UNL     1       4.593  29.338  53.125  1.00  0.00     0.037 C 
HETATM    3  N   UNL     1       4.523  30.657  52.687  1.00  0.00    -0.192 N 
HETATM    4  C   UNL     1       5.040  31.073  51.515  1.00  0.00     0.725 A 
HETATM    5  N   UNL     1       5.553  30.153  50.643  1.00  0.00    -0.084 N 
HETATM    6  N   UNL     1       6.086  30.750  49.556  1.00  0.00    -0.149 NA
HETATM    7  C   UNL     1       5.824  32.034  49.828  1.00  0.00     0.275 A 
HETATM    8  N   UNL     1       5.183  32.273  51.016  1.00  0.00    -0.054 NA
HETATM    9  C   UNL     1       5.556  28.705  50.882  1.00  0.00     0.202 C 
HETATM   10  C   UNL     1       5.058  28.379  52.286  1.00  0.00     0.062 C 
HETATM   11  H   UNL     1       4.243  31.364  53.362  1.00  0.00     0.184 HD
ENDROOT
BRANCH  10  12
HETATM   12  C   UNL     1       5.230  26.947  52.654  1.00  0.00     0.256 C 
HETATM   13  N   UNL     1       6.544  26.591  52.872  1.00  0.00    -0.323 N 
HETATM   14  H   UNL     1       7.245  27.310  52.751  1.00  0.00     0.169 HD
HETATM   15  O   UNL     1       4.231  26.253  52.790  1.00  0.00    -0.267 OA
BRANCH  13  16
HETATM   16  C   UNL     1       7.031  25.321  53.246  1.00  0.00     0.035 A 
HETATM   17  C   UNL     1       7.591  24.406  52.354  1.00  0.00     0.032 A 
HETATM   18  C   UNL     1       8.053  23.167  52.811  1.00  0.00     0.039 A 
HETATM   19  C   UNL     1       7.974  22.824  54.161  1.00  0.00     0.068 A 
HETATM   20  C   UNL     1       7.416  23.733  55.056  1.00  0.00     0.039 A 
HETATM   21  C   UNL     1       6.943  24.971  54.599  1.00  0.00     0.032 A 
BRANCH  19  22
HETATM   22  O   UNL     1       8.468  21.587  54.468  1.00  0.00    -0.356 OA
HETATM   23  C   UNL     1       8.539  20.640  53.411  1.00  0.00     0.210 C 
ENDBRANCH  19  22
ENDBRANCH  13  16
ENDBRANCH  10  12
BRANCH   9  24
HETATM   24  C   UNL     1       4.747  27.984  49.803  1.00  0.00    -0.026 A 
HETATM   25  C   UNL     1       3.376  28.233  49.613  1.00  0.00     0.035 A 
HETATM   26  C   UNL     1       2.653  27.548  48.629  1.00  0.00     0.056 A 
HETATM   27 CL   UNL     1       0.973  27.919  48.467  1.00  0.00    -0.083 Cl
HETATM   28  C   UNL     1       3.292  26.599  47.826  1.00  0.00     0.055 A 
HETATM   29 CL   UNL     1       2.463  25.715  46.594  1.00  0.00    -0.083 Cl
HETATM   30  C   UNL     1       4.650  26.335  48.015  1.00  0.00     0.026 A 
HETATM   31  C   UNL     1       5.372  27.018  48.997  1.00  0.00     0.011 A 
ENDBRANCH   9  24
TORSDOF 4
ENDMDL
MODEL 4
REMARK VINA RESULT:      -8.2      6.006      9.239
REMARK  4 active torsions:
REMARK  status: ('A' for Active; 'I' for Inactive)
REMARK    1  A    between atoms: C_9  and  C_10 
REMARK    2  A    between atoms: C_18  and  C_19 
REMARK       I    between atoms: C_19  and  N_20 
REMARK    3  A    between atoms: N_20  and  C_21 
REMARK    4  A    between atoms: C_24  and  O_25 
ROOT
HETATM    1  C   UNL     1      10.184  30.313  57.795  1.00  0.00     0.070 C 
HETATM    2  C   UNL     1       8.886  29.585  57.548  1.00  0.00     0.037 C 
HETATM    3  N   UNL     1       8.978  28.449  56.749  1.00  0.00    -0.192 N 
HETATM    4  C   UNL     1       7.972  27.566  56.605  1.00  0.00     0.725 A 
HETATM    5  N   UNL     1       6.753  27.839  57.162  1.00  0.00    -0.084 N 
HETATM    6  N   UNL     1       5.889  26.819  56.978  1.00  0.00    -0.149 NA
HETATM    7  C   UNL     1       6.649  25.977  56.268  1.00  0.00     0.275 A 
HETATM    8  N   UNL     1       7.930  26.398  56.018  1.00  0.00    -0.054 NA
HETATM    9  C   UNL     1       6.443  29.070  57.899  1.00  0.00     0.202 C 
HETATM   10  C   UNL     1       7.692  29.924  58.093  1.00  0.00     0.062 C 
HETATM   11  H   UNL     1       9.901  28.179  56.417  1.00  0.00     0.184 HD
ENDROOT
BRANCH  10  12
HETATM   12  C   UNL     1       7.477  31.081  59.005  1.00  0.00     0.256 C 
HETATM   13  N   UNL     1       7.511  30.741  60.340  1.00  0.00    -0.323 N 
HETATM   14  H   UNL     1       7.659  29.765  60.566  1.00  0.00     0.169 HD
HETATM   15  O   UNL     1       7.360  32.197  58.517  1.00  0.00    -0.267 OA
BRANCH  13  16
HETATM   16  C   UNL     1       7.357  31.606  61.443  1.00  0.00     0.035 A 
HETATM   17  C   UNL     1       8.342  31.829  62.404  1.00  0.00     0.032 A 
HETATM   18  C   UNL     1       8.106  32.708  63.467  1.00  0.00     0.039 A 
HETATM   19  C   UNL     1       6.890  33.383  63.584  1.00  0.00     0.068 A 
HETATM   20  C   UNL     1       5.903  33.165  62.628  1.00  0.00     0.039 A 
HETATM   21  C   UNL     1       6.134  32.278  61.567  1.00  0.00     0.032 A 
BRANCH  19  22
HETATM   22  O   UNL     1       6.799  34.214  64.666  1.00  0.00    -0.356 OA
HETATM   23  C   UNL     1       5.741  33.966  65.582  1.00  0.00     0.210 C 
ENDBRANCH  19  22
ENDBRANCH  13  16
ENDBRANCH  10  12
BRANCH   9  24
HETATM   24  C   UNL     1       5.322  29.841  57.201  1.00  0.00    -0.026 A 
HETATM   25  C   UNL     1       5.285  29.996  55.804  1.00  0.00     0.035 A 
HETATM   26  C   UNL     1       4.256  30.721  55.190  1.00  0.00     0.056 A 
HETATM   27 CL   UNL     1       4.293  30.859  53.467  1.00  0.00    -0.083 Cl
HETATM   28  C   UNL     1       3.253  31.306  55.967  1.00  0.00     0.055 A 
HETATM   29 CL   UNL     1       1.955  32.215  55.278  1.00  0.00    -0.083 Cl
HETATM   30  C   UNL     1       3.287  31.169  57.357  1.00  0.00     0.026 A 
HETATM   31  C   UNL     1       4.313  30.446  57.970  1.00  0.00     0.011 A 
ENDBRANCH   9  24
TORSDOF 4
ENDMDL
MODEL 5
REMARK VINA RESULT:      -7.7      6.875      9.872
REMARK  4 active torsions:
REMARK  status: ('A' for Active; 'I' for Inactive)
REMARK    1  A    between atoms: C_9  and  C_10 
REMARK    2  A    between atoms: C_18  and  C_19 
REMARK       I    between atoms: C_19  and  N_20 
REMARK    3  A    between atoms: N_20  and  C_21 
REMARK    4  A    between atoms: C_24  and  O_25 
ROOT
HETATM    1  C   UNL     1       9.123  30.016  58.150  1.00  0.00     0.070 C 
HETATM    2  C   UNL     1       7.671  30.215  57.796  1.00  0.00     0.037 C 
HETATM    3  N   UNL     1       7.201  29.444  56.738  1.00  0.00    -0.192 N 
HETATM    4  C   UNL     1       5.894  29.332  56.430  1.00  0.00     0.725 A 
HETATM    5  N   UNL     1       4.979  30.099  57.098  1.00  0.00    -0.084 N 
HETATM    6  N   UNL     1       3.719  29.809  56.711  1.00  0.00    -0.149 NA
HETATM    7  C   UNL     1       3.956  28.879  55.777  1.00  0.00     0.275 A 
HETATM    8  N   UNL     1       5.275  28.561  55.575  1.00  0.00    -0.054 NA
HETATM    9  C   UNL     1       5.326  31.081  58.131  1.00  0.00     0.202 C 
HETATM   10  C   UNL     1       6.813  31.023  58.468  1.00  0.00     0.062 C 
HETATM   11  H   UNL     1       7.850  28.792  56.303  1.00  0.00     0.184 HD
ENDROOT
BRANCH  10  12
HETATM   12  C   UNL     1       7.183  31.852  59.648  1.00  0.00     0.256 C 
HETATM   13  N   UNL     1       6.519  31.492  60.800  1.00  0.00    -0.323 N 
HETATM   14  H   UNL     1       5.853  30.733  60.734  1.00  0.00     0.169 HD
HETATM   15  O   UNL     1       8.054  32.701  59.516  1.00  0.00    -0.267 OA
BRANCH  13  16
HETATM   16  C   UNL     1       6.658  32.072  62.079  1.00  0.00     0.035 A 
HETATM   17  C   UNL     1       7.884  32.316  62.696  1.00  0.00     0.032 A 
HETATM   18  C   UNL     1       7.931  32.898  63.968  1.00  0.00     0.039 A 
HETATM   19  C   UNL     1       6.760  33.254  64.639  1.00  0.00     0.068 A 
HETATM   20  C   UNL     1       5.533  33.012  64.028  1.00  0.00     0.039 A 
HETATM   21  C   UNL     1       5.484  32.420  62.758  1.00  0.00     0.032 A 
BRANCH  19  22
HETATM   22  O   UNL     1       6.953  33.818  65.869  1.00  0.00    -0.356 OA
HETATM   23  C   UNL     1       5.792  34.196  66.595  1.00  0.00     0.210 C 
ENDBRANCH  19  22
ENDBRANCH  13  16
ENDBRANCH  10  12
BRANCH   9  24
HETATM   24  C   UNL     1       4.889  32.483  57.704  1.00  0.00    -0.026 A 
HETATM   25  C   UNL     1       4.179  33.335  58.570  1.00  0.00     0.035 A 
HETATM   26  C   UNL     1       3.776  34.608  58.150  1.00  0.00     0.056 A 
HETATM   27 CL   UNL     1       2.909  35.586  59.281  1.00  0.00    -0.083 Cl
HETATM   28  C   UNL     1       4.072  35.044  56.855  1.00  0.00     0.055 A 
HETATM   29 CL   UNL     1       3.605  36.600  56.269  1.00  0.00    -0.083 Cl
HETATM   30  C   UNL     1       4.766  34.201  55.984  1.00  0.00     0.026 A 
HETATM   31  C   UNL     1       5.168  32.930  56.403  1.00  0.00     0.011 A 
ENDBRANCH   9  24
TORSDOF 4
ENDMDL
MODEL 6
REMARK VINA RESULT:      -7.7      8.853     11.434
REMARK  4 active torsions:
REMARK  status: ('A' for Active; 'I' for Inactive)
REMARK    1  A    between atoms: C_9  and  C_10 
REMARK    2  A    between atoms: C_18  and  C_19 
REMARK       I    between atoms: C_19  and  N_20 
REMARK    3  A    between atoms: N_20  and  C_21 
REMARK    4  A    between atoms: C_24  and  O_25 
ROOT
HETATM    1  C   UNL     1       6.865  33.565  64.747  1.00  0.00     0.070 C 
HETATM    2  C   UNL     1       6.172  34.610  63.908  1.00  0.00     0.037 C 
HETATM    3  N   UNL     1       6.081  35.875  64.481  1.00  0.00    -0.192 N 
HETATM    4  C   UNL     1       5.695  36.969  63.796  1.00  0.00     0.725 A 
HETATM    5  N   UNL     1       5.249  36.833  62.510  1.00  0.00    -0.084 N 
HETATM    6  N   UNL     1       4.970  38.032  61.958  1.00  0.00    -0.149 NA
HETATM    7  C   UNL     1       5.239  38.846  62.986  1.00  0.00     0.275 A 
HETATM    8  N   UNL     1       5.683  38.233  64.130  1.00  0.00    -0.054 NA
HETATM    9  C   UNL     1       5.129  35.548  61.812  1.00  0.00     0.202 C 
HETATM   10  C   UNL     1       5.709  34.411  62.649  1.00  0.00     0.062 C 
HETATM   11  H   UNL     1       6.505  36.011  65.396  1.00  0.00     0.184 HD
ENDROOT
BRANCH  10  12
HETATM   12  C   UNL     1       5.798  33.123  61.910  1.00  0.00     0.256 C 
HETATM   13  N   UNL     1       6.797  33.102  60.961  1.00  0.00    -0.323 N 
HETATM   14  H   UNL     1       7.348  33.944  60.850  1.00  0.00     0.169 HD
HETATM   15  O   UNL     1       5.054  32.208  62.238  1.00  0.00    -0.267 OA
BRANCH  13  16
HETATM   16  C   UNL     1       7.143  32.031  60.111  1.00  0.00     0.035 A 
HETATM   17  C   UNL     1       6.448  31.701  58.948  1.00  0.00     0.032 A 
HETATM   18  C   UNL     1       6.862  30.621  58.160  1.00  0.00     0.039 A 
HETATM   19  C   UNL     1       7.978  29.861  58.513  1.00  0.00     0.068 A 
HETATM   20  C   UNL     1       8.675  30.186  59.672  1.00  0.00     0.039 A 
HETATM   21  C   UNL     1       8.257  31.261  60.468  1.00  0.00     0.032 A 
BRANCH  19  22
HETATM   22  O   UNL     1       8.272  28.843  57.650  1.00  0.00    -0.356 OA
HETATM   23  C   UNL     1       9.517  28.914  56.968  1.00  0.00     0.210 C 
ENDBRANCH  19  22
ENDBRANCH  13  16
ENDBRANCH  10  12
BRANCH   9  24
HETATM   24  C   UNL     1       3.674  35.287  61.419  1.00  0.00    -0.026 A 
HETATM   25  C   UNL     1       3.221  35.456  60.098  1.00  0.00     0.035 A 
HETATM   26  C   UNL     1       1.880  35.225  59.766  1.00  0.00     0.056 A 
HETATM   27 CL   UNL     1       1.413  35.458  58.119  1.00  0.00    -0.083 Cl
HETATM   28  C   UNL     1       0.974  34.830  60.754  1.00  0.00     0.055 A 
HETATM   29 CL   UNL     1      -0.694  34.530  60.417  1.00  0.00    -0.083 Cl
HETATM   30  C   UNL     1       1.411  34.672  62.071  1.00  0.00     0.026 A 
HETATM   31  C   UNL     1       2.749  34.901  62.402  1.00  0.00     0.011 A 
ENDBRANCH   9  24
TORSDOF 4
ENDMDL
MODEL 7
REMARK VINA RESULT:      -7.4      3.823      5.807
REMARK  4 active torsions:
REMARK  status: ('A' for Active; 'I' for Inactive)
REMARK    1  A    between atoms: C_9  and  C_10 
REMARK    2  A    between atoms: C_18  and  C_19 
REMARK       I    between atoms: C_19  and  N_20 
REMARK    3  A    between atoms: N_20  and  C_21 
REMARK    4  A    between atoms: C_24  and  O_25 
ROOT
HETATM    1  C   UNL     1       6.518  25.540  51.828  1.00  0.00     0.070 C 
HETATM    2  C   UNL     1       5.604  26.547  51.176  1.00  0.00     0.037 C 
HETATM    3  N   UNL     1       5.374  26.356  49.817  1.00  0.00    -0.192 N 
HETATM    4  C   UNL     1       4.425  27.020  49.129  1.00  0.00     0.725 A 
HETATM    5  N   UNL     1       3.726  28.021  49.746  1.00  0.00    -0.084 N 
HETATM    6  N   UNL     1       2.774  28.528  48.933  1.00  0.00    -0.149 NA
HETATM    7  C   UNL     1       2.984  27.805  47.827  1.00  0.00     0.275 A 
HETATM    8  N   UNL     1       3.988  26.873  47.906  1.00  0.00    -0.054 NA
HETATM    9  C   UNL     1       3.957  28.456  51.128  1.00  0.00     0.202 C 
HETATM   10  C   UNL     1       4.965  27.550  51.828  1.00  0.00     0.062 C 
HETATM   11  H   UNL     1       5.808  25.551  49.373  1.00  0.00     0.184 HD
ENDROOT
BRANCH  10  12
HETATM   12  C   UNL     1       5.086  27.821  53.286  1.00  0.00     0.256 C 
HETATM   13  N   UNL     1       6.374  28.103  53.688  1.00  0.00    -0.323 N 
HETATM   14  H   UNL     1       7.095  28.086  52.978  1.00  0.00     0.169 HD
HETATM   15  O   UNL     1       4.068  27.833  53.965  1.00  0.00    -0.267 OA
BRANCH  13  16
HETATM   16  C   UNL     1       6.810  28.414  54.993  1.00  0.00     0.035 A 
HETATM   17  C   UNL     1       6.433  29.560  55.690  1.00  0.00     0.032 A 
HETATM   18  C   UNL     1       6.912  29.790  56.985  1.00  0.00     0.039 A 
HETATM   19  C   UNL     1       7.765  28.877  57.607  1.00  0.00     0.068 A 
HETATM   20  C   UNL     1       8.145  27.730  56.916  1.00  0.00     0.039 A 
HETATM   21  C   UNL     1       7.674  27.504  55.615  1.00  0.00     0.032 A 
BRANCH  19  22
HETATM   22  O   UNL     1       8.149  29.223  58.872  1.00  0.00    -0.356 OA
HETATM   23  C   UNL     1       8.013  30.590  59.236  1.00  0.00     0.210 C 
ENDBRANCH  19  22
ENDBRANCH  13  16
ENDBRANCH  10  12
BRANCH   9  24
HETATM   24  C   UNL     1       4.385  29.924  51.161  1.00  0.00    -0.026 A 
HETATM   25  C   UNL     1       3.729  30.871  51.969  1.00  0.00     0.035 A 
HETATM   26  C   UNL     1       4.130  32.212  51.970  1.00  0.00     0.056 A 
HETATM   27 CL   UNL     1       3.266  33.304  52.994  1.00  0.00    -0.083 Cl
HETATM   28  C   UNL     1       5.188  32.626  51.156  1.00  0.00     0.055 A 
HETATM   29 CL   UNL     1       5.735  34.264  51.105  1.00  0.00    -0.083 Cl
HETATM   30  C   UNL     1       5.838  31.697  50.341  1.00  0.00     0.026 A 
HETATM   31  C   UNL     1       5.439  30.358  50.340  1.00  0.00     0.011 A 
ENDBRANCH   9  24
TORSDOF 4
ENDMDL
MODEL 8
REMARK VINA RESULT:      -7.2      4.828      6.948
REMARK  4 active torsions:
REMARK  status: ('A' for Active; 'I' for Inactive)
REMARK    1  A    between atoms: C_9  and  C_10 
REMARK    2  A    between atoms: C_18  and  C_19 
REMARK       I    between atoms: C_19  and  N_20 
REMARK    3  A    between atoms: N_20  and  C_21 
REMARK    4  A    between atoms: C_24  and  O_25 
ROOT
HETATM    1  C   UNL     1       2.967  25.512  47.166  1.00  0.00     0.070 C 
HETATM    2  C   UNL     1       2.540  26.957  47.244  1.00  0.00     0.037 C 
HETATM    3  N   UNL     1       1.396  27.283  46.521  1.00  0.00    -0.192 N 
HETATM    4  C   UNL     1       0.753  28.460  46.649  1.00  0.00     0.725 A 
HETATM    5  N   UNL     1       1.300  29.442  47.428  1.00  0.00    -0.084 N 
HETATM    6  N   UNL     1       0.493  30.521  47.496  1.00  0.00    -0.149 NA
HETATM    7  C   UNL     1      -0.510  30.129  46.702  1.00  0.00     0.275 A 
HETATM    8  N   UNL     1      -0.387  28.874  46.162  1.00  0.00    -0.054 NA
HETATM    9  C   UNL     1       2.583  29.317  48.129  1.00  0.00     0.202 C 
HETATM   10  C   UNL     1       3.145  27.904  48.002  1.00  0.00     0.062 C 
HETATM   11  H   UNL     1       0.922  26.533  46.023  1.00  0.00     0.184 HD
ENDROOT
BRANCH  10  12
HETATM   12  C   UNL     1       4.338  27.665  48.859  1.00  0.00     0.256 C 
HETATM   13  N   UNL     1       4.025  27.198  50.117  1.00  0.00    -0.323 N 
HETATM   14  H   UNL     1       3.044  27.080  50.337  1.00  0.00     0.169 HD
HETATM   15  O   UNL     1       5.449  27.834  48.375  1.00  0.00    -0.267 OA
BRANCH  13  16
HETATM   16  C   UNL     1       4.925  26.866  51.150  1.00  0.00     0.035 A 
HETATM   17  C   UNL     1       5.559  27.803  51.965  1.00  0.00     0.032 A 
HETATM   18  C   UNL     1       6.438  27.385  52.971  1.00  0.00     0.039 A 
HETATM   19  C   UNL     1       6.691  26.029  53.186  1.00  0.00     0.068 A 
HETATM   20  C   UNL     1       6.061  25.090  52.376  1.00  0.00     0.039 A 
HETATM   21  C   UNL     1       5.188  25.506  51.362  1.00  0.00     0.032 A 
BRANCH  19  22
HETATM   22  O   UNL     1       7.563  25.764  54.204  1.00  0.00    -0.356 OA
HETATM   23  C   UNL     1       7.868  24.399  54.453  1.00  0.00     0.210 C 
ENDBRANCH  19  22
ENDBRANCH  13  16
ENDBRANCH  10  12
BRANCH   9  24
HETATM   24  C   UNL     1       3.570  30.374  47.630  1.00  0.00    -0.026 A 
HETATM   25  C   UNL     1       4.169  31.301  48.503  1.00  0.00     0.035 A 
HETATM   26  C   UNL     1       5.057  32.269  48.019  1.00  0.00     0.056 A 
HETATM   27 CL   UNL     1       5.745  33.366  49.164  1.00  0.00    -0.083 Cl
HETATM   28  C   UNL     1       5.352  32.327  46.654  1.00  0.00     0.055 A 
HETATM   29 CL   UNL     1       6.437  33.495  45.988  1.00  0.00    -0.083 Cl
HETATM   30  C   UNL     1       4.753  31.420  45.778  1.00  0.00     0.026 A 
HETATM   31  C   UNL     1       3.867  30.453  46.260  1.00  0.00     0.011 A 
ENDBRANCH   9  24
TORSDOF 4
ENDMDL
MODEL 9
REMARK VINA RESULT:      -7.2      3.703      5.655
REMARK  4 active torsions:
REMARK  status: ('A' for Active; 'I' for Inactive)
REMARK    1  A    between atoms: C_9  and  C_10 
REMARK    2  A    between atoms: C_18  and  C_19 
REMARK       I    between atoms: C_19  and  N_20 
REMARK    3  A    between atoms: N_20  and  C_21 
REMARK    4  A    between atoms: C_24  and  O_25 
ROOT
HETATM    1  C   UNL     1       3.100  31.260  53.948  1.00  0.00     0.070 C 
HETATM    2  C   UNL     1       3.691  31.016  52.582  1.00  0.00     0.037 C 
HETATM    3  N   UNL     1       3.557  32.063  51.675  1.00  0.00    -0.192 N 
HETATM    4  C   UNL     1       4.206  32.105  50.496  1.00  0.00     0.725 A 
HETATM    5  N   UNL     1       4.942  31.024  50.095  1.00  0.00    -0.084 N 
HETATM    6  N   UNL     1       5.576  31.266  48.929  1.00  0.00    -0.149 NA
HETATM    7  C   UNL     1       5.145  32.506  48.667  1.00  0.00     0.275 A 
HETATM    8  N   UNL     1       4.303  33.054  49.601  1.00  0.00    -0.054 NA
HETATM    9  C   UNL     1       5.056  29.778  50.861  1.00  0.00     0.202 C 
HETATM   10  C   UNL     1       4.378  29.904  52.222  1.00  0.00     0.062 C 
HETATM   11  H   UNL     1       3.102  32.914  51.999  1.00  0.00     0.184 HD
ENDROOT
BRANCH  10  12
HETATM   12  C   UNL     1       4.636  28.744  53.118  1.00  0.00     0.256 C 
HETATM   13  N   UNL     1       5.949  28.648  53.527  1.00  0.00    -0.323 N 
HETATM   14  H   UNL     1       6.595  29.345  53.178  1.00  0.00     0.169 HD
HETATM   15  O   UNL     1       3.691  28.043  53.454  1.00  0.00    -0.267 OA
BRANCH  13  16
HETATM   16  C   UNL     1       6.505  27.675  54.383  1.00  0.00     0.035 A 
HETATM   17  C   UNL     1       6.662  27.844  55.759  1.00  0.00     0.032 A 
HETATM   18  C   UNL     1       7.222  26.824  56.536  1.00  0.00     0.039 A 
HETATM   19  C   UNL     1       7.624  25.619  55.958  1.00  0.00     0.068 A 
HETATM   20  C   UNL     1       7.469  25.444  54.586  1.00  0.00     0.039 A 
HETATM   21  C   UNL     1       6.917  26.469  53.804  1.00  0.00     0.032 A 
BRANCH  19  22
HETATM   22  O   UNL     1       8.147  24.710  56.835  1.00  0.00    -0.356 OA
HETATM   23  C   UNL     1       8.037  23.337  56.483  1.00  0.00     0.210 C 
ENDBRANCH  19  22
ENDBRANCH  13  16
ENDBRANCH  10  12
BRANCH   9  24
HETATM   24  C   UNL     1       4.506  28.602  50.052  1.00  0.00    -0.026 A 
HETATM   25  C   UNL     1       3.197  28.605  49.536  1.00  0.00     0.035 A 
HETATM   26  C   UNL     1       2.711  27.509  48.812  1.00  0.00     0.056 A 
HETATM   27 CL   UNL     1       1.091  27.601  48.216  1.00  0.00    -0.083 Cl
HETATM   28  C   UNL     1       3.525  26.394  48.600  1.00  0.00     0.055 A 
HETATM   29 CL   UNL     1       2.991  25.007  47.718  1.00  0.00    -0.083 Cl
HETATM   30  C   UNL     1       4.822  26.376  49.119  1.00  0.00     0.026 A 
HETATM   31  C   UNL     1       5.308  27.469  49.841  1.00  0.00     0.011 A 
ENDBRANCH   9  24
TORSDOF 4
ENDMDL
MODEL 10
REMARK VINA RESULT:      -6.9      3.602      5.282
REMARK  4 active torsions:
REMARK  status: ('A' for Active; 'I' for Inactive)
REMARK    1  A    between atoms: C_9  and  C_10 
REMARK    2  A    between atoms: C_18  and  C_19 
REMARK       I    between atoms: C_19  and  N_20 
REMARK    3  A    between atoms: N_20  and  C_21 
REMARK    4  A    between atoms: C_24  and  O_25 
ROOT
HETATM    1  C   UNL     1       4.590  26.455  47.731  1.00  0.00     0.070 C 
HETATM    2  C   UNL     1       3.824  27.687  48.142  1.00  0.00     0.037 C 
HETATM    3  N   UNL     1       2.907  28.162  47.209  1.00  0.00    -0.192 N 
HETATM    4  C   UNL     1       1.992  29.109  47.490  1.00  0.00     0.725 A 
HETATM    5  N   UNL     1       2.025  29.736  48.705  1.00  0.00    -0.084 N 
HETATM    6  N   UNL     1       1.000  30.602  48.840  1.00  0.00    -0.149 NA
HETATM    7  C   UNL     1       0.407  30.470  47.646  1.00  0.00     0.275 A 
HETATM    8  N   UNL     1       0.986  29.567  46.791  1.00  0.00    -0.054 NA
HETATM    9  C   UNL     1       3.028  29.467  49.742  1.00  0.00     0.202 C 
HETATM   10  C   UNL     1       3.926  28.297  49.349  1.00  0.00     0.062 C 
HETATM   11  H   UNL     1       2.800  27.638  46.343  1.00  0.00     0.184 HD
ENDROOT
BRANCH  10  12
HETATM   12  C   UNL     1       4.826  27.851  50.447  1.00  0.00     0.256 C 
HETATM   13  N   UNL     1       4.206  27.034  51.367  1.00  0.00    -0.323 N 
HETATM   14  H   UNL     1       3.225  26.832  51.222  1.00  0.00     0.169 HD
HETATM   15  O   UNL     1       6.004  28.180  50.407  1.00  0.00    -0.267 OA
BRANCH  13  16
HETATM   16  C   UNL     1       4.788  26.440  52.507  1.00  0.00     0.035 A 
HETATM   17  C   UNL     1       4.934  27.084  53.735  1.00  0.00     0.032 A 
HETATM   18  C   UNL     1       5.521  26.419  54.817  1.00  0.00     0.039 A 
HETATM   19  C   UNL     1       5.963  25.101  54.695  1.00  0.00     0.068 A 
HETATM   20  C   UNL     1       5.820  24.452  53.472  1.00  0.00     0.039 A 
HETATM   21  C   UNL     1       5.241  25.120  52.384  1.00  0.00     0.032 A 
BRANCH  19  22
HETATM   22  O   UNL     1       6.509  24.573  55.831  1.00  0.00    -0.356 OA
HETATM   23  C   UNL     1       7.393  23.472  55.671  1.00  0.00     0.210 C 
ENDBRANCH  19  22
ENDBRANCH  13  16
ENDBRANCH  10  12
BRANCH   9  24
HETATM   24  C   UNL     1       3.833  30.731  50.047  1.00  0.00    -0.026 A 
HETATM   25  C   UNL     1       4.688  31.314  49.094  1.00  0.00     0.035 A 
HETATM   26  C   UNL     1       5.427  32.463  49.403  1.00  0.00     0.056 A 
HETATM   27 CL   UNL     1       6.452  33.109  48.170  1.00  0.00    -0.083 Cl
HETATM   28  C   UNL     1       5.325  33.039  50.672  1.00  0.00     0.055 A 
HETATM   29 CL   UNL     1       6.208  34.454  51.122  1.00  0.00    -0.083 Cl
HETATM   30  C   UNL     1       4.489  32.461  51.629  1.00  0.00     0.026 A 
HETATM   31  C   UNL     1       3.751  31.315  51.321  1.00  0.00     0.011 A 
ENDBRANCH   9  24
TORSDOF 4
ENDMDL
