MODEL 1
REMARK VINA RESULT:      -9.4      0.000      0.000
REMARK  9 active torsions:
REMARK  status: ('A' for Active; 'I' for Inactive)
REMARK    1  A    between atoms: C_2  and  C_3 
REMARK    2  A    between atoms: C_3  and  C_4 
REMARK    3  A    between atoms: C_4  and  N_5 
REMARK       I    between atoms: N_5  and  C_6 
REMARK    4  A    between atoms: C_6  and  C_7 
REMARK    5  A    between atoms: C_14  and  S_15 
REMARK    6  A    between atoms: S_15  and  N_16 
REMARK    7  A    between atoms: N_16  and  C_17 
REMARK    8  A    between atoms: C_20  and  O_21 
REMARK    9  A    between atoms: O_21  and  C_22 
ROOT
HETATM    1  C   UNL     1       9.082  30.493  58.423  1.00  0.00     0.098 A 
HETATM    2  C   UNL     1       7.756  30.115  57.858  1.00  0.00     0.201 A 
HETATM    3  O   UNL     1       6.712  30.304  58.479  1.00  0.00    -0.286 OA
HETATM    4  C   UNL     1       7.721  29.487  56.509  1.00  0.00     0.043 A 
HETATM    5  C   UNL     1       8.934  29.285  55.825  1.00  0.00     0.046 A 
HETATM    6  N   UNL     1      10.142  29.647  56.429  1.00  0.00    -0.364 N 
HETATM    7  C   UNL     1       6.503  29.095  55.946  1.00  0.00     0.043 A 
HETATM    8  C   UNL     1       6.507  28.450  54.708  1.00  0.00     0.081 A 
HETATM    9  C   UNL     1       7.705  28.243  54.013  1.00  0.00     0.027 A 
HETATM   10  C   UNL     1       8.915  28.658  54.576  1.00  0.00     0.032 A 
HETATM   11  C   UNL     1      10.161  30.243  57.663  1.00  0.00     0.109 A 
HETATM   12  H   UNL     1      10.999  29.636  55.883  1.00  0.00     0.165 HD
ENDROOT
BRANCH   8  13
HETATM   13  S   UNL     1       4.970  27.912  53.985  1.00  0.00     0.263 S 
HETATM   14  O   UNL     1       3.933  28.819  54.426  1.00  0.00    -0.200 OA
HETATM   15  O   UNL     1       5.217  27.680  52.578  1.00  0.00    -0.200 OA
BRANCH  13  16
HETATM   16  N   UNL     1       4.740  26.387  54.673  1.00  0.00    -0.281 N 
HETATM   17  H   UNL     1       3.758  26.118  54.710  1.00  0.00     0.179 HD
BRANCH  16  18
HETATM   18  C   UNL     1       5.707  25.369  54.457  1.00  0.00     0.042 A 
HETATM   19  C   UNL     1       6.533  24.948  55.494  1.00  0.00     0.033 A 
HETATM   20  C   UNL     1       7.515  23.985  55.253  1.00  0.00     0.039 A 
HETATM   21  C   UNL     1       7.686  23.446  53.975  1.00  0.00     0.068 A 
HETATM   22  C   UNL     1       6.855  23.871  52.938  1.00  0.00     0.039 A 
HETATM   23  C   UNL     1       5.864  24.831  53.179  1.00  0.00     0.033 A 
BRANCH  21  24
HETATM   24  O   UNL     1       8.686  22.520  53.880  1.00  0.00    -0.352 OA
BRANCH  24  25
HETATM   25  C   UNL     1       8.350  21.164  54.169  1.00  0.00     0.171 C 
HETATM   26  C   UNL     1       8.371  20.390  52.863  1.00  0.00     0.034 C 
ENDBRANCH  24  25
ENDBRANCH  21  24
ENDBRANCH  16  18
ENDBRANCH  13  16
ENDBRANCH   8  13
BRANCH   1  27
HETATM   27  C   UNL     1       9.287  31.120  59.761  1.00  0.00     0.257 C 
HETATM   28  N   UNL     1       8.860  30.373  60.827  1.00  0.00    -0.357 N 
HETATM   29  H   UNL     1       8.387  29.487  60.641  1.00  0.00     0.162 HD
HETATM   30  O   UNL     1       9.810  32.225  59.880  1.00  0.00    -0.267 OA
BRANCH  28  31
HETATM   31  C   UNL     1       8.929  30.845  62.193  1.00  0.00     0.123 C 
BRANCH  31  32
HETATM   32  C   UNL     1       7.692  31.643  62.604  1.00  0.00     0.019 C 
BRANCH  32  33
HETATM   33  C   UNL     1       8.046  32.935  63.343  1.00  0.00    -0.003 C 
HETATM   34  C   UNL     1       7.207  33.102  64.599  1.00  0.00     0.005 C 
ENDBRANCH  32  33
ENDBRANCH  31  32
ENDBRANCH  28  31
ENDBRANCH   1  27
TORSDOF 9
ENDMDL
MODEL 2
REMARK VINA RESULT:      -9.4      1.800      2.522
REMARK  9 active torsions:
REMARK  status: ('A' for Active; 'I' for Inactive)
REMARK    1  A    between atoms: C_2  and  C_3 
REMARK    2  A    between atoms: C_3  and  C_4 
REMARK    3  A    between atoms: C_4  and  N_5 
REMARK       I    between atoms: N_5  and  C_6 
REMARK    4  A    between atoms: C_6  and  C_7 
REMARK    5  A    between atoms: C_14  and  S_15 
REMARK    6  A    between atoms: S_15  and  N_16 
REMARK    7  A    between atoms: N_16  and  C_17 
REMARK    8  A    between atoms: C_20  and  O_21 
REMARK    9  A    between atoms: O_21  and  C_22 
ROOT
HETATM    1  C   UNL     1       7.101  30.918  58.211  1.00  0.00     0.098 A 
HETATM    2  C   UNL     1       7.340  29.852  57.196  1.00  0.00     0.201 A 
HETATM    3  O   UNL     1       8.381  29.198  57.180  1.00  0.00    -0.286 OA
HETATM    4  C   UNL     1       6.281  29.597  56.183  1.00  0.00     0.043 A 
HETATM    5  C   UNL     1       5.101  30.363  56.229  1.00  0.00     0.046 A 
HETATM    6  N   UNL     1       4.957  31.361  57.200  1.00  0.00    -0.364 N 
HETATM    7  C   UNL     1       6.467  28.624  55.198  1.00  0.00     0.043 A 
HETATM    8  C   UNL     1       5.484  28.452  54.221  1.00  0.00     0.081 A 
HETATM    9  C   UNL     1       4.304  29.205  54.255  1.00  0.00     0.027 A 
HETATM   10  C   UNL     1       4.118  30.161  55.257  1.00  0.00     0.032 A 
HETATM   11  C   UNL     1       5.930  31.573  58.140  1.00  0.00     0.109 A 
HETATM   12  H   UNL     1       4.056  31.812  57.325  1.00  0.00     0.165 HD
ENDROOT
BRANCH   8  13
HETATM   13  S   UNL     1       5.715  27.239  52.937  1.00  0.00     0.263 S 
HETATM   14  O   UNL     1       4.745  26.186  53.143  1.00  0.00    -0.200 OA
HETATM   15  O   UNL     1       5.791  27.955  51.681  1.00  0.00    -0.200 OA
BRANCH  13  16
HETATM   16  N   UNL     1       7.274  26.661  53.235  1.00  0.00    -0.281 N 
HETATM   17  H   UNL     1       7.867  27.353  53.690  1.00  0.00     0.179 HD
BRANCH  16  18
HETATM   18  C   UNL     1       7.461  25.293  53.568  1.00  0.00     0.042 A 
HETATM   19  C   UNL     1       7.710  24.352  52.573  1.00  0.00     0.033 A 
HETATM   20  C   UNL     1       7.838  23.003  52.910  1.00  0.00     0.039 A 
HETATM   21  C   UNL     1       7.708  22.584  54.237  1.00  0.00     0.068 A 
HETATM   22  C   UNL     1       7.460  23.532  55.231  1.00  0.00     0.039 A 
HETATM   23  C   UNL     1       7.339  24.886  54.897  1.00  0.00     0.033 A 
BRANCH  21  24
HETATM   24  O   UNL     1       7.851  21.239  54.422  1.00  0.00    -0.352 OA
BRANCH  24  25
HETATM   25  C   UNL     1       7.682  20.740  55.748  1.00  0.00     0.171 C 
HETATM   26  C   UNL     1       9.055  20.391  56.293  1.00  0.00     0.034 C 
ENDBRANCH  24  25
ENDBRANCH  21  24
ENDBRANCH  16  18
ENDBRANCH  13  16
ENDBRANCH   8  13
BRANCH   1  27
HETATM   27  C   UNL     1       8.064  31.300  59.283  1.00  0.00     0.257 C 
HETATM   28  N   UNL     1       8.204  30.388  60.296  1.00  0.00    -0.357 N 
HETATM   29  H   UNL     1       7.612  29.555  60.283  1.00  0.00     0.162 HD
HETATM   30  O   UNL     1       8.685  32.359  59.243  1.00  0.00    -0.267 OA
BRANCH  28  31
HETATM   31  C   UNL     1       9.052  30.614  61.445  1.00  0.00     0.123 C 
BRANCH  31  32
HETATM   32  C   UNL     1       8.264  31.041  62.683  1.00  0.00     0.019 C 
BRANCH  32  33
HETATM   33  C   UNL     1       8.209  32.561  62.849  1.00  0.00    -0.003 C 
HETATM   34  C   UNL     1       7.625  32.951  64.197  1.00  0.00     0.005 C 
ENDBRANCH  32  33
ENDBRANCH  31  32
ENDBRANCH  28  31
ENDBRANCH   1  27
TORSDOF 9
ENDMDL
MODEL 3
REMARK VINA RESULT:      -9.0      2.822     10.371
REMARK  9 active torsions:
REMARK  status: ('A' for Active; 'I' for Inactive)
REMARK    1  A    between atoms: C_2  and  C_3 
REMARK    2  A    between atoms: C_3  and  C_4 
REMARK    3  A    between atoms: C_4  and  N_5 
REMARK       I    between atoms: N_5  and  C_6 
REMARK    4  A    between atoms: C_6  and  C_7 
REMARK    5  A    between atoms: C_14  and  S_15 
REMARK    6  A    between atoms: S_15  and  N_16 
REMARK    7  A    between atoms: N_16  and  C_17 
REMARK    8  A    between atoms: C_20  and  O_21 
REMARK    9  A    between atoms: O_21  and  C_22 
ROOT
HETATM    1  C   UNL     1       6.650  26.522  56.110  1.00  0.00     0.098 A 
HETATM    2  C   UNL     1       7.630  27.188  57.015  1.00  0.00     0.201 A 
HETATM    3  O   UNL     1       8.636  26.607  57.417  1.00  0.00    -0.286 OA
HETATM    4  C   UNL     1       7.359  28.590  57.433  1.00  0.00     0.043 A 
HETATM    5  C   UNL     1       6.199  29.227  56.955  1.00  0.00     0.046 A 
HETATM    6  N   UNL     1       5.314  28.530  56.125  1.00  0.00    -0.364 N 
HETATM    7  C   UNL     1       8.237  29.249  58.298  1.00  0.00     0.043 A 
HETATM    8  C   UNL     1       7.923  30.541  58.725  1.00  0.00     0.081 A 
HETATM    9  C   UNL     1       6.773  31.190  58.257  1.00  0.00     0.027 A 
HETATM   10  C   UNL     1       5.913  30.529  57.376  1.00  0.00     0.032 A 
HETATM   11  C   UNL     1       5.584  27.246  55.729  1.00  0.00     0.109 A 
HETATM   12  H   UNL     1       4.559  29.029  55.666  1.00  0.00     0.165 HD
ENDROOT
BRANCH   8  13
HETATM   13  S   UNL     1       9.011  31.390  59.853  1.00  0.00     0.263 S 
HETATM   14  O   UNL     1       9.216  30.531  60.998  1.00  0.00    -0.200 OA
HETATM   15  O   UNL     1      10.127  31.887  59.077  1.00  0.00    -0.200 OA
BRANCH  13  16
HETATM   16  N   UNL     1       8.113  32.750  60.297  1.00  0.00    -0.281 N 
HETATM   17  H   UNL     1       7.762  33.266  59.493  1.00  0.00     0.179 HD
BRANCH  16  18
HETATM   18  C   UNL     1       7.312  32.706  61.470  1.00  0.00     0.042 A 
HETATM   19  C   UNL     1       5.925  32.656  61.377  1.00  0.00     0.033 A 
HETATM   20  C   UNL     1       5.150  32.668  62.538  1.00  0.00     0.039 A 
HETATM   21  C   UNL     1       5.754  32.741  63.796  1.00  0.00     0.068 A 
HETATM   22  C   UNL     1       7.145  32.790  63.885  1.00  0.00     0.039 A 
HETATM   23  C   UNL     1       7.925  32.770  62.722  1.00  0.00     0.033 A 
BRANCH  21  24
HETATM   24  O   UNL     1       4.878  32.751  64.845  1.00  0.00    -0.352 OA
BRANCH  24  25
HETATM   25  C   UNL     1       4.321  34.009  65.220  1.00  0.00     0.171 C 
HETATM   26  C   UNL     1       4.742  34.297  66.650  1.00  0.00     0.034 C 
ENDBRANCH  24  25
ENDBRANCH  21  24
ENDBRANCH  16  18
ENDBRANCH  13  16
ENDBRANCH   8  13
BRANCH   1  27
HETATM   27  C   UNL     1       6.772  25.123  55.610  1.00  0.00     0.257 C 
HETATM   28  N   UNL     1       6.722  24.983  54.247  1.00  0.00    -0.357 N 
HETATM   29  H   UNL     1       6.550  25.815  53.681  1.00  0.00     0.162 HD
HETATM   30  O   UNL     1       6.913  24.174  56.378  1.00  0.00    -0.267 OA
BRANCH  28  31
HETATM   31  C   UNL     1       6.770  23.697  53.588  1.00  0.00     0.123 C 
BRANCH  31  32
HETATM   32  C   UNL     1       8.197  23.257  53.258  1.00  0.00     0.019 C 
BRANCH  32  33
HETATM   33  C   UNL     1       8.551  21.902  53.874  1.00  0.00    -0.003 C 
HETATM   34  C   UNL     1       8.084  20.754  52.995  1.00  0.00     0.005 C 
ENDBRANCH  32  33
ENDBRANCH  31  32
ENDBRANCH  28  31
ENDBRANCH   1  27
TORSDOF 9
ENDMDL
MODEL 4
REMARK VINA RESULT:      -8.7      1.635      1.824
REMARK  9 active torsions:
REMARK  status: ('A' for Active; 'I' for Inactive)
REMARK    1  A    between atoms: C_2  and  C_3 
REMARK    2  A    between atoms: C_3  and  C_4 
REMARK    3  A    between atoms: C_4  and  N_5 
REMARK       I    between atoms: N_5  and  C_6 
REMARK    4  A    between atoms: C_6  and  C_7 
REMARK    5  A    between atoms: C_14  and  S_15 
REMARK    6  A    between atoms: S_15  and  N_16 
REMARK    7  A    between atoms: N_16  and  C_17 
REMARK    8  A    between atoms: C_20  and  O_21 
REMARK    9  A    between atoms: O_21  and  C_22 
ROOT
HETATM    1  C   UNL     1       6.802  30.954  58.041  1.00  0.00     0.098 A 
HETATM    2  C   UNL     1       5.810  30.479  57.034  1.00  0.00     0.201 A 
HETATM    3  O   UNL     1       4.624  30.796  57.096  1.00  0.00    -0.286 OA
HETATM    4  C   UNL     1       6.292  29.594  55.939  1.00  0.00     0.043 A 
HETATM    5  C   UNL     1       7.656  29.250  55.896  1.00  0.00     0.046 A 
HETATM    6  N   UNL     1       8.523  29.718  56.889  1.00  0.00    -0.364 N 
HETATM    7  C   UNL     1       5.397  29.105  54.983  1.00  0.00     0.043 A 
HETATM    8  C   UNL     1       5.865  28.225  54.006  1.00  0.00     0.081 A 
HETATM    9  C   UNL     1       7.219  27.875  53.948  1.00  0.00     0.027 A 
HETATM   10  C   UNL     1       8.110  28.385  54.896  1.00  0.00     0.032 A 
HETATM   11  C   UNL     1       8.073  30.549  57.882  1.00  0.00     0.109 A 
HETATM   12  H   UNL     1       9.525  29.592  56.780  1.00  0.00     0.165 HD
ENDROOT
BRANCH   8  13
HETATM   13  S   UNL     1       4.735  27.564  52.796  1.00  0.00     0.263 S 
HETATM   14  O   UNL     1       3.574  28.425  52.759  1.00  0.00    -0.200 OA
HETATM   15  O   UNL     1       5.503  27.286  51.600  1.00  0.00    -0.200 OA
BRANCH  13  16
HETATM   16  N   UNL     1       4.324  26.059  53.443  1.00  0.00    -0.281 N 
HETATM   17  H   UNL     1       3.479  25.672  53.027  1.00  0.00     0.179 HD
BRANCH  16  18
HETATM   18  C   UNL     1       5.354  25.160  53.831  1.00  0.00     0.042 A 
HETATM   19  C   UNL     1       5.708  25.027  55.170  1.00  0.00     0.033 A 
HETATM   20  C   UNL     1       6.757  24.180  55.530  1.00  0.00     0.039 A 
HETATM   21  C   UNL     1       7.466  23.470  54.557  1.00  0.00     0.068 A 
HETATM   22  C   UNL     1       7.107  23.606  53.215  1.00  0.00     0.039 A 
HETATM   23  C   UNL     1       6.049  24.449  52.852  1.00  0.00     0.033 A 
BRANCH  21  24
HETATM   24  O   UNL     1       8.470  22.685  55.048  1.00  0.00    -0.352 OA
BRANCH  24  25
HETATM   25  C   UNL     1       8.378  22.285  56.414  1.00  0.00     0.171 C 
HETATM   26  C   UNL     1       8.162  20.783  56.447  1.00  0.00     0.034 C 
ENDBRANCH  24  25
ENDBRANCH  21  24
ENDBRANCH  16  18
ENDBRANCH  13  16
ENDBRANCH   8  13
BRANCH   1  27
HETATM   27  C   UNL     1       6.479  31.834  59.201  1.00  0.00     0.257 C 
HETATM   28  N   UNL     1       6.820  31.331  60.429  1.00  0.00    -0.357 N 
HETATM   29  H   UNL     1       7.209  30.388  60.476  1.00  0.00     0.162 HD
HETATM   30  O   UNL     1       5.949  32.932  59.047  1.00  0.00    -0.267 OA
BRANCH  28  31
HETATM   31  C   UNL     1       6.534  32.022  61.667  1.00  0.00     0.123 C 
BRANCH  31  32
HETATM   32  C   UNL     1       7.756  32.743  62.236  1.00  0.00     0.019 C 
BRANCH  32  33
HETATM   33  C   UNL     1       7.936  32.500  63.735  1.00  0.00    -0.003 C 
HETATM   34  C   UNL     1       7.289  33.603  64.557  1.00  0.00     0.005 C 
ENDBRANCH  32  33
ENDBRANCH  31  32
ENDBRANCH  28  31
ENDBRANCH   1  27
TORSDOF 9
ENDMDL
MODEL 5
REMARK VINA RESULT:      -8.7      2.522      4.296
REMARK  9 active torsions:
REMARK  status: ('A' for Active; 'I' for Inactive)
REMARK    1  A    between atoms: C_2  and  C_3 
REMARK    2  A    between atoms: C_3  and  C_4 
REMARK    3  A    between atoms: C_4  and  N_5 
REMARK       I    between atoms: N_5  and  C_6 
REMARK    4  A    between atoms: C_6  and  C_7 
REMARK    5  A    between atoms: C_14  and  S_15 
REMARK    6  A    between atoms: S_15  and  N_16 
REMARK    7  A    between atoms: N_16  and  C_17 
REMARK    8  A    between atoms: C_20  and  O_21 
REMARK    9  A    between atoms: O_21  and  C_22 
ROOT
HETATM    1  C   UNL     1       6.895  29.985  58.213  1.00  0.00     0.098 A 
HETATM    2  C   UNL     1       7.711  28.789  57.856  1.00  0.00     0.201 A 
HETATM    3  O   UNL     1       8.932  28.778  57.991  1.00  0.00    -0.286 OA
HETATM    4  C   UNL     1       7.006  27.594  57.319  1.00  0.00     0.043 A 
HETATM    5  C   UNL     1       5.607  27.639  57.178  1.00  0.00     0.046 A 
HETATM    6  N   UNL     1       4.911  28.805  57.514  1.00  0.00    -0.364 N 
HETATM    7  C   UNL     1       7.730  26.456  56.950  1.00  0.00     0.043 A 
HETATM    8  C   UNL     1       7.049  25.374  56.388  1.00  0.00     0.081 A 
HETATM    9  C   UNL     1       5.657  25.403  56.242  1.00  0.00     0.027 A 
HETATM   10  C   UNL     1       4.941  26.537  56.634  1.00  0.00     0.032 A 
HETATM   11  C   UNL     1       5.567  29.892  58.027  1.00  0.00     0.109 A 
HETATM   12  H   UNL     1       3.896  28.790  57.550  1.00  0.00     0.165 HD
ENDROOT
BRANCH   8  13
HETATM   13  S   UNL     1       7.955  23.926  55.880  1.00  0.00     0.263 S 
HETATM   14  O   UNL     1       9.180  23.880  56.647  1.00  0.00    -0.200 OA
HETATM   15  O   UNL     1       7.025  22.817  55.882  1.00  0.00    -0.200 OA
BRANCH  13  16
HETATM   16  N   UNL     1       8.297  24.242  54.256  1.00  0.00    -0.281 N 
HETATM   17  H   UNL     1       8.820  23.489  53.813  1.00  0.00     0.179 HD
BRANCH  16  18
HETATM   18  C   UNL     1       7.355  24.958  53.470  1.00  0.00     0.042 A 
HETATM   19  C   UNL     1       6.281  24.299  52.878  1.00  0.00     0.033 A 
HETATM   20  C   UNL     1       5.395  25.008  52.066  1.00  0.00     0.039 A 
HETATM   21  C   UNL     1       5.580  26.373  51.829  1.00  0.00     0.068 A 
HETATM   22  C   UNL     1       6.657  27.029  52.426  1.00  0.00     0.039 A 
HETATM   23  C   UNL     1       7.543  26.323  53.248  1.00  0.00     0.033 A 
BRANCH  21  24
HETATM   24  O   UNL     1       4.642  26.938  51.012  1.00  0.00    -0.352 OA
BRANCH  24  25
HETATM   25  C   UNL     1       5.115  27.759  49.945  1.00  0.00     0.171 C 
HETATM   26  C   UNL     1       4.699  27.110  48.638  1.00  0.00     0.034 C 
ENDBRANCH  24  25
ENDBRANCH  21  24
ENDBRANCH  16  18
ENDBRANCH  13  16
ENDBRANCH   8  13
BRANCH   1  27
HETATM   27  C   UNL     1       7.448  31.260  58.752  1.00  0.00     0.257 C 
HETATM   28  N   UNL     1       8.572  31.128  59.526  1.00  0.00    -0.357 N 
HETATM   29  H   UNL     1       8.914  30.187  59.728  1.00  0.00     0.162 HD
HETATM   30  O   UNL     1       6.926  32.344  58.505  1.00  0.00    -0.267 OA
BRANCH  28  31
HETATM   31  C   UNL     1       9.213  32.250  60.176  1.00  0.00     0.123 C 
BRANCH  31  32
HETATM   32  C   UNL     1       9.338  32.062  61.688  1.00  0.00     0.019 C 
BRANCH  32  33
HETATM   33  C   UNL     1       7.978  31.975  62.383  1.00  0.00    -0.003 C 
HETATM   34  C   UNL     1       7.980  32.732  63.701  1.00  0.00     0.005 C 
ENDBRANCH  32  33
ENDBRANCH  31  32
ENDBRANCH  28  31
ENDBRANCH   1  27
TORSDOF 9
ENDMDL
MODEL 6
REMARK VINA RESULT:      -8.2      6.455      9.941
REMARK  9 active torsions:
REMARK  status: ('A' for Active; 'I' for Inactive)
REMARK    1  A    between atoms: C_2  and  C_3 
REMARK    2  A    between atoms: C_3  and  C_4 
REMARK    3  A    between atoms: C_4  and  N_5 
REMARK       I    between atoms: N_5  and  C_6 
REMARK    4  A    between atoms: C_6  and  C_7 
REMARK    5  A    between atoms: C_14  and  S_15 
REMARK    6  A    between atoms: S_15  and  N_16 
REMARK    7  A    between atoms: N_16  and  C_17 
REMARK    8  A    between atoms: C_20  and  O_21 
REMARK    9  A    between atoms: O_21  and  C_22 
ROOT
HETATM    1  C   UNL     1       6.836  26.300  53.823  1.00  0.00     0.098 A 
HETATM    2  C   UNL     1       6.041  25.704  52.711  1.00  0.00     0.201 A 
HETATM    3  O   UNL     1       5.852  24.492  52.630  1.00  0.00    -0.286 OA
HETATM    4  C   UNL     1       5.479  26.620  51.682  1.00  0.00     0.043 A 
HETATM    5  C   UNL     1       5.713  28.002  51.804  1.00  0.00     0.046 A 
HETATM    6  N   UNL     1       6.486  28.486  52.865  1.00  0.00    -0.364 N 
HETATM    7  C   UNL     1       4.745  26.107  50.608  1.00  0.00     0.043 A 
HETATM    8  C   UNL     1       4.285  26.984  49.623  1.00  0.00     0.081 A 
HETATM    9  C   UNL     1       4.508  28.362  49.732  1.00  0.00     0.027 A 
HETATM   10  C   UNL     1       5.225  28.866  50.820  1.00  0.00     0.032 A 
HETATM   11  C   UNL     1       6.983  27.635  53.818  1.00  0.00     0.109 A 
HETATM   12  H   UNL     1       6.535  29.485  53.035  1.00  0.00     0.165 HD
ENDROOT
BRANCH   8  13
HETATM   13  S   UNL     1       3.375  26.349  48.229  1.00  0.00     0.263 S 
HETATM   14  O   UNL     1       3.913  26.961  47.034  1.00  0.00    -0.200 OA
HETATM   15  O   UNL     1       3.318  24.909  48.374  1.00  0.00    -0.200 OA
BRANCH  13  16
HETATM   16  N   UNL     1       1.806  26.905  48.513  1.00  0.00    -0.281 N 
HETATM   17  H   UNL     1       1.640  27.122  49.494  1.00  0.00     0.179 HD
BRANCH  16  18
HETATM   18  C   UNL     1       1.157  27.699  47.529  1.00  0.00     0.042 A 
HETATM   19  C   UNL     1       1.196  29.088  47.603  1.00  0.00     0.033 A 
HETATM   20  C   UNL     1       0.508  29.853  46.660  1.00  0.00     0.039 A 
HETATM   21  C   UNL     1      -0.230  29.238  45.645  1.00  0.00     0.068 A 
HETATM   22  C   UNL     1      -0.265  27.845  45.574  1.00  0.00     0.039 A 
HETATM   23  C   UNL     1       0.430  27.075  46.515  1.00  0.00     0.033 A 
BRANCH  21  24
HETATM   24  O   UNL     1      -0.856  30.105  44.795  1.00  0.00    -0.352 OA
BRANCH  24  25
HETATM   25  C   UNL     1      -1.542  29.544  43.677  1.00  0.00     0.171 C 
HETATM   26  C   UNL     1      -2.963  30.075  43.686  1.00  0.00     0.034 C 
ENDBRANCH  24  25
ENDBRANCH  21  24
ENDBRANCH  16  18
ENDBRANCH  13  16
ENDBRANCH   8  13
BRANCH   1  27
HETATM   27  C   UNL     1       7.473  25.520  54.923  1.00  0.00     0.257 C 
HETATM   28  N   UNL     1       8.063  24.345  54.540  1.00  0.00    -0.357 N 
HETATM   29  H   UNL     1       7.981  24.056  53.564  1.00  0.00     0.162 HD
HETATM   30  O   UNL     1       7.465  25.921  56.084  1.00  0.00    -0.267 OA
BRANCH  28  31
HETATM   31  C   UNL     1       8.681  23.435  55.479  1.00  0.00     0.123 C 
BRANCH  31  32
HETATM   32  C   UNL     1       9.095  22.112  54.833  1.00  0.00     0.019 C 
BRANCH  32  33
HETATM   33  C   UNL     1       8.503  21.933  53.433  1.00  0.00    -0.003 C 
HETATM   34  C   UNL     1       8.027  20.507  53.211  1.00  0.00     0.005 C 
ENDBRANCH  32  33
ENDBRANCH  31  32
ENDBRANCH  28  31
ENDBRANCH   1  27
TORSDOF 9
ENDMDL
MODEL 7
REMARK VINA RESULT:      -8.2      4.090      7.671
REMARK  9 active torsions:
REMARK  status: ('A' for Active; 'I' for Inactive)
REMARK    1  A    between atoms: C_2  and  C_3 
REMARK    2  A    between atoms: C_3  and  C_4 
REMARK    3  A    between atoms: C_4  and  N_5 
REMARK       I    between atoms: N_5  and  C_6 
REMARK    4  A    between atoms: C_6  and  C_7 
REMARK    5  A    between atoms: C_14  and  S_15 
REMARK    6  A    between atoms: S_15  and  N_16 
REMARK    7  A    between atoms: N_16  and  C_17 
REMARK    8  A    between atoms: C_20  and  O_21 
REMARK    9  A    between atoms: O_21  and  C_22 
ROOT
HETATM    1  C   UNL     1       7.980  24.768  56.243  1.00  0.00     0.098 A 
HETATM    2  C   UNL     1       7.179  25.385  55.148  1.00  0.00     0.201 A 
HETATM    3  O   UNL     1       7.016  24.818  54.069  1.00  0.00    -0.286 OA
HETATM    4  C   UNL     1       6.577  26.724  55.388  1.00  0.00     0.043 A 
HETATM    5  C   UNL     1       6.782  27.346  56.634  1.00  0.00     0.046 A 
HETATM    6  N   UNL     1       7.563  26.714  57.606  1.00  0.00    -0.364 N 
HETATM    7  C   UNL     1       5.836  27.353  54.384  1.00  0.00     0.043 A 
HETATM    8  C   UNL     1       5.338  28.638  54.614  1.00  0.00     0.081 A 
HETATM    9  C   UNL     1       5.532  29.269  55.848  1.00  0.00     0.027 A 
HETATM   10  C   UNL     1       6.256  28.622  56.853  1.00  0.00     0.032 A 
HETATM   11  C   UNL     1       8.096  25.471  57.382  1.00  0.00     0.109 A 
HETATM   12  H   UNL     1       7.592  27.090  58.549  1.00  0.00     0.165 HD
ENDROOT
BRANCH   8  13
HETATM   13  S   UNL     1       4.418  29.472  53.336  1.00  0.00     0.263 S 
HETATM   14  O   UNL     1       3.294  28.633  52.981  1.00  0.00    -0.200 OA
HETATM   15  O   UNL     1       4.226  30.840  53.771  1.00  0.00    -0.200 OA
BRANCH  13  16
HETATM   16  N   UNL     1       5.519  29.542  52.058  1.00  0.00    -0.281 N 
HETATM   17  H   UNL     1       6.481  29.646  52.376  1.00  0.00     0.179 HD
BRANCH  16  18
HETATM   18  C   UNL     1       5.278  28.779  50.884  1.00  0.00     0.042 A 
HETATM   19  C   UNL     1       4.892  29.405  49.702  1.00  0.00     0.033 A 
HETATM   20  C   UNL     1       4.607  28.637  48.572  1.00  0.00     0.039 A 
HETATM   21  C   UNL     1       4.693  27.242  48.617  1.00  0.00     0.068 A 
HETATM   22  C   UNL     1       5.081  26.620  49.804  1.00  0.00     0.039 A 
HETATM   23  C   UNL     1       5.376  27.388  50.937  1.00  0.00     0.033 A 
BRANCH  21  24
HETATM   24  O   UNL     1       4.381  26.617  47.443  1.00  0.00    -0.352 OA
BRANCH  24  25
HETATM   25  C   UNL     1       3.021  26.231  47.250  1.00  0.00     0.171 C 
HETATM   26  C   UNL     1       2.885  24.778  47.668  1.00  0.00     0.034 C 
ENDBRANCH  24  25
ENDBRANCH  21  24
ENDBRANCH  16  18
ENDBRANCH  13  16
ENDBRANCH   8  13
BRANCH   1  27
HETATM   27  C   UNL     1       8.654  23.441  56.158  1.00  0.00     0.257 C 
HETATM   28  N   UNL     1       7.950  22.392  56.690  1.00  0.00    -0.357 N 
HETATM   29  H   UNL     1       7.060  22.590  57.151  1.00  0.00     0.162 HD
HETATM   30  O   UNL     1       9.760  23.313  55.638  1.00  0.00    -0.267 OA
BRANCH  28  31
HETATM   31  C   UNL     1       8.470  21.044  56.743  1.00  0.00     0.123 C 
BRANCH  31  32
HETATM   32  C   UNL     1       7.888  20.144  55.654  1.00  0.00     0.019 C 
BRANCH  32  33
HETATM   33  C   UNL     1       8.713  20.173  54.365  1.00  0.00    -0.003 C 
HETATM   34  C   UNL     1       7.926  20.785  53.218  1.00  0.00     0.005 C 
ENDBRANCH  32  33
ENDBRANCH  31  32
ENDBRANCH  28  31
ENDBRANCH   1  27
TORSDOF 9
ENDMDL
MODEL 8
REMARK VINA RESULT:      -8.0      2.399      3.276
REMARK  9 active torsions:
REMARK  status: ('A' for Active; 'I' for Inactive)
REMARK    1  A    between atoms: C_2  and  C_3 
REMARK    2  A    between atoms: C_3  and  C_4 
REMARK    3  A    between atoms: C_4  and  N_5 
REMARK       I    between atoms: N_5  and  C_6 
REMARK    4  A    between atoms: C_6  and  C_7 
REMARK    5  A    between atoms: C_14  and  S_15 
REMARK    6  A    between atoms: S_15  and  N_16 
REMARK    7  A    between atoms: N_16  and  C_17 
REMARK    8  A    between atoms: C_20  and  O_21 
REMARK    9  A    between atoms: O_21  and  C_22 
ROOT
HETATM    1  C   UNL     1       7.397  32.472  60.636  1.00  0.00     0.098 A 
HETATM    2  C   UNL     1       6.684  31.719  59.564  1.00  0.00     0.201 A 
HETATM    3  O   UNL     1       5.460  31.744  59.463  1.00  0.00    -0.286 OA
HETATM    4  C   UNL     1       7.498  30.920  58.609  1.00  0.00     0.043 A 
HETATM    5  C   UNL     1       8.898  30.913  58.751  1.00  0.00     0.046 A 
HETATM    6  N   UNL     1       9.494  31.628  59.796  1.00  0.00    -0.364 N 
HETATM    7  C   UNL     1       6.874  30.180  57.600  1.00  0.00     0.043 A 
HETATM    8  C   UNL     1       7.659  29.387  56.759  1.00  0.00     0.081 A 
HETATM    9  C   UNL     1       9.053  29.371  56.887  1.00  0.00     0.027 A 
HETATM   10  C   UNL     1       9.668  30.131  57.886  1.00  0.00     0.032 A 
HETATM   11  C   UNL     1       8.737  32.377  60.658  1.00  0.00     0.109 A 
HETATM   12  H   UNL     1      10.503  31.741  59.814  1.00  0.00     0.165 HD
ENDROOT
BRANCH   8  13
HETATM   13  S   UNL     1       6.883  28.411  55.487  1.00  0.00     0.263 S 
HETATM   14  O   UNL     1       5.745  29.153  54.992  1.00  0.00    -0.200 OA
HETATM   15  O   UNL     1       7.930  27.959  54.595  1.00  0.00    -0.200 OA
BRANCH  13  16
HETATM   16  N   UNL     1       6.364  27.038  56.324  1.00  0.00    -0.281 N 
HETATM   17  H   UNL     1       5.359  27.037  56.488  1.00  0.00     0.179 HD
BRANCH  16  18
HETATM   18  C   UNL     1       7.010  25.794  56.095  1.00  0.00     0.042 A 
HETATM   19  C   UNL     1       6.499  24.893  55.165  1.00  0.00     0.033 A 
HETATM   20  C   UNL     1       7.115  23.653  54.990  1.00  0.00     0.039 A 
HETATM   21  C   UNL     1       8.234  23.299  55.748  1.00  0.00     0.068 A 
HETATM   22  C   UNL     1       8.743  24.206  56.678  1.00  0.00     0.039 A 
HETATM   23  C   UNL     1       8.133  25.454  56.850  1.00  0.00     0.033 A 
BRANCH  21  24
HETATM   24  O   UNL     1       8.731  22.055  55.478  1.00  0.00    -0.352 OA
BRANCH  24  25
HETATM   25  C   UNL     1       7.926  21.189  54.680  1.00  0.00     0.171 C 
HETATM   26  C   UNL     1       8.679  20.907  53.393  1.00  0.00     0.034 C 
ENDBRANCH  24  25
ENDBRANCH  21  24
ENDBRANCH  16  18
ENDBRANCH  13  16
ENDBRANCH   8  13
BRANCH   1  27
HETATM   27  C   UNL     1       6.728  33.308  61.673  1.00  0.00     0.257 C 
HETATM   28  N   UNL     1       5.560  33.906  61.278  1.00  0.00    -0.357 N 
HETATM   29  H   UNL     1       5.261  33.792  60.308  1.00  0.00     0.162 HD
HETATM   30  O   UNL     1       7.201  33.437  62.800  1.00  0.00    -0.267 OA
BRANCH  28  31
HETATM   31  C   UNL     1       4.805  34.795  62.133  1.00  0.00     0.123 C 
BRANCH  31  32
HETATM   32  C   UNL     1       5.258  36.250  62.016  1.00  0.00     0.019 C 
BRANCH  32  33
HETATM   33  C   UNL     1       5.682  36.842  63.362  1.00  0.00    -0.003 C 
HETATM   34  C   UNL     1       5.153  36.017  64.522  1.00  0.00     0.005 C 
ENDBRANCH  32  33
ENDBRANCH  31  32
ENDBRANCH  28  31
ENDBRANCH   1  27
TORSDOF 9
ENDMDL
MODEL 9
REMARK VINA RESULT:      -8.0      4.948     11.204
REMARK  9 active torsions:
REMARK  status: ('A' for Active; 'I' for Inactive)
REMARK    1  A    between atoms: C_2  and  C_3 
REMARK    2  A    between atoms: C_3  and  C_4 
REMARK    3  A    between atoms: C_4  and  N_5 
REMARK       I    between atoms: N_5  and  C_6 
REMARK    4  A    between atoms: C_6  and  C_7 
REMARK    5  A    between atoms: C_14  and  S_15 
REMARK    6  A    between atoms: S_15  and  N_16 
REMARK    7  A    between atoms: N_16  and  C_17 
REMARK    8  A    between atoms: C_20  and  O_21 
REMARK    9  A    between atoms: O_21  and  C_22 
ROOT
HETATM    1  C   UNL     1       8.275  31.707  59.359  1.00  0.00     0.098 A 
HETATM    2  C   UNL     1       8.335  32.241  60.750  1.00  0.00     0.201 A 
HETATM    3  O   UNL     1       9.407  32.449  61.316  1.00  0.00    -0.286 OA
HETATM    4  C   UNL     1       7.053  32.516  61.452  1.00  0.00     0.043 A 
HETATM    5  C   UNL     1       5.843  32.268  60.776  1.00  0.00     0.046 A 
HETATM    6  N   UNL     1       5.866  31.746  59.478  1.00  0.00    -0.364 N 
HETATM    7  C   UNL     1       7.057  32.997  62.765  1.00  0.00     0.043 A 
HETATM    8  C   UNL     1       5.839  33.183  63.421  1.00  0.00     0.081 A 
HETATM    9  C   UNL     1       4.627  32.943  62.762  1.00  0.00     0.027 A 
HETATM   10  C   UNL     1       4.634  32.482  61.443  1.00  0.00     0.032 A 
HETATM   11  C   UNL     1       7.053  31.516  58.834  1.00  0.00     0.109 A 
HETATM   12  H   UNL     1       5.007  31.703  58.940  1.00  0.00     0.165 HD
ENDROOT
BRANCH   8  13
HETATM   13  S   UNL     1       5.821  33.765  65.105  1.00  0.00     0.263 S 
HETATM   14  O   UNL     1       4.545  33.406  65.683  1.00  0.00    -0.200 OA
HETATM   15  O   UNL     1       7.066  33.347  65.716  1.00  0.00    -0.200 OA
BRANCH  13  16
HETATM   16  N   UNL     1       5.931  35.441  64.930  1.00  0.00    -0.281 N 
HETATM   17  H   UNL     1       6.828  35.809  65.241  1.00  0.00     0.179 HD
BRANCH  16  18
HETATM   18  C   UNL     1       5.290  36.072  63.830  1.00  0.00     0.042 A 
HETATM   19  C   UNL     1       6.036  36.555  62.759  1.00  0.00     0.033 A 
HETATM   20  C   UNL     1       5.397  37.220  61.712  1.00  0.00     0.039 A 
HETATM   21  C   UNL     1       4.014  37.418  61.731  1.00  0.00     0.068 A 
HETATM   22  C   UNL     1       3.270  36.931  62.806  1.00  0.00     0.039 A 
HETATM   23  C   UNL     1       3.907  36.256  63.855  1.00  0.00     0.033 A 
BRANCH  21  24
HETATM   24  O   UNL     1       3.522  38.088  60.647  1.00  0.00    -0.352 OA
BRANCH  24  25
HETATM   25  C   UNL     1       3.924  37.629  59.357  1.00  0.00     0.171 C 
HETATM   26  C   UNL     1       2.981  36.514  58.944  1.00  0.00     0.034 C 
ENDBRANCH  24  25
ENDBRANCH  21  24
ENDBRANCH  16  18
ENDBRANCH  13  16
ENDBRANCH   8  13
BRANCH   1  27
HETATM   27  C   UNL     1       9.466  31.373  58.526  1.00  0.00     0.257 C 
HETATM   28  N   UNL     1       9.356  30.225  57.785  1.00  0.00    -0.357 N 
HETATM   29  H   UNL     1       8.514  29.657  57.893  1.00  0.00     0.162 HD
HETATM   30  O   UNL     1      10.463  32.089  58.512  1.00  0.00    -0.267 OA
BRANCH  28  31
HETATM   31  C   UNL     1      10.431  29.717  56.962  1.00  0.00     0.123 C 
BRANCH  31  32
HETATM   32  C   UNL     1       9.963  29.319  55.562  1.00  0.00     0.019 C 
BRANCH  32  33
HETATM   33  C   UNL     1       8.463  29.023  55.507  1.00  0.00    -0.003 C 
HETATM   34  C   UNL     1       8.096  28.253  54.250  1.00  0.00     0.005 C 
ENDBRANCH  32  33
ENDBRANCH  31  32
ENDBRANCH  28  31
ENDBRANCH   1  27
TORSDOF 9
ENDMDL
MODEL 10
REMARK VINA RESULT:      -7.8      5.488      9.368
REMARK  9 active torsions:
REMARK  status: ('A' for Active; 'I' for Inactive)
REMARK    1  A    between atoms: C_2  and  C_3 
REMARK    2  A    between atoms: C_3  and  C_4 
REMARK    3  A    between atoms: C_4  and  N_5 
REMARK       I    between atoms: N_5  and  C_6 
REMARK    4  A    between atoms: C_6  and  C_7 
REMARK    5  A    between atoms: C_14  and  S_15 
REMARK    6  A    between atoms: S_15  and  N_16 
REMARK    7  A    between atoms: N_16  and  C_17 
REMARK    8  A    between atoms: C_20  and  O_21 
REMARK    9  A    between atoms: O_21  and  C_22 
ROOT
HETATM    1  C   UNL     1       7.049  24.993  55.483  1.00  0.00     0.098 A 
HETATM    2  C   UNL     1       6.723  25.078  54.031  1.00  0.00     0.201 A 
HETATM    3  O   UNL     1       7.200  24.291  53.215  1.00  0.00    -0.286 OA
HETATM    4  C   UNL     1       5.801  26.155  53.581  1.00  0.00     0.043 A 
HETATM    5  C   UNL     1       5.271  27.039  54.540  1.00  0.00     0.046 A 
HETATM    6  N   UNL     1       5.640  26.909  55.883  1.00  0.00    -0.364 N 
HETATM    7  C   UNL     1       5.482  26.288  52.226  1.00  0.00     0.043 A 
HETATM    8  C   UNL     1       4.665  27.348  51.825  1.00  0.00     0.081 A 
HETATM    9  C   UNL     1       4.129  28.235  52.767  1.00  0.00     0.027 A 
HETATM   10  C   UNL     1       4.438  28.079  54.121  1.00  0.00     0.032 A 
HETATM   11  C   UNL     1       6.475  25.902  56.290  1.00  0.00     0.109 A 
HETATM   12  H   UNL     1       5.152  27.449  56.591  1.00  0.00     0.165 HD
ENDROOT
BRANCH   8  13
HETATM   13  S   UNL     1       4.272  27.557  50.100  1.00  0.00     0.263 S 
HETATM   14  O   UNL     1       5.081  28.642  49.591  1.00  0.00    -0.200 OA
HETATM   15  O   UNL     1       4.306  26.244  49.491  1.00  0.00    -0.200 OA
BRANCH  13  16
HETATM   16  N   UNL     1       2.645  28.009  50.133  1.00  0.00    -0.281 N 
HETATM   17  H   UNL     1       2.397  28.516  50.981  1.00  0.00     0.179 HD
BRANCH  16  18
HETATM   18  C   UNL     1       1.993  28.365  48.922  1.00  0.00     0.042 A 
HETATM   19  C   UNL     1       1.900  29.698  48.535  1.00  0.00     0.033 A 
HETATM   20  C   UNL     1       1.210  30.036  47.369  1.00  0.00     0.039 A 
HETATM   21  C   UNL     1       0.600  29.049  46.590  1.00  0.00     0.068 A 
HETATM   22  C   UNL     1       0.697  27.713  46.982  1.00  0.00     0.039 A 
HETATM   23  C   UNL     1       1.396  27.371  48.146  1.00  0.00     0.033 A 
BRANCH  21  24
HETATM   24  O   UNL     1      -0.044  29.520  45.482  1.00  0.00    -0.352 OA
BRANCH  24  25
HETATM   25  C   UNL     1      -0.969  28.643  44.841  1.00  0.00     0.171 C 
HETATM   26  C   UNL     1      -2.004  29.495  44.129  1.00  0.00     0.034 C 
ENDBRANCH  24  25
ENDBRANCH  21  24
ENDBRANCH  16  18
ENDBRANCH  13  16
ENDBRANCH   8  13
BRANCH   1  27
HETATM   27  C   UNL     1       7.961  23.982  56.091  1.00  0.00     0.257 C 
HETATM   28  N   UNL     1       7.690  22.679  55.763  1.00  0.00    -0.357 N 
HETATM   29  H   UNL     1       6.868  22.485  55.188  1.00  0.00     0.162 HD
HETATM   30  O   UNL     1       8.889  24.311  56.825  1.00  0.00    -0.267 OA
BRANCH  28  31
HETATM   31  C   UNL     1       8.436  21.563  56.302  1.00  0.00     0.123 C 
BRANCH  31  32
HETATM   32  C   UNL     1       8.317  20.305  55.441  1.00  0.00     0.019 C 
BRANCH  32  33
HETATM   33  C   UNL     1       7.740  20.596  54.054  1.00  0.00    -0.003 C 
HETATM   34  C   UNL     1       8.803  20.473  52.975  1.00  0.00     0.005 C 
ENDBRANCH  32  33
ENDBRANCH  31  32
ENDBRANCH  28  31
ENDBRANCH   1  27
TORSDOF 9
ENDMDL
