MODEL 1
REMARK VINA RESULT:      -8.7      0.000      0.000
REMARK  6 active torsions:
REMARK  status: ('A' for Active; 'I' for Inactive)
REMARK    1  A    between atoms: C_5  and  N_6 
REMARK    2  A    between atoms: N_6  and  C_7 
REMARK    3  A    between atoms: C_7  and  C_8 
REMARK    4  A    between atoms: N_10  and  C_12 
REMARK    5  A    between atoms: C_12  and  C_13 
REMARK    6  A    between atoms: C_14  and  O_15 
ROOT
HETATM    1  C   UNL     1       6.547  28.354  56.558  1.00  0.00     0.026 C 
HETATM    2  C   UNL     1       7.018  26.941  56.887  1.00  0.00     0.241 C 
HETATM    3  N   UNL     1       7.376  26.364  55.540  1.00  0.00    -0.067 N 
HETATM    4  H   UNL     1       8.257  25.824  55.624  1.00  0.00     0.280 HD
HETATM    5  C   UNL     1       7.617  27.517  54.586  1.00  0.00     0.235 C 
HETATM    6  C   UNL     1       7.533  28.756  55.465  1.00  0.00     0.035 C 
ENDROOT
BRANCH   1   7
HETATM    7  C   UNL     1       6.535  29.319  57.747  1.00  0.00     0.100 C 
BRANCH   7   8
HETATM    8  N   UNL     1       7.680  29.068  58.613  1.00  0.00    -0.279 NA
HETATM    9  H   UNL     1       7.548  28.278  59.253  1.00  0.00     0.129 HD
BRANCH   8  10
HETATM   10  C   UNL     1       8.320  30.097  59.316  1.00  0.00     0.080 A 
HETATM   11  N   UNL     1       8.022  30.418  60.587  1.00  0.00    -0.351 N 
HETATM   12  C   UNL     1       8.639  31.400  61.275  1.00  0.00     0.006 A 
HETATM   13  H   UNL     1       7.307  29.884  61.067  1.00  0.00     0.167 HD
HETATM   14  C   UNL     1       8.266  31.631  62.705  1.00  0.00     0.068 C 
HETATM   15  C   UNL     1       9.620  32.163  60.645  1.00  0.00     0.024 A 
HETATM   16  C   UNL     1       9.944  31.895  59.322  1.00  0.00     0.005 A 
HETATM   17  C   UNL     1       9.294  30.860  58.658  1.00  0.00     0.042 A 
ENDBRANCH   8  10
ENDBRANCH   7   8
ENDBRANCH   1   7
BRANCH   3  18
HETATM   18  C   UNL     1       6.400  25.333  55.019  1.00  0.00     0.276 C 
BRANCH  18  19
HETATM   19  C   UNL     1       7.054  24.041  54.618  1.00  0.00     0.002 A 
HETATM   20  C   UNL     1       7.513  23.136  55.586  1.00  0.00     0.091 A 
HETATM   21  C   UNL     1       8.086  21.916  55.216  1.00  0.00     0.044 A 
HETATM   22 BR   UNL     1       8.701  20.700  56.528  1.00  0.00    -0.048 Br
HETATM   23  C   UNL     1       8.211  21.588  53.867  1.00  0.00     0.022 A 
HETATM   24  C   UNL     1       7.761  22.479  52.893  1.00  0.00     0.002 A 
HETATM   25  C   UNL     1       7.181  23.695  53.265  1.00  0.00     0.012 A 
BRANCH  20  26
HETATM   26  O   UNL     1       7.398  23.503  56.906  1.00  0.00    -0.359 OA
HETATM   27  H   UNL     1       6.765  22.868  57.309  1.00  0.00     0.218 HD
ENDBRANCH  20  26
ENDBRANCH  18  19
ENDBRANCH   3  18
TORSDOF 6
ENDMDL
MODEL 2
REMARK VINA RESULT:      -8.6      3.476      8.455
REMARK  6 active torsions:
REMARK  status: ('A' for Active; 'I' for Inactive)
REMARK    1  A    between atoms: C_5  and  N_6 
REMARK    2  A    between atoms: N_6  and  C_7 
REMARK    3  A    between atoms: C_7  and  C_8 
REMARK    4  A    between atoms: N_10  and  C_12 
REMARK    5  A    between atoms: C_12  and  C_13 
REMARK    6  A    between atoms: C_14  and  O_15 
ROOT
HETATM    1  C   UNL     1       5.881  25.777  54.733  1.00  0.00     0.026 C 
HETATM    2  C   UNL     1       7.243  26.440  54.911  1.00  0.00     0.241 C 
HETATM    3  N   UNL     1       7.124  27.144  56.240  1.00  0.00    -0.067 N 
HETATM    4  H   UNL     1       8.003  27.013  56.774  1.00  0.00     0.280 HD
HETATM    5  C   UNL     1       5.998  26.492  57.016  1.00  0.00     0.235 C 
HETATM    6  C   UNL     1       5.583  25.308  56.154  1.00  0.00     0.035 C 
ENDROOT
BRANCH   1   7
HETATM    7  C   UNL     1       5.847  24.645  53.703  1.00  0.00     0.100 C 
BRANCH   7   8
HETATM    8  N   UNL     1       7.194  24.141  53.461  1.00  0.00    -0.279 NA
HETATM    9  H   UNL     1       7.528  24.303  52.505  1.00  0.00     0.129 HD
BRANCH   8  10
HETATM   10  C   UNL     1       7.587  22.855  53.851  1.00  0.00     0.080 A 
HETATM   11  N   UNL     1       7.806  22.508  55.132  1.00  0.00    -0.351 N 
HETATM   12  C   UNL     1       8.174  21.270  55.518  1.00  0.00     0.006 A 
HETATM   13  H   UNL     1       7.669  23.206  55.854  1.00  0.00     0.167 HD
HETATM   14  C   UNL     1       8.334  20.980  56.977  1.00  0.00     0.068 C 
HETATM   15  C   UNL     1       8.382  20.286  54.553  1.00  0.00     0.024 A 
HETATM   16  C   UNL     1       8.201  20.600  53.213  1.00  0.00     0.005 A 
HETATM   17  C   UNL     1       7.802  21.886  52.863  1.00  0.00     0.042 A 
ENDBRANCH   8  10
ENDBRANCH   7   8
ENDBRANCH   1   7
BRANCH   3  18
HETATM   18  C   UNL     1       7.011  28.648  56.145  1.00  0.00     0.276 C 
BRANCH  18  19
HETATM   19  C   UNL     1       8.217  29.372  56.675  1.00  0.00     0.002 A 
HETATM   20  C   UNL     1       8.163  30.063  57.894  1.00  0.00     0.091 A 
HETATM   21  C   UNL     1       9.295  30.704  58.408  1.00  0.00     0.044 A 
HETATM   22 BR   UNL     1       9.214  31.632  60.054  1.00  0.00    -0.048 Br
HETATM   23  C   UNL     1      10.496  30.664  57.703  1.00  0.00     0.022 A 
HETATM   24  C   UNL     1      10.564  29.982  56.489  1.00  0.00     0.002 A 
HETATM   25  C   UNL     1       9.434  29.335  55.979  1.00  0.00     0.012 A 
BRANCH  20  26
HETATM   26  O   UNL     1       6.955  30.105  58.550  1.00  0.00    -0.359 OA
HETATM   27  H   UNL     1       6.351  29.519  58.041  1.00  0.00     0.218 HD
ENDBRANCH  20  26
ENDBRANCH  18  19
ENDBRANCH   3  18
TORSDOF 6
ENDMDL
MODEL 3
REMARK VINA RESULT:      -8.5      1.452      2.216
REMARK  6 active torsions:
REMARK  status: ('A' for Active; 'I' for Inactive)
REMARK    1  A    between atoms: C_5  and  N_6 
REMARK    2  A    between atoms: N_6  and  C_7 
REMARK    3  A    between atoms: C_7  and  C_8 
REMARK    4  A    between atoms: N_10  and  C_12 
REMARK    5  A    between atoms: C_12  and  C_13 
REMARK    6  A    between atoms: C_14  and  O_15 
ROOT
HETATM    1  C   UNL     1       7.705  28.695  58.143  1.00  0.00     0.026 C 
HETATM    2  C   UNL     1       8.523  27.855  57.167  1.00  0.00     0.241 C 
HETATM    3  N   UNL     1       7.514  26.885  56.603  1.00  0.00    -0.067 N 
HETATM    4  H   UNL     1       7.671  26.787  55.583  1.00  0.00     0.280 HD
HETATM    5  C   UNL     1       6.133  27.468  56.817  1.00  0.00     0.235 C 
HETATM    6  C   UNL     1       6.394  28.858  57.380  1.00  0.00     0.035 C 
ENDROOT
BRANCH   1   7
HETATM    7  C   UNL     1       8.346  30.028  58.536  1.00  0.00     0.100 C 
BRANCH   7   8
HETATM    8  N   UNL     1       8.648  30.044  59.962  1.00  0.00    -0.279 NA
HETATM    9  H   UNL     1       8.576  29.124  60.408  1.00  0.00     0.129 HD
BRANCH   8  10
HETATM   10  C   UNL     1       8.095  30.995  60.828  1.00  0.00     0.080 A 
HETATM   11  N   UNL     1       6.923  31.612  60.594  1.00  0.00    -0.351 N 
HETATM   12  C   UNL     1       6.377  32.521  61.427  1.00  0.00     0.006 A 
HETATM   13  H   UNL     1       6.407  31.371  59.755  1.00  0.00     0.167 HD
HETATM   14  C   UNL     1       5.039  33.101  61.094  1.00  0.00     0.068 C 
HETATM   15  C   UNL     1       7.062  32.885  62.584  1.00  0.00     0.024 A 
HETATM   16  C   UNL     1       8.291  32.303  62.858  1.00  0.00     0.005 A 
HETATM   17  C   UNL     1       8.807  31.356  61.979  1.00  0.00     0.042 A 
ENDBRANCH   8  10
ENDBRANCH   7   8
ENDBRANCH   1   7
BRANCH   3  18
HETATM   18  C   UNL     1       7.663  25.465  57.102  1.00  0.00     0.276 C 
BRANCH  18  19
HETATM   19  C   UNL     1       7.790  24.455  55.998  1.00  0.00     0.002 A 
HETATM   20  C   UNL     1       8.047  23.106  56.282  1.00  0.00     0.091 A 
HETATM   21  C   UNL     1       8.126  22.157  55.258  1.00  0.00     0.044 A 
HETATM   22 BR   UNL     1       8.470  20.339  55.650  1.00  0.00    -0.048 Br
HETATM   23  C   UNL     1       7.955  22.550  53.932  1.00  0.00     0.022 A 
HETATM   24  C   UNL     1       7.701  23.889  53.634  1.00  0.00     0.002 A 
HETATM   25  C   UNL     1       7.613  24.835  54.659  1.00  0.00     0.012 A 
BRANCH  20  26
HETATM   26  O   UNL     1       8.237  22.758  57.598  1.00  0.00    -0.359 OA
HETATM   27  H   UNL     1       9.102  22.291  57.632  1.00  0.00     0.218 HD
ENDBRANCH  20  26
ENDBRANCH  18  19
ENDBRANCH   3  18
TORSDOF 6
ENDMDL
MODEL 4
REMARK VINA RESULT:      -8.5      3.542      8.517
REMARK  6 active torsions:
REMARK  status: ('A' for Active; 'I' for Inactive)
REMARK    1  A    between atoms: C_5  and  N_6 
REMARK    2  A    between atoms: N_6  and  C_7 
REMARK    3  A    between atoms: C_7  and  C_8 
REMARK    4  A    between atoms: N_10  and  C_12 
REMARK    5  A    between atoms: C_12  and  C_13 
REMARK    6  A    between atoms: C_14  and  O_15 
ROOT
HETATM    1  C   UNL     1       7.928  25.694  56.878  1.00  0.00     0.026 C 
HETATM    2  C   UNL     1       7.857  26.901  57.807  1.00  0.00     0.241 C 
HETATM    3  N   UNL     1       6.607  27.619  57.362  1.00  0.00    -0.067 N 
HETATM    4  H   UNL     1       6.085  27.944  58.197  1.00  0.00     0.280 HD
HETATM    5  C   UNL     1       5.737  26.626  56.617  1.00  0.00     0.235 C 
HETATM    6  C   UNL     1       6.458  25.296  56.784  1.00  0.00     0.035 C 
ENDROOT
BRANCH   1   7
HETATM    7  C   UNL     1       8.832  24.560  57.368  1.00  0.00     0.100 C 
BRANCH   7   8
HETATM    8  N   UNL     1       8.079  23.314  57.451  1.00  0.00    -0.279 NA
HETATM    9  H   UNL     1       8.124  22.867  58.373  1.00  0.00     0.129 HD
BRANCH   8  10
HETATM   10  C   UNL     1       8.185  22.315  56.475  1.00  0.00     0.080 A 
HETATM   11  N   UNL     1       7.976  22.540  55.166  1.00  0.00    -0.351 N 
HETATM   12  C   UNL     1       8.086  21.588  54.217  1.00  0.00     0.006 A 
HETATM   13  H   UNL     1       7.742  23.479  54.866  1.00  0.00     0.167 HD
HETATM   14  C   UNL     1       7.888  21.964  52.783  1.00  0.00     0.068 C 
HETATM   15  C   UNL     1       8.396  20.282  54.593  1.00  0.00     0.024 A 
HETATM   16  C   UNL     1       8.590  19.989  55.935  1.00  0.00     0.005 A 
HETATM   17  C   UNL     1       8.485  21.007  56.876  1.00  0.00     0.042 A 
ENDBRANCH   8  10
ENDBRANCH   7   8
ENDBRANCH   1   7
BRANCH   3  18
HETATM   18  C   UNL     1       6.857  28.902  56.603  1.00  0.00     0.276 C 
BRANCH  18  19
HETATM   19  C   UNL     1       8.128  29.595  57.004  1.00  0.00     0.002 A 
HETATM   20  C   UNL     1       8.197  30.345  58.187  1.00  0.00     0.091 A 
HETATM   21  C   UNL     1       9.390  30.958  58.582  1.00  0.00     0.044 A 
HETATM   22 BR   UNL     1       9.474  31.967  60.180  1.00  0.00    -0.048 Br
HETATM   23  C   UNL     1      10.531  30.830  57.793  1.00  0.00     0.022 A 
HETATM   24  C   UNL     1      10.478  30.088  56.613  1.00  0.00     0.002 A 
HETATM   25  C   UNL     1       9.287  29.469  56.223  1.00  0.00     0.012 A 
BRANCH  20  26
HETATM   26  O   UNL     1       7.046  30.473  58.927  1.00  0.00    -0.359 OA
HETATM   27  H   UNL     1       6.624  31.311  58.631  1.00  0.00     0.218 HD
ENDBRANCH  20  26
ENDBRANCH  18  19
ENDBRANCH   3  18
TORSDOF 6
ENDMDL
MODEL 5
REMARK VINA RESULT:      -8.4      1.904      2.861
REMARK  6 active torsions:
REMARK  status: ('A' for Active; 'I' for Inactive)
REMARK    1  A    between atoms: C_5  and  N_6 
REMARK    2  A    between atoms: N_6  and  C_7 
REMARK    3  A    between atoms: C_7  and  C_8 
REMARK    4  A    between atoms: N_10  and  C_12 
REMARK    5  A    between atoms: C_12  and  C_13 
REMARK    6  A    between atoms: C_14  and  O_15 
ROOT
HETATM    1  C   UNL     1       6.426  27.390  56.856  1.00  0.00     0.026 C 
HETATM    2  C   UNL     1       7.273  26.846  55.710  1.00  0.00     0.241 C 
HETATM    3  N   UNL     1       7.110  25.351  55.829  1.00  0.00    -0.067 N 
HETATM    4  H   UNL     1       6.992  24.945  54.881  1.00  0.00     0.280 HD
HETATM    5  C   UNL     1       5.847  25.078  56.620  1.00  0.00     0.235 C 
HETATM    6  C   UNL     1       5.222  26.452  56.817  1.00  0.00     0.035 C 
ENDROOT
BRANCH   1   7
HETATM    7  C   UNL     1       6.045  28.868  56.726  1.00  0.00     0.100 C 
BRANCH   7   8
HETATM    8  N   UNL     1       6.307  29.569  57.977  1.00  0.00    -0.279 NA
HETATM    9  H   UNL     1       5.552  30.202  58.260  1.00  0.00     0.129 HD
BRANCH   8  10
HETATM   10  C   UNL     1       7.530  30.204  58.230  1.00  0.00     0.080 A 
HETATM   11  N   UNL     1       8.695  29.800  57.694  1.00  0.00    -0.351 N 
HETATM   12  C   UNL     1       9.875  30.411  57.923  1.00  0.00     0.006 A 
HETATM   13  H   UNL     1       8.690  29.004  57.067  1.00  0.00     0.167 HD
HETATM   14  C   UNL     1      11.100  29.911  57.227  1.00  0.00     0.068 C 
HETATM   15  C   UNL     1       9.922  31.503  58.789  1.00  0.00     0.024 A 
HETATM   16  C   UNL     1       8.753  31.941  59.394  1.00  0.00     0.005 A 
HETATM   17  C   UNL     1       7.556  31.291  59.113  1.00  0.00     0.042 A 
ENDBRANCH   8  10
ENDBRANCH   7   8
ENDBRANCH   1   7
BRANCH   3  18
HETATM   18  C   UNL     1       8.329  24.626  56.353  1.00  0.00     0.276 C 
BRANCH  18  19
HETATM   19  C   UNL     1       8.296  23.145  56.106  1.00  0.00     0.002 A 
HETATM   20  C   UNL     1       8.260  22.633  54.801  1.00  0.00     0.091 A 
HETATM   21  C   UNL     1       8.269  21.255  54.567  1.00  0.00     0.044 A 
HETATM   22 BR   UNL     1       8.222  20.574  52.803  1.00  0.00    -0.048 Br
HETATM   23  C   UNL     1       8.308  20.369  55.642  1.00  0.00     0.022 A 
HETATM   24  C   UNL     1       8.342  20.862  56.946  1.00  0.00     0.002 A 
HETATM   25  C   UNL     1       8.342  22.241  57.178  1.00  0.00     0.012 A 
BRANCH  20  26
HETATM   26  O   UNL     1       8.194  23.535  53.765  1.00  0.00    -0.359 OA
HETATM   27  H   UNL     1       8.383  24.416  54.160  1.00  0.00     0.218 HD
ENDBRANCH  20  26
ENDBRANCH  18  19
ENDBRANCH   3  18
TORSDOF 6
ENDMDL
MODEL 6
REMARK VINA RESULT:      -8.2      3.644      9.036
REMARK  6 active torsions:
REMARK  status: ('A' for Active; 'I' for Inactive)
REMARK    1  A    between atoms: C_5  and  N_6 
REMARK    2  A    between atoms: N_6  and  C_7 
REMARK    3  A    between atoms: C_7  and  C_8 
REMARK    4  A    between atoms: N_10  and  C_12 
REMARK    5  A    between atoms: C_12  and  C_13 
REMARK    6  A    between atoms: C_14  and  O_15 
ROOT
HETATM    1  C   UNL     1       8.241  27.273  57.003  1.00  0.00     0.026 C 
HETATM    2  C   UNL     1       7.631  28.201  58.048  1.00  0.00     0.241 C 
HETATM    3  N   UNL     1       7.847  29.577  57.470  1.00  0.00    -0.067 N 
HETATM    4  H   UNL     1       6.994  30.147  57.620  1.00  0.00     0.280 HD
HETATM    5  C   UNL     1       8.061  29.430  55.977  1.00  0.00     0.235 C 
HETATM    6  C   UNL     1       7.812  27.953  55.705  1.00  0.00     0.035 C 
ENDROOT
BRANCH   1   7
HETATM    7  C   UNL     1       7.788  25.813  57.098  1.00  0.00     0.100 C 
BRANCH   7   8
HETATM    8  N   UNL     1       7.018  25.444  55.917  1.00  0.00    -0.279 NA
HETATM    9  H   UNL     1       6.005  25.433  56.073  1.00  0.00     0.129 HD
BRANCH   8  10
HETATM   10  C   UNL     1       7.352  24.336  55.128  1.00  0.00     0.080 A 
HETATM   11  N   UNL     1       7.450  23.087  55.617  1.00  0.00    -0.351 N 
HETATM   12  C   UNL     1       7.760  22.011  54.864  1.00  0.00     0.006 A 
HETATM   13  H   UNL     1       7.262  22.935  56.601  1.00  0.00     0.167 HD
HETATM   14  C   UNL     1       7.784  20.659  55.503  1.00  0.00     0.068 C 
HETATM   15  C   UNL     1       8.035  22.183  53.509  1.00  0.00     0.024 A 
HETATM   16  C   UNL     1       7.979  23.457  52.960  1.00  0.00     0.005 A 
HETATM   17  C   UNL     1       7.637  24.533  53.771  1.00  0.00     0.042 A 
ENDBRANCH   8  10
ENDBRANCH   7   8
ENDBRANCH   1   7
BRANCH   3  18
HETATM   18  C   UNL     1       8.917  30.388  58.164  1.00  0.00     0.276 C 
BRANCH  18  19
HETATM   19  C   UNL     1       8.489  30.922  59.502  1.00  0.00     0.002 A 
HETATM   20  C   UNL     1       7.367  31.754  59.620  1.00  0.00     0.091 A 
HETATM   21  C   UNL     1       6.943  32.219  60.868  1.00  0.00     0.044 A 
HETATM   22 BR   UNL     1       5.427  33.339  61.018  1.00  0.00    -0.048 Br
HETATM   23  C   UNL     1       7.644  31.859  62.018  1.00  0.00     0.022 A 
HETATM   24  C   UNL     1       8.763  31.033  61.916  1.00  0.00     0.002 A 
HETATM   25  C   UNL     1       9.181  30.562  60.668  1.00  0.00     0.012 A 
BRANCH  20  26
HETATM   26  O   UNL     1       6.715  32.111  58.463  1.00  0.00    -0.359 OA
HETATM   27  H   UNL     1       7.294  31.818  57.724  1.00  0.00     0.218 HD
ENDBRANCH  20  26
ENDBRANCH  18  19
ENDBRANCH   3  18
TORSDOF 6
ENDMDL
MODEL 7
REMARK VINA RESULT:      -8.0      3.617      9.177
REMARK  6 active torsions:
REMARK  status: ('A' for Active; 'I' for Inactive)
REMARK    1  A    between atoms: C_5  and  N_6 
REMARK    2  A    between atoms: N_6  and  C_7 
REMARK    3  A    between atoms: C_7  and  C_8 
REMARK    4  A    between atoms: N_10  and  C_12 
REMARK    5  A    between atoms: C_12  and  C_13 
REMARK    6  A    between atoms: C_14  and  O_15 
ROOT
HETATM    1  C   UNL     1       7.721  26.751  56.344  1.00  0.00     0.026 C 
HETATM    2  C   UNL     1       6.965  27.439  57.475  1.00  0.00     0.241 C 
HETATM    3  N   UNL     1       7.272  28.902  57.268  1.00  0.00    -0.067 N 
HETATM    4  H   UNL     1       6.408  29.455  57.419  1.00  0.00     0.280 HD
HETATM    5  C   UNL     1       7.707  29.090  55.829  1.00  0.00     0.235 C 
HETATM    6  C   UNL     1       7.496  27.724  55.190  1.00  0.00     0.035 C 
ENDROOT
BRANCH   1   7
HETATM    7  C   UNL     1       7.253  25.326  56.033  1.00  0.00     0.100 C 
BRANCH   7   8
HETATM    8  N   UNL     1       8.325  24.569  55.400  1.00  0.00    -0.279 NA
HETATM    9  H   UNL     1       8.569  24.905  54.462  1.00  0.00     0.129 HD
BRANCH   8  10
HETATM   10  C   UNL     1       8.333  23.169  55.378  1.00  0.00     0.080 A 
HETATM   11  N   UNL     1       8.256  22.449  54.245  1.00  0.00    -0.351 N 
HETATM   12  C   UNL     1       8.273  21.101  54.212  1.00  0.00     0.006 A 
HETATM   13  H   UNL     1       8.200  22.941  53.360  1.00  0.00     0.167 HD
HETATM   14  C   UNL     1       8.240  20.404  52.889  1.00  0.00     0.068 C 
HETATM   15  C   UNL     1       8.339  20.390  55.409  1.00  0.00     0.024 A 
HETATM   16  C   UNL     1       8.388  21.083  56.610  1.00  0.00     0.005 A 
HETATM   17  C   UNL     1       8.387  22.474  56.593  1.00  0.00     0.042 A 
ENDBRANCH   8  10
ENDBRANCH   7   8
ENDBRANCH   1   7
BRANCH   3  18
HETATM   18  C   UNL     1       8.229  29.492  58.279  1.00  0.00     0.276 C 
BRANCH  18  19
HETATM   19  C   UNL     1       7.626  30.601  59.094  1.00  0.00     0.002 A 
HETATM   20  C   UNL     1       8.052  30.841  60.408  1.00  0.00     0.091 A 
HETATM   21  C   UNL     1       7.521  31.897  61.156  1.00  0.00     0.044 A 
HETATM   22 BR   UNL     1       8.102  32.215  62.927  1.00  0.00    -0.048 Br
HETATM   23  C   UNL     1       6.550  32.725  60.595  1.00  0.00     0.022 A 
HETATM   24  C   UNL     1       6.116  32.497  59.290  1.00  0.00     0.002 A 
HETATM   25  C   UNL     1       6.653  31.446  58.541  1.00  0.00     0.012 A 
BRANCH  20  26
HETATM   26  O   UNL     1       8.991  29.989  60.939  1.00  0.00    -0.359 OA
HETATM   27  H   UNL     1       8.905  29.146  60.440  1.00  0.00     0.218 HD
ENDBRANCH  20  26
ENDBRANCH  18  19
ENDBRANCH   3  18
TORSDOF 6
ENDMDL
MODEL 8
REMARK VINA RESULT:      -8.0      4.472      8.037
REMARK  6 active torsions:
REMARK  status: ('A' for Active; 'I' for Inactive)
REMARK    1  A    between atoms: C_5  and  N_6 
REMARK    2  A    between atoms: N_6  and  C_7 
REMARK    3  A    between atoms: C_7  and  C_8 
REMARK    4  A    between atoms: N_10  and  C_12 
REMARK    5  A    between atoms: C_12  and  C_13 
REMARK    6  A    between atoms: C_14  and  O_15 
ROOT
HETATM    1  C   UNL     1       4.878  27.736  53.335  1.00  0.00     0.026 C 
HETATM    2  C   UNL     1       5.110  26.231  53.260  1.00  0.00     0.241 C 
HETATM    3  N   UNL     1       5.918  25.935  54.500  1.00  0.00    -0.067 N 
HETATM    4  H   UNL     1       5.569  25.058  54.931  1.00  0.00     0.280 HD
HETATM    5  C   UNL     1       5.698  27.066  55.483  1.00  0.00     0.235 C 
HETATM    6  C   UNL     1       4.631  27.932  54.828  1.00  0.00     0.035 C 
ENDROOT
BRANCH   1   7
HETATM    7  C   UNL     1       3.732  28.253  52.460  1.00  0.00     0.100 C 
BRANCH   7   8
HETATM    8  N   UNL     1       4.233  28.642  51.148  1.00  0.00    -0.279 NA
HETATM    9  H   UNL     1       4.137  29.644  50.952  1.00  0.00     0.129 HD
BRANCH   8  10
HETATM   10  C   UNL     1       3.902  27.934  49.986  1.00  0.00     0.080 A 
HETATM   11  N   UNL     1       2.654  27.876  49.489  1.00  0.00    -0.351 N 
HETATM   12  C   UNL     1       2.327  27.206  48.365  1.00  0.00     0.006 A 
HETATM   13  H   UNL     1       1.916  28.377  49.970  1.00  0.00     0.167 HD
HETATM   14  C   UNL     1       0.916  27.258  47.872  1.00  0.00     0.068 C 
HETATM   15  C   UNL     1       3.313  26.496  47.682  1.00  0.00     0.024 A 
HETATM   16  C   UNL     1       4.612  26.496  48.170  1.00  0.00     0.005 A 
HETATM   17  C   UNL     1       4.906  27.217  49.323  1.00  0.00     0.042 A 
ENDBRANCH   8  10
ENDBRANCH   7   8
ENDBRANCH   1   7
BRANCH   3  18
HETATM   18  C   UNL     1       7.374  25.623  54.240  1.00  0.00     0.276 C 
BRANCH  18  19
HETATM   19  C   UNL     1       7.664  24.152  54.155  1.00  0.00     0.002 A 
HETATM   20  C   UNL     1       7.838  23.384  55.314  1.00  0.00     0.091 A 
HETATM   21  C   UNL     1       8.069  22.007  55.238  1.00  0.00     0.044 A 
HETATM   22 BR   UNL     1       8.301  20.978  56.809  1.00  0.00    -0.048 Br
HETATM   23  C   UNL     1       8.133  21.381  53.995  1.00  0.00     0.022 A 
HETATM   24  C   UNL     1       7.964  22.132  52.832  1.00  0.00     0.002 A 
HETATM   25  C   UNL     1       7.725  23.507  52.910  1.00  0.00     0.012 A 
BRANCH  20  26
HETATM   26  O   UNL     1       7.795  24.037  56.523  1.00  0.00    -0.359 OA
HETATM   27  H   UNL     1       8.725  24.084  56.839  1.00  0.00     0.218 HD
ENDBRANCH  20  26
ENDBRANCH  18  19
ENDBRANCH   3  18
TORSDOF 6
ENDMDL
MODEL 9
REMARK VINA RESULT:      -7.8      5.234      8.230
REMARK  6 active torsions:
REMARK  status: ('A' for Active; 'I' for Inactive)
REMARK    1  A    between atoms: C_5  and  N_6 
REMARK    2  A    between atoms: N_6  and  C_7 
REMARK    3  A    between atoms: C_7  and  C_8 
REMARK    4  A    between atoms: N_10  and  C_12 
REMARK    5  A    between atoms: C_12  and  C_13 
REMARK    6  A    between atoms: C_14  and  O_15 
ROOT
HETATM    1  C   UNL     1       6.164  25.854  55.568  1.00  0.00     0.026 C 
HETATM    2  C   UNL     1       5.781  25.515  54.131  1.00  0.00     0.241 C 
HETATM    3  N   UNL     1       6.175  26.749  53.359  1.00  0.00    -0.067 N 
HETATM    4  H   UNL     1       6.622  26.464  52.467  1.00  0.00     0.280 HD
HETATM    5  C   UNL     1       7.198  27.509  54.179  1.00  0.00     0.235 C 
HETATM    6  C   UNL     1       7.482  26.597  55.364  1.00  0.00     0.035 C 
ENDROOT
BRANCH   1   7
HETATM    7  C   UNL     1       6.289  24.647  56.501  1.00  0.00     0.100 C 
BRANCH   7   8
HETATM    8  N   UNL     1       7.644  24.112  56.457  1.00  0.00    -0.279 NA
HETATM    9  H   UNL     1       8.314  24.727  55.984  1.00  0.00     0.129 HD
BRANCH   8  10
HETATM   10  C   UNL     1       7.911  22.793  56.069  1.00  0.00     0.080 A 
HETATM   11  N   UNL     1       7.730  22.344  54.815  1.00  0.00    -0.351 N 
HETATM   12  C   UNL     1       7.993  21.079  54.428  1.00  0.00     0.006 A 
HETATM   13  H   UNL     1       7.394  22.991  54.111  1.00  0.00     0.167 HD
HETATM   14  C   UNL     1       7.810  20.704  52.992  1.00  0.00     0.068 C 
HETATM   15  C   UNL     1       8.446  20.157  55.371  1.00  0.00     0.024 A 
HETATM   16  C   UNL     1       8.620  20.561  56.687  1.00  0.00     0.005 A 
HETATM   17  C   UNL     1       8.353  21.880  57.035  1.00  0.00     0.042 A 
ENDBRANCH   8  10
ENDBRANCH   7   8
ENDBRANCH   1   7
BRANCH   3  18
HETATM   18  C   UNL     1       5.013  27.597  52.894  1.00  0.00     0.276 C 
BRANCH  18  19
HETATM   19  C   UNL     1       5.145  28.063  51.471  1.00  0.00     0.002 A 
HETATM   20  C   UNL     1       4.850  27.206  50.402  1.00  0.00     0.091 A 
HETATM   21  C   UNL     1       4.934  27.650  49.079  1.00  0.00     0.044 A 
HETATM   22 BR   UNL     1       4.532  26.487  47.643  1.00  0.00    -0.048 Br
HETATM   23  C   UNL     1       5.322  28.961  48.810  1.00  0.00     0.022 A 
HETATM   24  C   UNL     1       5.621  29.825  49.863  1.00  0.00     0.002 A 
HETATM   25  C   UNL     1       5.528  29.382  51.186  1.00  0.00     0.012 A 
BRANCH  20  26
HETATM   26  O   UNL     1       4.496  25.911  50.702  1.00  0.00    -0.359 OA
HETATM   27  H   UNL     1       4.712  25.786  51.654  1.00  0.00     0.218 HD
ENDBRANCH  20  26
ENDBRANCH  18  19
ENDBRANCH   3  18
TORSDOF 6
ENDMDL
MODEL 10
REMARK VINA RESULT:      -7.8      4.370      7.557
REMARK  6 active torsions:
REMARK  status: ('A' for Active; 'I' for Inactive)
REMARK    1  A    between atoms: C_5  and  N_6 
REMARK    2  A    between atoms: N_6  and  C_7 
REMARK    3  A    between atoms: C_7  and  C_8 
REMARK    4  A    between atoms: N_10  and  C_12 
REMARK    5  A    between atoms: C_12  and  C_13 
REMARK    6  A    between atoms: C_14  and  O_15 
ROOT
HETATM    1  C   UNL     1       7.739  26.430  56.678  1.00  0.00     0.026 C 
HETATM    2  C   UNL     1       7.626  26.403  55.157  1.00  0.00     0.241 C 
HETATM    3  N   UNL     1       7.239  27.819  54.806  1.00  0.00    -0.067 N 
HETATM    4  H   UNL     1       7.772  28.119  53.968  1.00  0.00     0.280 HD
HETATM    5  C   UNL     1       7.634  28.714  55.963  1.00  0.00     0.235 C 
HETATM    6  C   UNL     1       8.387  27.792  56.911  1.00  0.00     0.035 C 
ENDROOT
BRANCH   1   7
HETATM    7  C   UNL     1       8.534  25.270  57.283  1.00  0.00     0.100 C 
BRANCH   7   8
HETATM    8  N   UNL     1       7.706  24.073  57.356  1.00  0.00    -0.279 NA
HETATM    9  H   UNL     1       7.530  23.752  58.314  1.00  0.00     0.129 HD
BRANCH   8  10
HETATM   10  C   UNL     1       7.952  22.949  56.556  1.00  0.00     0.080 A 
HETATM   11  N   UNL     1       7.774  22.941  55.223  1.00  0.00    -0.351 N 
HETATM   12  C   UNL     1       8.018  21.868  54.443  1.00  0.00     0.006 A 
HETATM   13  H   UNL     1       7.459  23.791  54.770  1.00  0.00     0.167 HD
HETATM   14  C   UNL     1       7.841  21.989  52.963  1.00  0.00     0.068 C 
HETATM   15  C   UNL     1       8.443  20.678  55.032  1.00  0.00     0.024 A 
HETATM   16  C   UNL     1       8.611  20.623  56.408  1.00  0.00     0.005 A 
HETATM   17  C   UNL     1       8.366  21.761  57.170  1.00  0.00     0.042 A 
ENDBRANCH   8  10
ENDBRANCH   7   8
ENDBRANCH   1   7
BRANCH   3  18
HETATM   18  C   UNL     1       5.802  27.985  54.366  1.00  0.00     0.276 C 
BRANCH  18  19
HETATM   19  C   UNL     1       5.518  27.386  53.017  1.00  0.00     0.002 A 
HETATM   20  C   UNL     1       5.615  28.158  51.851  1.00  0.00     0.091 A 
HETATM   21  C   UNL     1       5.389  27.593  50.592  1.00  0.00     0.044 A 
HETATM   22 BR   UNL     1       5.524  28.643  49.025  1.00  0.00    -0.048 Br
HETATM   23  C   UNL     1       5.057  26.244  50.486  1.00  0.00     0.022 A 
HETATM   24  C   UNL     1       4.955  25.463  51.637  1.00  0.00     0.002 A 
HETATM   25  C   UNL     1       5.189  26.028  52.895  1.00  0.00     0.012 A 
BRANCH  20  26
HETATM   26  O   UNL     1       5.918  29.492  51.994  1.00  0.00    -0.359 OA
HETATM   27  H   UNL     1       5.260  29.979  51.449  1.00  0.00     0.218 HD
ENDBRANCH  20  26
ENDBRANCH  18  19
ENDBRANCH   3  18
TORSDOF 6
ENDMDL
