MODEL 1
REMARK VINA RESULT:     -10.2      0.000      0.000
REMARK  4 active torsions:
REMARK  status: ('A' for Active; 'I' for Inactive)
REMARK    1  A    between atoms: C_6  and  C_7 
REMARK    2  A    between atoms: C_7  and  C_8 
REMARK       I    between atoms: C_8  and  N_9 
REMARK    3  A    between atoms: N_9  and  C_10 
REMARK    4  A    between atoms: C_12  and  C_13 
ROOT
HETATM    1  C   UNL     1       7.392  26.344  57.459  1.00  0.00     0.226 C 
HETATM    2  N   UNL     1       7.429  27.666  57.041  1.00  0.00    -0.327 N 
HETATM    3  O   UNL     1       8.204  25.795  58.199  1.00  0.00    -0.273 OA
HETATM    4  H   UNL     1       6.732  27.937  56.362  1.00  0.00     0.169 HD
ENDROOT
BRANCH   1   5
HETATM    5  C   UNL     1       6.176  25.594  56.928  1.00  0.00     0.144 C 
BRANCH   5   6
HETATM    6  C   UNL     1       6.380  25.099  55.534  1.00  0.00    -0.021 A 
HETATM    7  C   UNL     1       6.983  23.864  55.124  1.00  0.00    -0.001 A 
HETATM    8  C   UNL     1       6.963  23.833  53.729  1.00  0.00     0.043 A 
HETATM    9  C   UNL     1       7.544  22.764  55.804  1.00  0.00     0.015 A 
HETATM   10  C   UNL     1       7.467  22.759  52.983  1.00  0.00     0.037 A 
HETATM   11  N   UNL     1       6.381  25.003  53.305  1.00  0.00    -0.365 N 
HETATM   12  C   UNL     1       8.023  21.674  53.676  1.00  0.00    -0.060 A 
HETATM   13  C   UNL     1       8.537  20.485  52.917  1.00  0.00     0.048 C 
HETATM   14  C   UNL     1       8.047  21.678  55.073  1.00  0.00     0.007 A 
HETATM   15  C   UNL     1       6.032  25.773  54.379  1.00  0.00     0.097 A 
HETATM   16  H   UNL     1       6.237  25.254  52.336  1.00  0.00     0.165 HD
ENDBRANCH   5   6
ENDBRANCH   1   5
BRANCH   2  17
HETATM   17  C   UNL     1       8.335  28.675  57.424  1.00  0.00     0.035 A 
HETATM   18  C   UNL     1       8.030  29.397  58.590  1.00  0.00     0.042 A 
HETATM   19  C   UNL     1       8.883  30.402  59.073  1.00  0.00    -0.021 A 
HETATM   20  C   UNL     1      10.052  30.687  58.359  1.00  0.00     0.012 A 
HETATM   21  C   UNL     1      10.361  29.979  57.196  1.00  0.00     0.003 A 
HETATM   22  C   UNL     1       9.507  28.975  56.732  1.00  0.00     0.029 A 
BRANCH  19  23
HETATM   23  C   UNL     1       8.570  31.139  60.288  1.00  0.00     0.010 A 
HETATM   24  C   UNL     1       7.777  32.294  60.492  1.00  0.00     0.152 A 
HETATM   25  N   UNL     1       7.748  32.685  61.769  1.00  0.00    -0.187 NA
HETATM   26  N   UNL     1       8.526  31.787  62.390  1.00  0.00    -0.289 N 
HETATM   27  H   UNL     1       8.664  31.882  63.390  1.00  0.00     0.188 HD
HETATM   28  C   UNL     1       9.043  30.843  61.550  1.00  0.00     0.123 A 
ENDBRANCH  19  23
ENDBRANCH   2  17
TORSDOF 4
ENDMDL
MODEL 2
REMARK VINA RESULT:      -9.6      4.177     10.088
REMARK  4 active torsions:
REMARK  status: ('A' for Active; 'I' for Inactive)
REMARK    1  A    between atoms: C_6  and  C_7 
REMARK    2  A    between atoms: C_7  and  C_8 
REMARK       I    between atoms: C_8  and  N_9 
REMARK    3  A    between atoms: N_9  and  C_10 
REMARK    4  A    between atoms: C_12  and  C_13 
ROOT
HETATM    1  C   UNL     1       9.004  31.847  60.358  1.00  0.00     0.226 C 
HETATM    2  N   UNL     1       8.921  30.529  59.934  1.00  0.00    -0.327 N 
HETATM    3  O   UNL     1       9.130  32.834  59.638  1.00  0.00    -0.273 OA
HETATM    4  H   UNL     1       8.907  29.828  60.662  1.00  0.00     0.169 HD
ENDROOT
BRANCH   1   5
HETATM    5  C   UNL     1       8.884  31.985  61.871  1.00  0.00     0.144 C 
BRANCH   5   6
HETATM    6  C   UNL     1       7.481  32.256  62.307  1.00  0.00    -0.021 A 
HETATM    7  C   UNL     1       7.046  32.830  63.547  1.00  0.00    -0.001 A 
HETATM    8  C   UNL     1       5.653  32.885  63.514  1.00  0.00     0.043 A 
HETATM    9  C   UNL     1       7.702  33.313  64.698  1.00  0.00     0.015 A 
HETATM   10  C   UNL     1       4.885  33.402  64.566  1.00  0.00     0.037 A 
HETATM   11  N   UNL     1       5.253  32.359  62.310  1.00  0.00    -0.365 N 
HETATM   12  C   UNL     1       5.555  33.876  65.704  1.00  0.00    -0.060 A 
HETATM   13  C   UNL     1       4.773  34.477  66.837  1.00  0.00     0.048 C 
HETATM   14  C   UNL     1       6.951  33.840  65.756  1.00  0.00     0.007 A 
HETATM   15  C   UNL     1       6.342  31.973  61.579  1.00  0.00     0.097 A 
HETATM   16  H   UNL     1       4.290  32.270  62.013  1.00  0.00     0.165 HD
ENDBRANCH   5   6
ENDBRANCH   1   5
BRANCH   2  17
HETATM   17  C   UNL     1       8.881  30.041  58.612  1.00  0.00     0.035 A 
HETATM   18  C   UNL     1       7.643  29.571  58.144  1.00  0.00     0.042 A 
HETATM   19  C   UNL     1       7.491  29.093  56.833  1.00  0.00    -0.021 A 
HETATM   20  C   UNL     1       8.608  29.079  55.992  1.00  0.00     0.012 A 
HETATM   21  C   UNL     1       9.844  29.538  56.450  1.00  0.00     0.003 A 
HETATM   22  C   UNL     1       9.979  30.020  57.755  1.00  0.00     0.029 A 
BRANCH  19  23
HETATM   23  C   UNL     1       6.203  28.619  56.347  1.00  0.00     0.010 A 
HETATM   24  C   UNL     1       5.455  28.984  55.201  1.00  0.00     0.152 A 
HETATM   25  N   UNL     1       4.294  28.328  55.108  1.00  0.00    -0.187 NA
HETATM   26  N   UNL     1       4.289  27.545  56.197  1.00  0.00    -0.289 N 
HETATM   27  H   UNL     1       3.487  26.944  56.351  1.00  0.00     0.188 HD
HETATM   28  C   UNL     1       5.405  27.682  56.971  1.00  0.00     0.123 A 
ENDBRANCH  19  23
ENDBRANCH   2  17
TORSDOF 4
ENDMDL
MODEL 3
REMARK VINA RESULT:      -9.5      1.415      1.934
REMARK  4 active torsions:
REMARK  status: ('A' for Active; 'I' for Inactive)
REMARK    1  A    between atoms: C_6  and  C_7 
REMARK    2  A    between atoms: C_7  and  C_8 
REMARK       I    between atoms: C_8  and  N_9 
REMARK    3  A    between atoms: N_9  and  C_10 
REMARK    4  A    between atoms: C_12  and  C_13 
ROOT
HETATM    1  C   UNL     1       7.407  27.562  55.617  1.00  0.00     0.226 C 
HETATM    2  N   UNL     1       7.617  28.011  56.912  1.00  0.00    -0.327 N 
HETATM    3  O   UNL     1       7.920  28.018  54.599  1.00  0.00    -0.273 OA
HETATM    4  H   UNL     1       7.049  27.582  57.629  1.00  0.00     0.169 HD
ENDROOT
BRANCH   1   5
HETATM    5  C   UNL     1       6.463  26.366  55.556  1.00  0.00     0.144 C 
BRANCH   5   6
HETATM    6  C   UNL     1       7.165  25.075  55.821  1.00  0.00    -0.021 A 
HETATM    7  C   UNL     1       7.426  24.014  54.891  1.00  0.00    -0.001 A 
HETATM    8  C   UNL     1       8.098  23.008  55.585  1.00  0.00     0.043 A 
HETATM    9  C   UNL     1       7.158  23.811  53.523  1.00  0.00     0.015 A 
HETATM   10  C   UNL     1       8.521  21.817  54.981  1.00  0.00     0.037 A 
HETATM   11  N   UNL     1       8.234  23.431  56.886  1.00  0.00    -0.365 N 
HETATM   12  C   UNL     1       8.244  21.631  53.618  1.00  0.00    -0.060 A 
HETATM   13  C   UNL     1       8.715  20.387  52.921  1.00  0.00     0.048 C 
HETATM   14  C   UNL     1       7.579  22.629  52.900  1.00  0.00     0.007 A 
HETATM   15  C   UNL     1       7.673  24.668  57.040  1.00  0.00     0.097 A 
HETATM   16  H   UNL     1       8.684  22.899  57.618  1.00  0.00     0.165 HD
ENDBRANCH   5   6
ENDBRANCH   1   5
BRANCH   2  17
HETATM   17  C   UNL     1       8.505  29.013  57.352  1.00  0.00     0.035 A 
HETATM   18  C   UNL     1       8.159  29.700  58.528  1.00  0.00     0.042 A 
HETATM   19  C   UNL     1       8.992  30.693  59.066  1.00  0.00    -0.021 A 
HETATM   20  C   UNL     1      10.182  31.003  58.399  1.00  0.00     0.012 A 
HETATM   21  C   UNL     1      10.531  30.330  57.227  1.00  0.00     0.003 A 
HETATM   22  C   UNL     1       9.697  29.337  56.707  1.00  0.00     0.029 A 
BRANCH  19  23
HETATM   23  C   UNL     1       8.637  31.394  60.291  1.00  0.00     0.010 A 
HETATM   24  C   UNL     1       9.343  31.544  61.510  1.00  0.00     0.152 A 
HETATM   25  N   UNL     1       8.666  32.253  62.418  1.00  0.00    -0.187 NA
HETATM   26  N   UNL     1       7.521  32.556  61.789  1.00  0.00    -0.289 N 
HETATM   27  H   UNL     1       6.827  33.099  62.292  1.00  0.00     0.188 HD
HETATM   28  C   UNL     1       7.453  32.066  60.517  1.00  0.00     0.123 A 
ENDBRANCH  19  23
ENDBRANCH   2  17
TORSDOF 4
ENDMDL
MODEL 4
REMARK VINA RESULT:      -9.5      1.920      9.237
REMARK  4 active torsions:
REMARK  status: ('A' for Active; 'I' for Inactive)
REMARK    1  A    between atoms: C_6  and  C_7 
REMARK    2  A    between atoms: C_7  and  C_8 
REMARK       I    between atoms: C_8  and  N_9 
REMARK    3  A    between atoms: N_9  and  C_10 
REMARK    4  A    between atoms: C_12  and  C_13 
ROOT
HETATM    1  C   UNL     1       7.908  28.107  57.314  1.00  0.00     0.226 C 
HETATM    2  N   UNL     1       7.572  28.071  55.970  1.00  0.00    -0.327 N 
HETATM    3  O   UNL     1       7.684  27.228  58.142  1.00  0.00    -0.273 OA
HETATM    4  H   UNL     1       7.751  28.915  55.444  1.00  0.00     0.169 HD
ENDROOT
BRANCH   1   5
HETATM    5  C   UNL     1       8.654  29.380  57.699  1.00  0.00     0.144 C 
BRANCH   5   6
HETATM    6  C   UNL     1       7.816  30.301  58.523  1.00  0.00    -0.021 A 
HETATM    7  C   UNL     1       8.091  30.786  59.845  1.00  0.00    -0.001 A 
HETATM    8  C   UNL     1       7.029  31.611  60.216  1.00  0.00     0.043 A 
HETATM    9  C   UNL     1       9.144  30.607  60.765  1.00  0.00     0.015 A 
HETATM   10  C   UNL     1       6.969  32.268  61.451  1.00  0.00     0.037 A 
HETATM   11  N   UNL     1       6.138  31.622  59.169  1.00  0.00    -0.365 N 
HETATM   12  C   UNL     1       8.025  32.076  62.355  1.00  0.00    -0.060 A 
HETATM   13  C   UNL     1       8.021  32.795  63.674  1.00  0.00     0.048 C 
HETATM   14  C   UNL     1       9.104  31.262  62.003  1.00  0.00     0.007 A 
HETATM   15  C   UNL     1       6.597  30.835  58.150  1.00  0.00     0.097 A 
HETATM   16  H   UNL     1       5.269  32.138  59.161  1.00  0.00     0.165 HD
ENDBRANCH   5   6
ENDBRANCH   1   5
BRANCH   2  17
HETATM   17  C   UNL     1       6.985  27.013  55.247  1.00  0.00     0.035 A 
HETATM   18  C   UNL     1       7.736  25.833  55.122  1.00  0.00     0.042 A 
HETATM   19  C   UNL     1       7.228  24.710  54.448  1.00  0.00    -0.021 A 
HETATM   20  C   UNL     1       5.951  24.790  53.884  1.00  0.00     0.012 A 
HETATM   21  C   UNL     1       5.200  25.961  53.998  1.00  0.00     0.003 A 
HETATM   22  C   UNL     1       5.713  27.067  54.679  1.00  0.00     0.029 A 
BRANCH  19  23
HETATM   23  C   UNL     1       8.004  23.485  54.332  1.00  0.00     0.010 A 
HETATM   24  C   UNL     1       8.096  22.543  53.278  1.00  0.00     0.152 A 
HETATM   25  N   UNL     1       8.913  21.524  53.561  1.00  0.00    -0.187 NA
HETATM   26  N   UNL     1       9.345  21.804  54.799  1.00  0.00    -0.289 N 
HETATM   27  H   UNL     1       9.988  21.156  55.240  1.00  0.00     0.188 HD
HETATM   28  C   UNL     1       8.831  22.963  55.306  1.00  0.00     0.123 A 
ENDBRANCH  19  23
ENDBRANCH   2  17
TORSDOF 4
ENDMDL
MODEL 5
REMARK VINA RESULT:      -9.1      2.508      9.084
REMARK  4 active torsions:
REMARK  status: ('A' for Active; 'I' for Inactive)
REMARK    1  A    between atoms: C_6  and  C_7 
REMARK    2  A    between atoms: C_7  and  C_8 
REMARK       I    between atoms: C_8  and  N_9 
REMARK    3  A    between atoms: N_9  and  C_10 
REMARK    4  A    between atoms: C_12  and  C_13 
ROOT
HETATM    1  C   UNL     1       7.574  28.081  54.772  1.00  0.00     0.226 C 
HETATM    2  N   UNL     1       7.141  26.777  54.956  1.00  0.00    -0.327 N 
HETATM    3  O   UNL     1       8.373  28.468  53.923  1.00  0.00    -0.273 OA
HETATM    4  H   UNL     1       6.547  26.615  55.757  1.00  0.00     0.169 HD
ENDROOT
BRANCH   1   5
HETATM    5  C   UNL     1       6.918  29.060  55.739  1.00  0.00     0.144 C 
BRANCH   5   6
HETATM    6  C   UNL     1       7.848  29.499  56.822  1.00  0.00    -0.021 A 
HETATM    7  C   UNL     1       7.568  30.396  57.905  1.00  0.00    -0.001 A 
HETATM    8  C   UNL     1       8.735  30.516  58.659  1.00  0.00     0.043 A 
HETATM    9  C   UNL     1       6.431  31.119  58.322  1.00  0.00     0.015 A 
HETATM   10  C   UNL     1       8.822  31.313  59.808  1.00  0.00     0.037 A 
HETATM   11  N   UNL     1       9.691  29.734  58.057  1.00  0.00    -0.365 N 
HETATM   12  C   UNL     1       7.681  32.027  60.207  1.00  0.00    -0.060 A 
HETATM   13  C   UNL     1       7.719  32.860  61.456  1.00  0.00     0.048 C 
HETATM   14  C   UNL     1       6.498  31.915  59.473  1.00  0.00     0.007 A 
HETATM   15  C   UNL     1       9.171  29.123  56.950  1.00  0.00     0.097 A 
HETATM   16  H   UNL     1      10.640  29.630  58.389  1.00  0.00     0.165 HD
ENDBRANCH   5   6
ENDBRANCH   1   5
BRANCH   2  17
HETATM   17  C   UNL     1       7.445  25.641  54.179  1.00  0.00     0.035 A 
HETATM   18  C   UNL     1       7.773  24.464  54.872  1.00  0.00     0.042 A 
HETATM   19  C   UNL     1       8.062  23.271  54.191  1.00  0.00    -0.021 A 
HETATM   20  C   UNL     1       8.031  23.274  52.793  1.00  0.00     0.012 A 
HETATM   21  C   UNL     1       7.713  24.441  52.095  1.00  0.00     0.003 A 
HETATM   22  C   UNL     1       7.418  25.619  52.786  1.00  0.00     0.029 A 
BRANCH  19  23
HETATM   23  C   UNL     1       8.388  22.050  54.913  1.00  0.00     0.010 A 
HETATM   24  C   UNL     1       8.499  21.797  56.302  1.00  0.00     0.152 A 
HETATM   25  N   UNL     1       8.840  20.534  56.574  1.00  0.00    -0.187 NA
HETATM   26  N   UNL     1       8.956  19.973  55.362  1.00  0.00    -0.289 N 
HETATM   27  H   UNL     1       9.219  18.994  55.309  1.00  0.00     0.188 HD
HETATM   28  C   UNL     1       8.698  20.835  54.336  1.00  0.00     0.123 A 
ENDBRANCH  19  23
ENDBRANCH   2  17
TORSDOF 4
ENDMDL
MODEL 6
REMARK VINA RESULT:      -9.1      1.951      2.680
REMARK  4 active torsions:
REMARK  status: ('A' for Active; 'I' for Inactive)
REMARK    1  A    between atoms: C_6  and  C_7 
REMARK    2  A    between atoms: C_7  and  C_8 
REMARK       I    between atoms: C_8  and  N_9 
REMARK    3  A    between atoms: N_9  and  C_10 
REMARK    4  A    between atoms: C_12  and  C_13 
ROOT
HETATM    1  C   UNL     1       7.481  28.734  57.776  1.00  0.00     0.226 C 
HETATM    2  N   UNL     1       7.130  29.941  58.359  1.00  0.00    -0.327 N 
HETATM    3  O   UNL     1       8.575  28.180  57.856  1.00  0.00    -0.273 OA
HETATM    4  H   UNL     1       6.215  30.300  58.123  1.00  0.00     0.169 HD
ENDROOT
BRANCH   1   5
HETATM    5  C   UNL     1       6.327  28.091  57.015  1.00  0.00     0.144 C 
BRANCH   5   6
HETATM    6  C   UNL     1       6.762  27.510  55.710  1.00  0.00    -0.021 A 
HETATM    7  C   UNL     1       6.976  26.126  55.397  1.00  0.00    -0.001 A 
HETATM    8  C   UNL     1       7.381  26.058  54.064  1.00  0.00     0.043 A 
HETATM    9  C   UNL     1       6.862  24.920  56.118  1.00  0.00     0.015 A 
HETATM   10  C   UNL     1       7.670  24.851  53.416  1.00  0.00     0.037 A 
HETATM   11  N   UNL     1       7.422  27.346  53.585  1.00  0.00    -0.365 N 
HETATM   12  C   UNL     1       7.553  23.661  54.149  1.00  0.00    -0.060 A 
HETATM   13  C   UNL     1       7.814  22.341  53.481  1.00  0.00     0.048 C 
HETATM   14  C   UNL     1       7.141  23.703  55.483  1.00  0.00     0.007 A 
HETATM   15  C   UNL     1       7.057  28.226  54.566  1.00  0.00     0.097 A 
HETATM   16  H   UNL     1       7.686  27.599  52.643  1.00  0.00     0.165 HD
ENDBRANCH   5   6
ENDBRANCH   1   5
BRANCH   2  17
HETATM   17  C   UNL     1       7.900  30.749  59.221  1.00  0.00     0.035 A 
HETATM   18  C   UNL     1       7.290  31.169  60.414  1.00  0.00     0.042 A 
HETATM   19  C   UNL     1       7.982  31.950  61.354  1.00  0.00    -0.021 A 
HETATM   20  C   UNL     1       9.302  32.320  61.074  1.00  0.00     0.012 A 
HETATM   21  C   UNL     1       9.914  31.912  59.888  1.00  0.00     0.003 A 
HETATM   22  C   UNL     1       9.216  31.128  58.966  1.00  0.00     0.029 A 
BRANCH  19  23
HETATM   23  C   UNL     1       7.351  32.372  62.595  1.00  0.00     0.010 A 
HETATM   24  C   UNL     1       5.985  32.457  62.958  1.00  0.00     0.152 A 
HETATM   25  N   UNL     1       5.804  32.915  64.200  1.00  0.00    -0.187 NA
HETATM   26  N   UNL     1       7.053  33.133  64.638  1.00  0.00    -0.289 N 
HETATM   27  H   UNL     1       7.175  33.497  65.577  1.00  0.00     0.188 HD
HETATM   28  C   UNL     1       8.014  32.826  63.718  1.00  0.00     0.123 A 
ENDBRANCH  19  23
ENDBRANCH   2  17
TORSDOF 4
ENDMDL
MODEL 7
REMARK VINA RESULT:      -8.9      1.930      2.564
REMARK  4 active torsions:
REMARK  status: ('A' for Active; 'I' for Inactive)
REMARK    1  A    between atoms: C_6  and  C_7 
REMARK    2  A    between atoms: C_7  and  C_8 
REMARK       I    between atoms: C_8  and  N_9 
REMARK    3  A    between atoms: N_9  and  C_10 
REMARK    4  A    between atoms: C_12  and  C_13 
ROOT
HETATM    1  C   UNL     1       6.249  27.727  55.803  1.00  0.00     0.226 C 
HETATM    2  N   UNL     1       6.945  28.900  56.051  1.00  0.00    -0.327 N 
HETATM    3  O   UNL     1       5.212  27.368  56.356  1.00  0.00    -0.273 OA
HETATM    4  H   UNL     1       7.828  29.003  55.571  1.00  0.00     0.169 HD
ENDROOT
BRANCH   1   5
HETATM    5  C   UNL     1       6.888  26.887  54.703  1.00  0.00     0.144 C 
BRANCH   5   6
HETATM    6  C   UNL     1       7.466  25.613  55.226  1.00  0.00    -0.021 A 
HETATM    7  C   UNL     1       7.666  24.385  54.512  1.00  0.00    -0.001 A 
HETATM    8  C   UNL     1       8.225  23.471  55.404  1.00  0.00     0.043 A 
HETATM    9  C   UNL     1       7.427  23.961  53.189  1.00  0.00     0.015 A 
HETATM   10  C   UNL     1       8.563  22.160  55.041  1.00  0.00     0.037 A 
HETATM   11  N   UNL     1       8.354  24.109  56.614  1.00  0.00    -0.365 N 
HETATM   12  C   UNL     1       8.317  21.755  53.720  1.00  0.00    -0.060 A 
HETATM   13  C   UNL     1       8.702  20.372  53.278  1.00  0.00     0.048 C 
HETATM   14  C   UNL     1       7.765  22.656  52.807  1.00  0.00     0.007 A 
HETATM   15  C   UNL     1       7.897  25.394  56.521  1.00  0.00     0.097 A 
HETATM   16  H   UNL     1       8.731  23.683  57.450  1.00  0.00     0.165 HD
ENDBRANCH   5   6
ENDBRANCH   1   5
BRANCH   2  17
HETATM   17  C   UNL     1       6.589  29.960  56.910  1.00  0.00     0.035 A 
HETATM   18  C   UNL     1       7.340  30.105  58.088  1.00  0.00     0.042 A 
HETATM   19  C   UNL     1       7.085  31.147  58.994  1.00  0.00    -0.021 A 
HETATM   20  C   UNL     1       6.048  32.042  58.711  1.00  0.00     0.012 A 
HETATM   21  C   UNL     1       5.292  31.900  57.546  1.00  0.00     0.003 A 
HETATM   22  C   UNL     1       5.563  30.865  56.648  1.00  0.00     0.029 A 
BRANCH  19  23
HETATM   23  C   UNL     1       7.875  31.303  60.206  1.00  0.00     0.010 A 
HETATM   24  C   UNL     1       7.745  32.210  61.286  1.00  0.00     0.152 A 
HETATM   25  N   UNL     1       8.689  32.048  62.217  1.00  0.00    -0.187 NA
HETATM   26  N   UNL     1       9.433  31.042  61.737  1.00  0.00    -0.289 N 
HETATM   27  H   UNL     1      10.234  30.735  62.280  1.00  0.00     0.188 HD
HETATM   28  C   UNL     1       8.991  30.561  60.539  1.00  0.00     0.123 A 
ENDBRANCH  19  23
ENDBRANCH   2  17
TORSDOF 4
ENDMDL
MODEL 8
REMARK VINA RESULT:      -8.7      2.488      8.751
REMARK  4 active torsions:
REMARK  status: ('A' for Active; 'I' for Inactive)
REMARK    1  A    between atoms: C_6  and  C_7 
REMARK    2  A    between atoms: C_7  and  C_8 
REMARK       I    between atoms: C_8  and  N_9 
REMARK    3  A    between atoms: N_9  and  C_10 
REMARK    4  A    between atoms: C_12  and  C_13 
ROOT
HETATM    1  C   UNL     1       5.524  27.092  56.240  1.00  0.00     0.226 C 
HETATM    2  N   UNL     1       6.764  26.660  55.796  1.00  0.00    -0.327 N 
HETATM    3  O   UNL     1       4.759  26.471  56.974  1.00  0.00    -0.273 OA
HETATM    4  H   UNL     1       7.230  27.256  55.126  1.00  0.00     0.169 HD
ENDROOT
BRANCH   1   5
HETATM    5  C   UNL     1       5.180  28.493  55.746  1.00  0.00     0.144 C 
BRANCH   5   6
HETATM    6  C   UNL     1       5.348  29.527  56.810  1.00  0.00    -0.021 A 
HETATM    7  C   UNL     1       6.571  29.966  57.417  1.00  0.00    -0.001 A 
HETATM    8  C   UNL     1       6.241  30.938  58.362  1.00  0.00     0.043 A 
HETATM    9  C   UNL     1       7.931  29.632  57.255  1.00  0.00     0.015 A 
HETATM   10  C   UNL     1       7.199  31.596  59.144  1.00  0.00     0.037 A 
HETATM   11  N   UNL     1       4.875  31.081  58.339  1.00  0.00    -0.365 N 
HETATM   12  C   UNL     1       8.548  31.250  58.970  1.00  0.00    -0.060 A 
HETATM   13  C   UNL     1       9.610  31.961  59.759  1.00  0.00     0.048 C 
HETATM   14  C   UNL     1       8.903  30.286  58.025  1.00  0.00     0.007 A 
HETATM   15  C   UNL     1       4.327  30.235  57.415  1.00  0.00     0.097 A 
HETATM   16  H   UNL     1       4.355  31.720  58.925  1.00  0.00     0.165 HD
ENDBRANCH   5   6
ENDBRANCH   1   5
BRANCH   2  17
HETATM   17  C   UNL     1       7.449  25.477  56.143  1.00  0.00     0.035 A 
HETATM   18  C   UNL     1       7.430  24.431  55.205  1.00  0.00     0.042 A 
HETATM   19  C   UNL     1       8.107  23.225  55.442  1.00  0.00    -0.021 A 
HETATM   20  C   UNL     1       8.800  23.071  56.647  1.00  0.00     0.012 A 
HETATM   21  C   UNL     1       8.819  24.102  57.587  1.00  0.00     0.003 A 
HETATM   22  C   UNL     1       8.149  25.302  57.335  1.00  0.00     0.029 A 
BRANCH  19  23
HETATM   23  C   UNL     1       8.096  22.148  54.462  1.00  0.00     0.010 A 
HETATM   24  C   UNL     1       8.446  20.781  54.584  1.00  0.00     0.152 A 
HETATM   25  N   UNL     1       8.317  20.107  53.438  1.00  0.00    -0.187 NA
HETATM   26  N   UNL     1       7.890  21.039  52.573  1.00  0.00    -0.289 N 
HETATM   27  H   UNL     1       7.723  20.761  51.612  1.00  0.00     0.188 HD
HETATM   28  C   UNL     1       7.743  22.275  53.134  1.00  0.00     0.123 A 
ENDBRANCH  19  23
ENDBRANCH   2  17
TORSDOF 4
ENDMDL
MODEL 9
REMARK VINA RESULT:      -8.7      4.399      7.801
REMARK  4 active torsions:
REMARK  status: ('A' for Active; 'I' for Inactive)
REMARK    1  A    between atoms: C_6  and  C_7 
REMARK    2  A    between atoms: C_7  and  C_8 
REMARK       I    between atoms: C_8  and  N_9 
REMARK    3  A    between atoms: N_9  and  C_10 
REMARK    4  A    between atoms: C_12  and  C_13 
ROOT
HETATM    1  C   UNL     1       5.739  27.504  55.477  1.00  0.00     0.226 C 
HETATM    2  N   UNL     1       5.712  26.196  55.935  1.00  0.00    -0.327 N 
HETATM    3  O   UNL     1       6.744  28.165  55.227  1.00  0.00    -0.273 OA
HETATM    4  H   UNL     1       4.802  25.827  56.174  1.00  0.00     0.169 HD
ENDROOT
BRANCH   1   5
HETATM    5  C   UNL     1       4.344  28.079  55.261  1.00  0.00     0.144 C 
BRANCH   5   6
HETATM    6  C   UNL     1       4.130  28.537  53.856  1.00  0.00    -0.021 A 
HETATM    7  C   UNL     1       4.396  27.809  52.648  1.00  0.00    -0.001 A 
HETATM    8  C   UNL     1       4.050  28.635  51.579  1.00  0.00     0.043 A 
HETATM    9  C   UNL     1       4.897  26.524  52.359  1.00  0.00     0.015 A 
HETATM   10  C   UNL     1       4.171  28.241  50.240  1.00  0.00     0.037 A 
HETATM   11  N   UNL     1       3.599  29.821  52.109  1.00  0.00    -0.365 N 
HETATM   12  C   UNL     1       4.673  26.959  49.971  1.00  0.00    -0.060 A 
HETATM   13  C   UNL     1       4.781  26.481  48.551  1.00  0.00     0.048 C 
HETATM   14  C   UNL     1       5.019  26.110  51.025  1.00  0.00     0.007 A 
HETATM   15  C   UNL     1       3.648  29.775  53.475  1.00  0.00     0.097 A 
HETATM   16  H   UNL     1       3.281  30.610  51.563  1.00  0.00     0.165 HD
ENDBRANCH   5   6
ENDBRANCH   1   5
BRANCH   2  17
HETATM   17  C   UNL     1       6.799  25.321  56.135  1.00  0.00     0.035 A 
HETATM   18  C   UNL     1       6.879  24.200  55.292  1.00  0.00     0.042 A 
HETATM   19  C   UNL     1       7.940  23.286  55.390  1.00  0.00    -0.021 A 
HETATM   20  C   UNL     1       8.923  23.502  56.361  1.00  0.00     0.012 A 
HETATM   21  C   UNL     1       8.848  24.609  57.208  1.00  0.00     0.003 A 
HETATM   22  C   UNL     1       7.792  25.517  57.093  1.00  0.00     0.029 A 
BRANCH  19  23
HETATM   23  C   UNL     1       8.026  22.133  54.506  1.00  0.00     0.010 A 
HETATM   24  C   UNL     1       8.343  20.779  54.777  1.00  0.00     0.152 A 
HETATM   25  N   UNL     1       8.337  20.014  53.682  1.00  0.00    -0.187 NA
HETATM   26  N   UNL     1       8.023  20.873  52.702  1.00  0.00    -0.289 N 
HETATM   27  H   UNL     1       7.962  20.518  51.753  1.00  0.00     0.188 HD
HETATM   28  C   UNL     1       7.828  22.152  53.140  1.00  0.00     0.123 A 
ENDBRANCH  19  23
ENDBRANCH   2  17
TORSDOF 4
ENDMDL
MODEL 10
REMARK VINA RESULT:      -8.6      2.710      3.643
REMARK  4 active torsions:
REMARK  status: ('A' for Active; 'I' for Inactive)
REMARK    1  A    between atoms: C_6  and  C_7 
REMARK    2  A    between atoms: C_7  and  C_8 
REMARK       I    between atoms: C_8  and  N_9 
REMARK    3  A    between atoms: N_9  and  C_10 
REMARK    4  A    between atoms: C_12  and  C_13 
ROOT
HETATM    1  C   UNL     1       4.922  28.172  54.136  1.00  0.00     0.226 C 
HETATM    2  N   UNL     1       5.039  28.051  55.512  1.00  0.00    -0.327 N 
HETATM    3  O   UNL     1       5.221  29.157  53.466  1.00  0.00    -0.273 OA
HETATM    4  H   UNL     1       4.667  27.203  55.918  1.00  0.00     0.169 HD
ENDROOT
BRANCH   1   5
HETATM    5  C   UNL     1       4.398  26.900  53.478  1.00  0.00     0.144 C 
BRANCH   5   6
HETATM    6  C   UNL     1       5.486  26.103  52.837  1.00  0.00    -0.021 A 
HETATM    7  C   UNL     1       6.278  25.066  53.432  1.00  0.00    -0.001 A 
HETATM    8  C   UNL     1       7.171  24.614  52.461  1.00  0.00     0.043 A 
HETATM    9  C   UNL     1       6.321  24.462  54.705  1.00  0.00     0.015 A 
HETATM   10  C   UNL     1       8.097  23.589  52.695  1.00  0.00     0.037 A 
HETATM   11  N   UNL     1       6.942  25.350  51.323  1.00  0.00    -0.365 N 
HETATM   12  C   UNL     1       8.127  23.001  53.968  1.00  0.00    -0.060 A 
HETATM   13  C   UNL     1       9.075  21.871  54.249  1.00  0.00     0.048 C 
HETATM   14  C   UNL     1       7.236  23.431  54.954  1.00  0.00     0.007 A 
HETATM   15  C   UNL     1       5.937  26.251  51.539  1.00  0.00     0.097 A 
HETATM   16  H   UNL     1       7.449  25.238  50.456  1.00  0.00     0.165 HD
ENDBRANCH   5   6
ENDBRANCH   1   5
BRANCH   2  17
HETATM   17  C   UNL     1       5.589  28.975  56.424  1.00  0.00     0.035 A 
HETATM   18  C   UNL     1       6.990  29.062  56.477  1.00  0.00     0.042 A 
HETATM   19  C   UNL     1       7.634  29.973  57.329  1.00  0.00    -0.021 A 
HETATM   20  C   UNL     1       6.851  30.795  58.145  1.00  0.00     0.012 A 
HETATM   21  C   UNL     1       5.458  30.712  58.104  1.00  0.00     0.003 A 
HETATM   22  C   UNL     1       4.830  29.807  57.244  1.00  0.00     0.029 A 
BRANCH  19  23
HETATM   23  C   UNL     1       9.086  30.069  57.372  1.00  0.00     0.010 A 
HETATM   24  C   UNL     1       9.933  31.037  57.964  1.00  0.00     0.152 A 
HETATM   25  N   UNL     1      11.230  30.783  57.768  1.00  0.00    -0.187 NA
HETATM   26  N   UNL     1      11.221  29.654  57.044  1.00  0.00    -0.289 N 
HETATM   27  H   UNL     1      12.112  29.259  56.761  1.00  0.00     0.188 HD
HETATM   28  C   UNL     1       9.967  29.187  56.779  1.00  0.00     0.123 A 
ENDBRANCH  19  23
ENDBRANCH   2  17
TORSDOF 4
ENDMDL
