MODEL 1
REMARK VINA RESULT:      -9.9      0.000      0.000
REMARK  9 active torsions:
REMARK  status: ('A' for Active; 'I' for Inactive)
REMARK    1  A    between atoms: O_2  and  C_3 
REMARK    2  A    between atoms: C_5  and  O_6 
REMARK    3  A    between atoms: C_8  and  N_9 
REMARK    4  A    between atoms: C_10  and  C_12 
REMARK    5  A    between atoms: C_10  and  O_11 
REMARK       I    between atoms: C_12  and  N_13 
REMARK    6  A    between atoms: N_13  and  C_14 
REMARK    7  A    between atoms: C_14  and  C_15 
REMARK    8  A    between atoms: C_15  and  N_16 
REMARK    9  A    between atoms: N_20  and  C_21 
ROOT
HETATM    1  N   UNL     1       7.072  26.054  55.734  1.00  0.00    -0.251 N 
HETATM    2  C   UNL     1       7.055  25.557  54.355  1.00  0.00     0.256 C 
HETATM    3  C   UNL     1       7.565  24.125  54.251  1.00  0.00     0.034 A 
HETATM    4  C   UNL     1       8.446  23.677  55.234  1.00  0.00     0.048 A 
HETATM    5  N   UNL     1       8.722  24.498  56.320  1.00  0.00    -0.308 N 
HETATM    6  C   UNL     1       8.048  25.641  56.628  1.00  0.00     0.330 C 
HETATM    7  O   UNL     1       8.334  26.228  57.671  1.00  0.00    -0.246 OA
HETATM    8  C   UNL     1       7.285  23.263  53.176  1.00  0.00     0.015 A 
HETATM    9  C   UNL     1       7.875  21.999  53.096  1.00  0.00     0.001 A 
HETATM   10  C   UNL     1       8.763  21.581  54.081  1.00  0.00     0.002 A 
HETATM   11  C   UNL     1       9.053  22.422  55.154  1.00  0.00     0.030 A 
HETATM   12  H   UNL     1       9.365  24.186  57.039  1.00  0.00     0.170 HD
ENDROOT
BRANCH   2  13
HETATM   13  C   UNL     1       5.633  25.689  53.620  1.00  0.00     0.279 C 
HETATM   14  N   UNL     1       5.296  26.769  52.839  1.00  0.00    -0.355 N 
HETATM   15  H   UNL     1       4.307  26.749  52.611  1.00  0.00     0.162 HD
HETATM   16  O   UNL     1       4.753  24.821  53.677  1.00  0.00    -0.268 OA
BRANCH  14  17
HETATM   17  C   UNL     1       6.087  27.891  52.365  1.00  0.00     0.150 C 
BRANCH  17  18
HETATM   18  C   UNL     1       5.466  28.687  51.193  1.00  0.00     0.254 C 
BRANCH  18  19
HETATM   19  N   UNL     1       5.531  27.976  49.840  1.00  0.00    -0.067 N 
HETATM   20  H   UNL     1       6.437  27.502  49.748  1.00  0.00     0.280 HD
HETATM   21  C   UNL     1       4.436  26.883  49.807  1.00  0.00     0.254 C 
HETATM   22  C   UNL     1       4.313  26.220  48.417  1.00  0.00     0.150 C 
HETATM   23  N   UNL     1       4.116  27.238  47.368  1.00  0.00    -0.378 N 
HETATM   24  C   UNL     1       5.258  28.173  47.310  1.00  0.00     0.150 C 
HETATM   25  C   UNL     1       5.388  28.936  48.646  1.00  0.00     0.254 C 
BRANCH  23  26
HETATM   26  C   UNL     1       2.836  27.774  47.139  1.00  0.00     0.030 A 
HETATM   27  C   UNL     1       2.604  29.138  46.894  1.00  0.00     0.029 A 
HETATM   28  C   UNL     1       1.320  29.644  46.642  1.00  0.00     0.002 A 
HETATM   29  C   UNL     1       0.220  28.799  46.653  1.00  0.00     0.000 A 
HETATM   30  C   UNL     1       0.403  27.456  46.940  1.00  0.00     0.002 A 
HETATM   31  C   UNL     1       1.689  26.959  47.191  1.00  0.00     0.029 A 
ENDBRANCH  23  26
ENDBRANCH  18  19
ENDBRANCH  17  18
ENDBRANCH  14  17
ENDBRANCH   2  13
BRANCH   2  32
HETATM   32  O   UNL     1       8.054  26.322  53.664  1.00  0.00    -0.359 OA
HETATM   33  H   UNL     1       8.364  25.704  52.979  1.00  0.00     0.213 HD
ENDBRANCH   2  32
BRANCH   1  34
HETATM   34  C   UNL     1       6.310  27.213  56.077  1.00  0.00     0.076 A 
HETATM   35  C   UNL     1       6.834  28.498  55.831  1.00  0.00     0.098 A 
HETATM   36  C   UNL     1       6.045  29.621  56.089  1.00  0.00     0.075 A 
HETATM   37  C   UNL     1       4.731  29.463  56.533  1.00  0.00     0.070 A 
HETATM   38  C   UNL     1       4.207  28.197  56.777  1.00  0.00     0.039 A 
HETATM   39  C   UNL     1       4.992  27.070  56.536  1.00  0.00     0.035 A 
BRANCH  35  40
HETATM   40  O   UNL     1       8.088  28.540  55.283  1.00  0.00    -0.354 OA
HETATM   41  C   UNL     1       9.078  29.312  55.952  1.00  0.00     0.210 C 
ENDBRANCH  35  40
BRANCH  37  42
HETATM   42  O   UNL     1       3.997  30.599  56.742  1.00  0.00    -0.356 OA
HETATM   43  C   UNL     1       4.286  31.176  58.018  1.00  0.00     0.210 C 
ENDBRANCH  37  42
ENDBRANCH   1  34
TORSDOF 9
ENDMDL
MODEL 2
REMARK VINA RESULT:      -9.8      1.090      1.777
REMARK  9 active torsions:
REMARK  status: ('A' for Active; 'I' for Inactive)
REMARK    1  A    between atoms: O_2  and  C_3 
REMARK    2  A    between atoms: C_5  and  O_6 
REMARK    3  A    between atoms: C_8  and  N_9 
REMARK    4  A    between atoms: C_10  and  C_12 
REMARK    5  A    between atoms: C_10  and  O_11 
REMARK       I    between atoms: C_12  and  N_13 
REMARK    6  A    between atoms: N_13  and  C_14 
REMARK    7  A    between atoms: C_14  and  C_15 
REMARK    8  A    between atoms: C_15  and  N_16 
REMARK    9  A    between atoms: N_20  and  C_21 
ROOT
HETATM    1  N   UNL     1       7.030  26.090  55.609  1.00  0.00    -0.251 N 
HETATM    2  C   UNL     1       6.997  25.581  54.234  1.00  0.00     0.256 C 
HETATM    3  C   UNL     1       7.515  24.152  54.136  1.00  0.00     0.034 A 
HETATM    4  C   UNL     1       8.414  23.718  55.110  1.00  0.00     0.048 A 
HETATM    5  N   UNL     1       8.699  24.551  56.185  1.00  0.00    -0.308 N 
HETATM    6  C   UNL     1       8.021  25.691  56.493  1.00  0.00     0.330 C 
HETATM    7  O   UNL     1       8.317  26.290  57.526  1.00  0.00    -0.246 OA
HETATM    8  C   UNL     1       7.226  23.279  53.073  1.00  0.00     0.015 A 
HETATM    9  C   UNL     1       7.824  22.018  52.995  1.00  0.00     0.001 A 
HETATM   10  C   UNL     1       8.729  21.615  53.971  1.00  0.00     0.002 A 
HETATM   11  C   UNL     1       9.028  22.467  55.031  1.00  0.00     0.030 A 
HETATM   12  H   UNL     1       9.354  24.250  56.897  1.00  0.00     0.170 HD
ENDROOT
BRANCH   2  13
HETATM   13  C   UNL     1       5.563  25.696  53.519  1.00  0.00     0.279 C 
HETATM   14  N   UNL     1       5.197  26.781  52.757  1.00  0.00    -0.355 N 
HETATM   15  H   UNL     1       4.205  26.745  52.542  1.00  0.00     0.162 HD
HETATM   16  O   UNL     1       4.700  24.811  53.575  1.00  0.00    -0.268 OA
BRANCH  14  17
HETATM   17  C   UNL     1       5.961  27.924  52.290  1.00  0.00     0.150 C 
BRANCH  17  18
HETATM   18  C   UNL     1       5.294  29.300  52.519  1.00  0.00     0.254 C 
BRANCH  18  19
HETATM   19  N   UNL     1       4.767  29.969  51.246  1.00  0.00    -0.067 N 
HETATM   20  H   UNL     1       4.849  30.988  51.339  1.00  0.00     0.280 HD
HETATM   21  C   UNL     1       5.665  29.543  50.060  1.00  0.00     0.254 C 
HETATM   22  C   UNL     1       5.114  30.035  48.704  1.00  0.00     0.150 C 
HETATM   23  N   UNL     1       3.713  29.610  48.523  1.00  0.00    -0.378 N 
HETATM   24  C   UNL     1       2.845  30.169  49.580  1.00  0.00     0.150 C 
HETATM   25  C   UNL     1       3.289  29.648  50.963  1.00  0.00     0.254 C 
BRANCH  23  26
HETATM   26  C   UNL     1       3.426  28.307  48.079  1.00  0.00     0.030 A 
HETATM   27  C   UNL     1       4.371  27.268  48.075  1.00  0.00     0.029 A 
HETATM   28  C   UNL     1       4.052  25.969  47.652  1.00  0.00     0.002 A 
HETATM   29  C   UNL     1       2.776  25.675  47.193  1.00  0.00     0.000 A 
HETATM   30  C   UNL     1       1.831  26.687  47.135  1.00  0.00     0.002 A 
HETATM   31  C   UNL     1       2.158  27.982  47.559  1.00  0.00     0.029 A 
ENDBRANCH  23  26
ENDBRANCH  18  19
ENDBRANCH  17  18
ENDBRANCH  14  17
ENDBRANCH   2  13
BRANCH   2  32
HETATM   32  O   UNL     1       7.980  26.347  53.523  1.00  0.00    -0.359 OA
HETATM   33  H   UNL     1       8.058  25.868  52.679  1.00  0.00     0.213 HD
ENDBRANCH   2  32
BRANCH   1  34
HETATM   34  C   UNL     1       6.264  27.246  55.952  1.00  0.00     0.076 A 
HETATM   35  C   UNL     1       6.793  28.533  55.726  1.00  0.00     0.098 A 
HETATM   36  C   UNL     1       6.001  29.655  55.984  1.00  0.00     0.075 A 
HETATM   37  C   UNL     1       4.682  29.494  56.409  1.00  0.00     0.070 A 
HETATM   38  C   UNL     1       4.153  28.226  56.634  1.00  0.00     0.039 A 
HETATM   39  C   UNL     1       4.940  27.100  56.393  1.00  0.00     0.035 A 
BRANCH  35  40
HETATM   40  O   UNL     1       8.054  28.579  55.196  1.00  0.00    -0.354 OA
HETATM   41  C   UNL     1       9.041  29.327  55.897  1.00  0.00     0.210 C 
ENDBRANCH  35  40
BRANCH  37  42
HETATM   42  O   UNL     1       3.945  30.628  56.619  1.00  0.00    -0.356 OA
HETATM   43  C   UNL     1       4.309  31.660  55.698  1.00  0.00     0.210 C 
ENDBRANCH  37  42
ENDBRANCH   1  34
TORSDOF 9
ENDMDL
MODEL 3
REMARK VINA RESULT:      -9.3      1.522      2.051
REMARK  9 active torsions:
REMARK  status: ('A' for Active; 'I' for Inactive)
REMARK    1  A    between atoms: O_2  and  C_3 
REMARK    2  A    between atoms: C_5  and  O_6 
REMARK    3  A    between atoms: C_8  and  N_9 
REMARK    4  A    between atoms: C_10  and  C_12 
REMARK    5  A    between atoms: C_10  and  O_11 
REMARK       I    between atoms: C_12  and  N_13 
REMARK    6  A    between atoms: N_13  and  C_14 
REMARK    7  A    between atoms: C_14  and  C_15 
REMARK    8  A    between atoms: C_15  and  N_16 
REMARK    9  A    between atoms: N_20  and  C_21 
ROOT
HETATM    1  N   UNL     1       5.922  26.505  55.819  1.00  0.00    -0.251 N 
HETATM    2  C   UNL     1       7.074  26.467  54.913  1.00  0.00     0.256 C 
HETATM    3  C   UNL     1       7.319  25.074  54.350  1.00  0.00     0.034 A 
HETATM    4  C   UNL     1       6.874  23.983  55.096  1.00  0.00     0.048 A 
HETATM    5  N   UNL     1       6.126  24.211  56.245  1.00  0.00    -0.308 N 
HETATM    6  C   UNL     1       5.602  25.413  56.612  1.00  0.00     0.330 C 
HETATM    7  O   UNL     1       4.881  25.460  57.608  1.00  0.00    -0.246 OA
HETATM    8  C   UNL     1       8.052  24.813  53.178  1.00  0.00     0.015 A 
HETATM    9  C   UNL     1       8.328  23.503  52.779  1.00  0.00     0.001 A 
HETATM   10  C   UNL     1       7.886  22.433  53.550  1.00  0.00     0.002 A 
HETATM   11  C   UNL     1       7.159  22.671  54.713  1.00  0.00     0.030 A 
HETATM   12  H   UNL     1       5.800  23.427  56.799  1.00  0.00     0.170 HD
ENDROOT
BRANCH   2  13
HETATM   13  C   UNL     1       7.015  27.541  53.720  1.00  0.00     0.279 C 
HETATM   14  N   UNL     1       6.178  27.404  52.637  1.00  0.00    -0.355 N 
HETATM   15  H   UNL     1       6.412  28.082  51.919  1.00  0.00     0.162 HD
HETATM   16  O   UNL     1       7.690  28.577  53.701  1.00  0.00    -0.268 OA
BRANCH  14  17
HETATM   17  C   UNL     1       5.111  26.457  52.366  1.00  0.00     0.150 C 
BRANCH  17  18
HETATM   18  C   UNL     1       4.910  26.099  50.875  1.00  0.00     0.254 C 
BRANCH  18  19
HETATM   19  N   UNL     1       5.139  27.263  49.907  1.00  0.00    -0.067 N 
HETATM   20  H   UNL     1       6.080  27.647  50.055  1.00  0.00     0.280 HD
HETATM   21  C   UNL     1       5.090  26.716  48.461  1.00  0.00     0.254 C 
HETATM   22  C   UNL     1       5.146  27.843  47.407  1.00  0.00     0.150 C 
HETATM   23  N   UNL     1       4.095  28.847  47.659  1.00  0.00    -0.378 N 
HETATM   24  C   UNL     1       4.265  29.476  48.986  1.00  0.00     0.150 C 
HETATM   25  C   UNL     1       4.135  28.413  50.097  1.00  0.00     0.254 C 
BRANCH  23  26
HETATM   26  C   UNL     1       2.779  28.612  47.224  1.00  0.00     0.030 A 
HETATM   27  C   UNL     1       2.211  27.329  47.144  1.00  0.00     0.029 A 
HETATM   28  C   UNL     1       0.886  27.123  46.732  1.00  0.00     0.002 A 
HETATM   29  C   UNL     1       0.093  28.199  46.361  1.00  0.00     0.000 A 
HETATM   30  C   UNL     1       0.634  29.475  46.378  1.00  0.00     0.002 A 
HETATM   31  C   UNL     1       1.958  29.671  46.791  1.00  0.00     0.029 A 
ENDBRANCH  23  26
ENDBRANCH  18  19
ENDBRANCH  17  18
ENDBRANCH  14  17
ENDBRANCH   2  13
BRANCH   2  32
HETATM   32  O   UNL     1       8.219  26.700  55.746  1.00  0.00    -0.359 OA
HETATM   33  H   UNL     1       8.066  26.098  56.496  1.00  0.00     0.213 HD
ENDBRANCH   2  32
BRANCH   1  34
HETATM   34  C   UNL     1       5.327  27.760  56.153  1.00  0.00     0.076 A 
HETATM   35  C   UNL     1       5.910  28.576  57.142  1.00  0.00     0.098 A 
HETATM   36  C   UNL     1       5.370  29.838  57.398  1.00  0.00     0.075 A 
HETATM   37  C   UNL     1       4.296  30.303  56.638  1.00  0.00     0.070 A 
HETATM   38  C   UNL     1       3.715  29.503  55.658  1.00  0.00     0.039 A 
HETATM   39  C   UNL     1       4.238  28.236  55.405  1.00  0.00     0.035 A 
BRANCH  35  40
HETATM   40  O   UNL     1       7.032  28.075  57.747  1.00  0.00    -0.354 OA
HETATM   41  C   UNL     1       8.040  28.999  58.141  1.00  0.00     0.210 C 
ENDBRANCH  35  40
BRANCH  37  42
HETATM   42  O   UNL     1       3.827  31.559  56.914  1.00  0.00    -0.356 OA
HETATM   43  C   UNL     1       2.933  32.015  55.894  1.00  0.00     0.210 C 
ENDBRANCH  37  42
ENDBRANCH   1  34
TORSDOF 9
ENDMDL
MODEL 4
REMARK VINA RESULT:      -9.1      3.007      8.585
REMARK  9 active torsions:
REMARK  status: ('A' for Active; 'I' for Inactive)
REMARK    1  A    between atoms: O_2  and  C_3 
REMARK    2  A    between atoms: C_5  and  O_6 
REMARK    3  A    between atoms: C_8  and  N_9 
REMARK    4  A    between atoms: C_10  and  C_12 
REMARK    5  A    between atoms: C_10  and  O_11 
REMARK       I    between atoms: C_12  and  N_13 
REMARK    6  A    between atoms: N_13  and  C_14 
REMARK    7  A    between atoms: C_14  and  C_15 
REMARK    8  A    between atoms: C_15  and  N_16 
REMARK    9  A    between atoms: N_20  and  C_21 
ROOT
HETATM    1  N   UNL     1       4.261  27.643  50.299  1.00  0.00    -0.251 N 
HETATM    2  C   UNL     1       4.700  28.102  51.621  1.00  0.00     0.256 C 
HETATM    3  C   UNL     1       5.798  27.221  52.203  1.00  0.00     0.034 A 
HETATM    4  C   UNL     1       5.866  25.897  51.772  1.00  0.00     0.048 A 
HETATM    5  N   UNL     1       5.020  25.473  50.753  1.00  0.00    -0.308 N 
HETATM    6  C   UNL     1       4.257  26.294  49.979  1.00  0.00     0.330 C 
HETATM    7  O   UNL     1       3.621  25.799  49.050  1.00  0.00    -0.246 OA
HETATM    8  C   UNL     1       6.682  27.628  53.218  1.00  0.00     0.015 A 
HETATM    9  C   UNL     1       7.596  26.731  53.778  1.00  0.00     0.001 A 
HETATM   10  C   UNL     1       7.631  25.410  53.342  1.00  0.00     0.002 A 
HETATM   11  C   UNL     1       6.763  24.989  52.337  1.00  0.00     0.030 A 
HETATM   12  H   UNL     1       5.056  24.512  50.434  1.00  0.00     0.170 HD
ENDROOT
BRANCH   2  13
HETATM   13  C   UNL     1       5.147  29.644  51.673  1.00  0.00     0.279 C 
HETATM   14  N   UNL     1       4.661  30.528  52.608  1.00  0.00    -0.355 N 
HETATM   15  H   UNL     1       4.925  31.479  52.368  1.00  0.00     0.162 HD
HETATM   16  O   UNL     1       5.976  30.140  50.901  1.00  0.00    -0.268 OA
BRANCH  14  17
HETATM   17  C   UNL     1       3.836  30.320  53.784  1.00  0.00     0.150 C 
BRANCH  17  18
HETATM   18  C   UNL     1       3.975  31.396  54.886  1.00  0.00     0.254 C 
BRANCH  18  19
HETATM   19  N   UNL     1       4.390  30.852  56.255  1.00  0.00    -0.067 N 
HETATM   20  H   UNL     1       3.560  30.765  56.852  1.00  0.00     0.280 HD
HETATM   21  C   UNL     1       4.967  29.429  56.063  1.00  0.00     0.254 C 
HETATM   22  C   UNL     1       5.568  28.860  57.367  1.00  0.00     0.150 C 
HETATM   23  N   UNL     1       6.559  29.792  57.936  1.00  0.00    -0.378 N 
HETATM   24  C   UNL     1       5.942  31.093  58.266  1.00  0.00     0.150 C 
HETATM   25  C   UNL     1       5.393  31.760  56.987  1.00  0.00     0.254 C 
BRANCH  23  26
HETATM   26  C   UNL     1       7.872  29.814  57.434  1.00  0.00     0.030 A 
HETATM   27  C   UNL     1       8.227  29.283  56.182  1.00  0.00     0.029 A 
HETATM   28  C   UNL     1       9.540  29.341  55.691  1.00  0.00     0.002 A 
HETATM   29  C   UNL     1      10.549  29.913  56.454  1.00  0.00     0.000 A 
HETATM   30  C   UNL     1      10.246  30.402  57.715  1.00  0.00     0.002 A 
HETATM   31  C   UNL     1       8.932  30.340  58.197  1.00  0.00     0.029 A 
ENDBRANCH  23  26
ENDBRANCH  18  19
ENDBRANCH  17  18
ENDBRANCH  14  17
ENDBRANCH   2  13
BRANCH   2  32
HETATM   32  O   UNL     1       3.584  27.869  52.492  1.00  0.00    -0.359 OA
HETATM   33  H   UNL     1       2.906  28.473  52.140  1.00  0.00     0.213 HD
ENDBRANCH   2  32
BRANCH   1  34
HETATM   34  C   UNL     1       3.519  28.525  49.456  1.00  0.00     0.076 A 
HETATM   35  C   UNL     1       4.125  29.084  48.314  1.00  0.00     0.098 A 
HETATM   36  C   UNL     1       3.364  29.875  47.450  1.00  0.00     0.075 A 
HETATM   37  C   UNL     1       2.002  30.059  47.693  1.00  0.00     0.070 A 
HETATM   38  C   UNL     1       1.396  29.509  48.819  1.00  0.00     0.039 A 
HETATM   39  C   UNL     1       2.151  28.729  49.694  1.00  0.00     0.035 A 
BRANCH  35  40
HETATM   40  O   UNL     1       5.435  28.746  48.104  1.00  0.00    -0.354 OA
HETATM   41  C   UNL     1       5.723  27.839  47.046  1.00  0.00     0.210 C 
ENDBRANCH  35  40
BRANCH  37  42
HETATM   42  O   UNL     1       1.301  30.820  46.797  1.00  0.00    -0.356 OA
HETATM   43  C   UNL     1       0.378  30.022  46.049  1.00  0.00     0.210 C 
ENDBRANCH  37  42
ENDBRANCH   1  34
TORSDOF 9
ENDMDL
MODEL 5
REMARK VINA RESULT:      -9.0      2.688      5.948
REMARK  9 active torsions:
REMARK  status: ('A' for Active; 'I' for Inactive)
REMARK    1  A    between atoms: O_2  and  C_3 
REMARK    2  A    between atoms: C_5  and  O_6 
REMARK    3  A    between atoms: C_8  and  N_9 
REMARK    4  A    between atoms: C_10  and  C_12 
REMARK    5  A    between atoms: C_10  and  O_11 
REMARK       I    between atoms: C_12  and  N_13 
REMARK    6  A    between atoms: N_13  and  C_14 
REMARK    7  A    between atoms: C_14  and  C_15 
REMARK    8  A    between atoms: C_15  and  N_16 
REMARK    9  A    between atoms: N_20  and  C_21 
ROOT
HETATM    1  N   UNL     1       5.573  26.444  55.039  1.00  0.00    -0.251 N 
HETATM    2  C   UNL     1       5.161  27.471  54.077  1.00  0.00     0.256 C 
HETATM    3  C   UNL     1       4.629  28.723  54.763  1.00  0.00     0.034 A 
HETATM    4  C   UNL     1       4.087  28.584  56.040  1.00  0.00     0.048 A 
HETATM    5  N   UNL     1       4.165  27.351  56.677  1.00  0.00    -0.308 N 
HETATM    6  C   UNL     1       4.914  26.296  56.249  1.00  0.00     0.330 C 
HETATM    7  O   UNL     1       4.967  25.291  56.956  1.00  0.00    -0.246 OA
HETATM    8  C   UNL     1       4.557  29.988  54.153  1.00  0.00     0.015 A 
HETATM    9  C   UNL     1       3.958  31.069  54.806  1.00  0.00     0.001 A 
HETATM   10  C   UNL     1       3.410  30.899  56.073  1.00  0.00     0.002 A 
HETATM   11  C   UNL     1       3.472  29.654  56.693  1.00  0.00     0.030 A 
HETATM   12  H   UNL     1       3.771  27.235  57.603  1.00  0.00     0.170 HD
ENDROOT
BRANCH   2  13
HETATM   13  C   UNL     1       6.291  27.869  53.007  1.00  0.00     0.279 C 
HETATM   14  N   UNL     1       6.057  27.895  51.652  1.00  0.00    -0.355 N 
HETATM   15  H   UNL     1       6.929  27.997  51.142  1.00  0.00     0.162 HD
HETATM   16  O   UNL     1       7.439  28.208  53.321  1.00  0.00    -0.268 OA
BRANCH  14  17
HETATM   17  C   UNL     1       4.828  27.755  50.890  1.00  0.00     0.150 C 
BRANCH  17  18
HETATM   18  C   UNL     1       4.964  28.001  49.370  1.00  0.00     0.254 C 
BRANCH  18  19
HETATM   19  N   UNL     1       4.064  29.112  48.825  1.00  0.00    -0.067 N 
HETATM   20  H   UNL     1       3.081  28.838  48.936  1.00  0.00     0.280 HD
HETATM   21  C   UNL     1       4.285  30.385  49.677  1.00  0.00     0.254 C 
HETATM   22  C   UNL     1       3.543  31.611  49.100  1.00  0.00     0.150 C 
HETATM   23  N   UNL     1       3.899  31.819  47.684  1.00  0.00    -0.378 N 
HETATM   24  C   UNL     1       3.524  30.651  46.862  1.00  0.00     0.150 C 
HETATM   25  C   UNL     1       4.298  29.401  47.331  1.00  0.00     0.254 C 
BRANCH  23  26
HETATM   26  C   UNL     1       5.092  32.483  47.350  1.00  0.00     0.030 A 
HETATM   27  C   UNL     1       5.960  33.038  48.306  1.00  0.00     0.029 A 
HETATM   28  C   UNL     1       7.158  33.672  47.949  1.00  0.00     0.002 A 
HETATM   29  C   UNL     1       7.516  33.793  46.614  1.00  0.00     0.000 A 
HETATM   30  C   UNL     1       6.661  33.302  45.639  1.00  0.00     0.002 A 
HETATM   31  C   UNL     1       5.465  32.671  46.005  1.00  0.00     0.029 A 
ENDBRANCH  23  26
ENDBRANCH  18  19
ENDBRANCH  17  18
ENDBRANCH  14  17
ENDBRANCH   2  13
BRANCH   2  32
HETATM   32  O   UNL     1       4.007  26.932  53.417  1.00  0.00    -0.359 OA
HETATM   33  H   UNL     1       4.009  26.002  53.705  1.00  0.00     0.213 HD
ENDBRANCH   2  32
BRANCH   1  34
HETATM   34  C   UNL     1       6.415  25.373  54.610  1.00  0.00     0.076 A 
HETATM   35  C   UNL     1       7.654  25.153  55.245  1.00  0.00     0.098 A 
HETATM   36  C   UNL     1       8.428  24.050  54.876  1.00  0.00     0.075 A 
HETATM   37  C   UNL     1       7.948  23.148  53.926  1.00  0.00     0.070 A 
HETATM   38  C   UNL     1       6.725  23.359  53.295  1.00  0.00     0.039 A 
HETATM   39  C   UNL     1       5.951  24.464  53.646  1.00  0.00     0.035 A 
BRANCH  35  40
HETATM   40  O   UNL     1       7.977  26.028  56.247  1.00  0.00    -0.354 OA
HETATM   41  C   UNL     1       8.380  25.484  57.498  1.00  0.00     0.210 C 
ENDBRANCH  35  40
BRANCH  37  42
HETATM   42  O   UNL     1       8.738  22.072  53.625  1.00  0.00    -0.356 OA
HETATM   43  C   UNL     1       7.959  20.983  53.120  1.00  0.00     0.210 C 
ENDBRANCH  37  42
ENDBRANCH   1  34
TORSDOF 9
ENDMDL
MODEL 6
REMARK VINA RESULT:      -9.0      3.211      8.187
REMARK  9 active torsions:
REMARK  status: ('A' for Active; 'I' for Inactive)
REMARK    1  A    between atoms: O_2  and  C_3 
REMARK    2  A    between atoms: C_5  and  O_6 
REMARK    3  A    between atoms: C_8  and  N_9 
REMARK    4  A    between atoms: C_10  and  C_12 
REMARK    5  A    between atoms: C_10  and  O_11 
REMARK       I    between atoms: C_12  and  N_13 
REMARK    6  A    between atoms: N_13  and  C_14 
REMARK    7  A    between atoms: C_14  and  C_15 
REMARK    8  A    between atoms: C_15  and  N_16 
REMARK    9  A    between atoms: N_20  and  C_21 
ROOT
HETATM    1  N   UNL     1       3.168  30.271  50.976  1.00  0.00    -0.251 N 
HETATM    2  C   UNL     1       3.856  28.977  51.042  1.00  0.00     0.256 C 
HETATM    3  C   UNL     1       3.547  28.098  49.838  1.00  0.00     0.034 A 
HETATM    4  C   UNL     1       2.342  28.310  49.169  1.00  0.00     0.048 A 
HETATM    5  N   UNL     1       1.540  29.381  49.545  1.00  0.00    -0.308 N 
HETATM    6  C   UNL     1       1.918  30.384  50.386  1.00  0.00     0.330 C 
HETATM    7  O   UNL     1       1.143  31.322  50.565  1.00  0.00    -0.246 OA
HETATM    8  C   UNL     1       4.350  27.022  49.420  1.00  0.00     0.015 A 
HETATM    9  C   UNL     1       3.950  26.191  48.370  1.00  0.00     0.001 A 
HETATM   10  C   UNL     1       2.735  26.414  47.730  1.00  0.00     0.002 A 
HETATM   11  C   UNL     1       1.926  27.475  48.130  1.00  0.00     0.030 A 
HETATM   12  H   UNL     1       0.660  29.544  49.071  1.00  0.00     0.170 HD
ENDROOT
BRANCH   2  13
HETATM   13  C   UNL     1       5.445  29.081  51.255  1.00  0.00     0.279 C 
HETATM   14  N   UNL     1       6.062  28.723  52.430  1.00  0.00    -0.355 N 
HETATM   15  H   UNL     1       7.033  29.023  52.427  1.00  0.00     0.162 HD
HETATM   16  O   UNL     1       6.227  29.460  50.375  1.00  0.00    -0.268 OA
BRANCH  14  17
HETATM   17  C   UNL     1       5.550  28.066  53.620  1.00  0.00     0.150 C 
BRANCH  17  18
HETATM   18  C   UNL     1       6.061  28.640  54.961  1.00  0.00     0.254 C 
BRANCH  18  19
HETATM   19  N   UNL     1       6.288  27.593  56.054  1.00  0.00    -0.067 N 
HETATM   20  H   UNL     1       6.019  27.987  56.963  1.00  0.00     0.280 HD
HETATM   21  C   UNL     1       5.354  26.389  55.782  1.00  0.00     0.254 C 
HETATM   22  C   UNL     1       5.629  25.208  56.737  1.00  0.00     0.150 C 
HETATM   23  N   UNL     1       7.054  24.827  56.702  1.00  0.00    -0.378 N 
HETATM   24  C   UNL     1       7.916  25.948  57.129  1.00  0.00     0.150 C 
HETATM   25  C   UNL     1       7.755  27.140  56.162  1.00  0.00     0.254 C 
BRANCH  23  26
HETATM   26  C   UNL     1       7.536  24.003  55.671  1.00  0.00     0.030 A 
HETATM   27  C   UNL     1       6.917  23.900  54.413  1.00  0.00     0.029 A 
HETATM   28  C   UNL     1       7.433  23.090  53.391  1.00  0.00     0.002 A 
HETATM   29  C   UNL     1       8.577  22.334  53.605  1.00  0.00     0.000 A 
HETATM   30  C   UNL     1       9.186  22.371  54.850  1.00  0.00     0.002 A 
HETATM   31  C   UNL     1       8.664  23.182  55.865  1.00  0.00     0.029 A 
ENDBRANCH  23  26
ENDBRANCH  18  19
ENDBRANCH  17  18
ENDBRANCH  14  17
ENDBRANCH   2  13
BRANCH   2  32
HETATM   32  O   UNL     1       3.244  28.279  52.136  1.00  0.00    -0.359 OA
HETATM   33  H   UNL     1       3.108  27.386  51.773  1.00  0.00     0.213 HD
ENDBRANCH   2  32
BRANCH   1  34
HETATM   34  C   UNL     1       3.606  31.347  51.807  1.00  0.00     0.076 A 
HETATM   35  C   UNL     1       4.333  32.417  51.249  1.00  0.00     0.098 A 
HETATM   36  C   UNL     1       4.680  33.505  52.053  1.00  0.00     0.075 A 
HETATM   37  C   UNL     1       4.259  33.550  53.383  1.00  0.00     0.070 A 
HETATM   38  C   UNL     1       3.540  32.497  53.941  1.00  0.00     0.039 A 
HETATM   39  C   UNL     1       3.201  31.401  53.149  1.00  0.00     0.035 A 
BRANCH  35  40
HETATM   40  O   UNL     1       4.594  32.330  49.908  1.00  0.00    -0.354 OA
HETATM   41  C   UNL     1       5.878  32.739  49.454  1.00  0.00     0.210 C 
ENDBRANCH  35  40
BRANCH  37  42
HETATM   42  O   UNL     1       4.604  34.654  54.115  1.00  0.00    -0.356 OA
HETATM   43  C   UNL     1       5.904  35.131  53.753  1.00  0.00     0.210 C 
ENDBRANCH  37  42
ENDBRANCH   1  34
TORSDOF 9
ENDMDL
MODEL 7
REMARK VINA RESULT:      -9.0      1.994      3.036
REMARK  9 active torsions:
REMARK  status: ('A' for Active; 'I' for Inactive)
REMARK    1  A    between atoms: O_2  and  C_3 
REMARK    2  A    between atoms: C_5  and  O_6 
REMARK    3  A    between atoms: C_8  and  N_9 
REMARK    4  A    between atoms: C_10  and  C_12 
REMARK    5  A    between atoms: C_10  and  O_11 
REMARK       I    between atoms: C_12  and  N_13 
REMARK    6  A    between atoms: N_13  and  C_14 
REMARK    7  A    between atoms: C_14  and  C_15 
REMARK    8  A    between atoms: C_15  and  N_16 
REMARK    9  A    between atoms: N_20  and  C_21 
ROOT
HETATM    1  N   UNL     1       5.838  26.670  55.738  1.00  0.00    -0.251 N 
HETATM    2  C   UNL     1       7.006  26.682  54.851  1.00  0.00     0.256 C 
HETATM    3  C   UNL     1       7.251  25.326  54.201  1.00  0.00     0.034 A 
HETATM    4  C   UNL     1       6.784  24.193  54.866  1.00  0.00     0.048 A 
HETATM    5  N   UNL     1       6.017  24.351  56.014  1.00  0.00    -0.308 N 
HETATM    6  C   UNL     1       5.496  25.531  56.451  1.00  0.00     0.330 C 
HETATM    7  O   UNL     1       4.758  25.518  57.435  1.00  0.00    -0.246 OA
HETATM    8  C   UNL     1       8.003  25.137  53.029  1.00  0.00     0.015 A 
HETATM    9  C   UNL     1       8.276  23.853  52.548  1.00  0.00     0.001 A 
HETATM   10  C   UNL     1       7.813  22.739  53.240  1.00  0.00     0.002 A 
HETATM   11  C   UNL     1       7.066  22.906  54.403  1.00  0.00     0.030 A 
HETATM   12  H   UNL     1       5.676  23.535  56.510  1.00  0.00     0.170 HD
ENDROOT
BRANCH   2  13
HETATM   13  C   UNL     1       6.976  27.832  53.730  1.00  0.00     0.279 C 
HETATM   14  N   UNL     1       6.136  27.788  52.642  1.00  0.00    -0.355 N 
HETATM   15  H   UNL     1       6.389  28.506  51.970  1.00  0.00     0.162 HD
HETATM   16  O   UNL     1       7.679  28.848  53.778  1.00  0.00    -0.268 OA
BRANCH  14  17
HETATM   17  C   UNL     1       5.044  26.891  52.311  1.00  0.00     0.150 C 
BRANCH  17  18
HETATM   18  C   UNL     1       5.065  26.329  50.871  1.00  0.00     0.254 C 
BRANCH  18  19
HETATM   19  N   UNL     1       4.111  27.032  49.902  1.00  0.00    -0.067 N 
HETATM   20  H   UNL     1       3.325  26.408  49.686  1.00  0.00     0.280 HD
HETATM   21  C   UNL     1       3.526  28.279  50.608  1.00  0.00     0.254 C 
HETATM   22  C   UNL     1       2.679  29.148  49.652  1.00  0.00     0.150 C 
HETATM   23  N   UNL     1       3.449  29.501  48.445  1.00  0.00    -0.378 N 
HETATM   24  C   UNL     1       3.854  28.292  47.698  1.00  0.00     0.150 C 
HETATM   25  C   UNL     1       4.778  27.415  48.569  1.00  0.00     0.254 C 
BRANCH  23  26
HETATM   26  C   UNL     1       4.361  30.569  48.480  1.00  0.00     0.030 A 
HETATM   27  C   UNL     1       4.568  31.442  47.399  1.00  0.00     0.029 A 
HETATM   28  C   UNL     1       5.466  32.518  47.468  1.00  0.00     0.002 A 
HETATM   29  C   UNL     1       6.207  32.739  48.620  1.00  0.00     0.000 A 
HETATM   30  C   UNL     1       6.067  31.869  49.690  1.00  0.00     0.002 A 
HETATM   31  C   UNL     1       5.168  30.797  49.612  1.00  0.00     0.029 A 
ENDBRANCH  23  26
ENDBRANCH  18  19
ENDBRANCH  17  18
ENDBRANCH  14  17
ENDBRANCH   2  13
BRANCH   2  32
HETATM   32  O   UNL     1       8.137  26.850  55.718  1.00  0.00    -0.359 OA
HETATM   33  H   UNL     1       7.955  27.704  56.148  1.00  0.00     0.213 HD
ENDBRANCH   2  32
BRANCH   1  34
HETATM   34  C   UNL     1       5.246  27.905  56.143  1.00  0.00     0.076 A 
HETATM   35  C   UNL     1       5.840  28.668  57.168  1.00  0.00     0.098 A 
HETATM   36  C   UNL     1       5.302  29.915  57.495  1.00  0.00     0.075 A 
HETATM   37  C   UNL     1       4.220  30.419  56.771  1.00  0.00     0.070 A 
HETATM   38  C   UNL     1       3.629  29.671  55.756  1.00  0.00     0.039 A 
HETATM   39  C   UNL     1       4.150  28.419  55.432  1.00  0.00     0.035 A 
BRANCH  35  40
HETATM   40  O   UNL     1       6.967  28.137  57.734  1.00  0.00    -0.354 OA
HETATM   41  C   UNL     1       7.929  29.040  58.267  1.00  0.00     0.210 C 
ENDBRANCH  35  40
BRANCH  37  42
HETATM   42  O   UNL     1       3.754  31.658  57.117  1.00  0.00    -0.356 OA
HETATM   43  C   UNL     1       3.082  32.284  56.021  1.00  0.00     0.210 C 
ENDBRANCH  37  42
ENDBRANCH   1  34
TORSDOF 9
ENDMDL
MODEL 8
REMARK VINA RESULT:      -8.9      3.266      9.346
REMARK  9 active torsions:
REMARK  status: ('A' for Active; 'I' for Inactive)
REMARK    1  A    between atoms: O_2  and  C_3 
REMARK    2  A    between atoms: C_5  and  O_6 
REMARK    3  A    between atoms: C_8  and  N_9 
REMARK    4  A    between atoms: C_10  and  C_12 
REMARK    5  A    between atoms: C_10  and  O_11 
REMARK       I    between atoms: C_12  and  N_13 
REMARK    6  A    between atoms: N_13  and  C_14 
REMARK    7  A    between atoms: C_14  and  C_15 
REMARK    8  A    between atoms: C_15  and  N_16 
REMARK    9  A    between atoms: N_20  and  C_21 
ROOT
HETATM    1  N   UNL     1       4.235  30.117  49.899  1.00  0.00    -0.251 N 
HETATM    2  C   UNL     1       4.523  30.089  51.337  1.00  0.00     0.256 C 
HETATM    3  C   UNL     1       4.370  31.460  51.982  1.00  0.00     0.034 A 
HETATM    4  C   UNL     1       4.537  32.583  51.172  1.00  0.00     0.048 A 
HETATM    5  N   UNL     1       4.710  32.409  49.804  1.00  0.00    -0.308 N 
HETATM    6  C   UNL     1       4.528  31.236  49.135  1.00  0.00     0.330 C 
HETATM    7  O   UNL     1       4.625  31.240  47.909  1.00  0.00    -0.246 OA
HETATM    8  C   UNL     1       4.172  31.667  53.359  1.00  0.00     0.015 A 
HETATM    9  C   UNL     1       4.148  32.957  53.897  1.00  0.00     0.001 A 
HETATM   10  C   UNL     1       4.333  34.059  53.069  1.00  0.00     0.002 A 
HETATM   11  C   UNL     1       4.531  33.874  51.703  1.00  0.00     0.030 A 
HETATM   12  H   UNL     1       4.837  33.216  49.205  1.00  0.00     0.170 HD
ENDROOT
BRANCH   2  13
HETATM   13  C   UNL     1       3.683  28.996  52.161  1.00  0.00     0.279 C 
HETATM   14  N   UNL     1       4.276  28.062  52.976  1.00  0.00    -0.355 N 
HETATM   15  H   UNL     1       3.600  27.361  53.265  1.00  0.00     0.162 HD
HETATM   16  O   UNL     1       2.447  28.933  52.146  1.00  0.00    -0.268 OA
BRANCH  14  17
HETATM   17  C   UNL     1       5.652  27.910  53.416  1.00  0.00     0.150 C 
BRANCH  17  18
HETATM   18  C   UNL     1       5.986  28.569  54.775  1.00  0.00     0.254 C 
BRANCH  18  19
HETATM   19  N   UNL     1       6.270  27.579  55.906  1.00  0.00    -0.067 N 
HETATM   20  H   UNL     1       6.015  28.007  56.804  1.00  0.00     0.280 HD
HETATM   21  C   UNL     1       5.362  26.340  55.715  1.00  0.00     0.254 C 
HETATM   22  C   UNL     1       5.694  25.211  56.714  1.00  0.00     0.150 C 
HETATM   23  N   UNL     1       7.127  24.866  56.657  1.00  0.00    -0.378 N 
HETATM   24  C   UNL     1       7.970  26.028  57.009  1.00  0.00     0.150 C 
HETATM   25  C   UNL     1       7.751  27.169  55.994  1.00  0.00     0.254 C 
BRANCH  23  26
HETATM   26  C   UNL     1       7.604  24.008  55.651  1.00  0.00     0.030 A 
HETATM   27  C   UNL     1       6.984  23.871  54.397  1.00  0.00     0.029 A 
HETATM   28  C   UNL     1       7.494  23.028  53.399  1.00  0.00     0.002 A 
HETATM   29  C   UNL     1       8.634  22.273  53.636  1.00  0.00     0.000 A 
HETATM   30  C   UNL     1       9.245  22.344  54.878  1.00  0.00     0.002 A 
HETATM   31  C   UNL     1       8.728  23.189  55.869  1.00  0.00     0.029 A 
ENDBRANCH  23  26
ENDBRANCH  18  19
ENDBRANCH  17  18
ENDBRANCH  14  17
ENDBRANCH   2  13
BRANCH   2  32
HETATM   32  O   UNL     1       5.930  29.825  51.435  1.00  0.00    -0.359 OA
HETATM   33  H   UNL     1       6.030  28.997  50.933  1.00  0.00     0.213 HD
ENDBRANCH   2  32
BRANCH   1  34
HETATM   34  C   UNL     1       3.975  28.895  49.207  1.00  0.00     0.076 A 
HETATM   35  C   UNL     1       2.670  28.600  48.765  1.00  0.00     0.098 A 
HETATM   36  C   UNL     1       2.445  27.444  48.014  1.00  0.00     0.075 A 
HETATM   37  C   UNL     1       3.516  26.622  47.661  1.00  0.00     0.070 A 
HETATM   38  C   UNL     1       4.808  26.908  48.094  1.00  0.00     0.039 A 
HETATM   39  C   UNL     1       5.041  28.052  48.856  1.00  0.00     0.035 A 
BRANCH  35  40
HETATM   40  O   UNL     1       1.711  29.530  49.062  1.00  0.00    -0.354 OA
HETATM   41  C   UNL     1       1.072  30.193  47.977  1.00  0.00     0.210 C 
ENDBRANCH  35  40
BRANCH  37  42
HETATM   42  O   UNL     1       3.239  25.519  46.901  1.00  0.00    -0.356 OA
HETATM   43  C   UNL     1       2.873  24.403  47.719  1.00  0.00     0.210 C 
ENDBRANCH  37  42
ENDBRANCH   1  34
TORSDOF 9
ENDMDL
MODEL 9
REMARK VINA RESULT:      -8.8      6.116     11.151
REMARK  9 active torsions:
REMARK  status: ('A' for Active; 'I' for Inactive)
REMARK    1  A    between atoms: O_2  and  C_3 
REMARK    2  A    between atoms: C_5  and  O_6 
REMARK    3  A    between atoms: C_8  and  N_9 
REMARK    4  A    between atoms: C_10  and  C_12 
REMARK    5  A    between atoms: C_10  and  O_11 
REMARK       I    between atoms: C_12  and  N_13 
REMARK    6  A    between atoms: N_13  and  C_14 
REMARK    7  A    between atoms: C_14  and  C_15 
REMARK    8  A    between atoms: C_15  and  N_16 
REMARK    9  A    between atoms: N_20  and  C_21 
ROOT
HETATM    1  N   UNL     1       3.677  33.631  61.823  1.00  0.00    -0.251 N 
HETATM    2  C   UNL     1       4.894  33.436  62.619  1.00  0.00     0.256 C 
HETATM    3  C   UNL     1       4.748  33.975  64.036  1.00  0.00     0.034 A 
HETATM    4  C   UNL     1       3.829  35.001  64.250  1.00  0.00     0.048 A 
HETATM    5  N   UNL     1       3.006  35.400  63.204  1.00  0.00    -0.308 N 
HETATM    6  C   UNL     1       2.865  34.737  62.022  1.00  0.00     0.330 C 
HETATM    7  O   UNL     1       2.033  35.147  61.214  1.00  0.00    -0.246 OA
HETATM    8  C   UNL     1       5.551  33.576  65.119  1.00  0.00     0.015 A 
HETATM    9  C   UNL     1       5.433  34.191  66.368  1.00  0.00     0.001 A 
HETATM   10  C   UNL     1       4.519  35.224  66.550  1.00  0.00     0.002 A 
HETATM   11  C   UNL     1       3.715  35.633  65.489  1.00  0.00     0.030 A 
HETATM   12  H   UNL     1       2.336  36.148  63.344  1.00  0.00     0.170 HD
ENDROOT
BRANCH   2  13
HETATM   13  C   UNL     1       5.425  31.920  62.658  1.00  0.00     0.279 C 
HETATM   14  N   UNL     1       6.410  31.455  61.820  1.00  0.00    -0.355 N 
HETATM   15  H   UNL     1       6.479  30.444  61.880  1.00  0.00     0.162 HD
HETATM   16  O   UNL     1       5.010  31.074  63.460  1.00  0.00    -0.268 OA
BRANCH  14  17
HETATM   17  C   UNL     1       7.276  32.149  60.883  1.00  0.00     0.150 C 
BRANCH  17  18
HETATM   18  C   UNL     1       8.395  31.284  60.256  1.00  0.00     0.254 C 
BRANCH  18  19
HETATM   19  N   UNL     1       8.291  31.118  58.738  1.00  0.00    -0.067 N 
HETATM   20  H   UNL     1       8.536  32.004  58.282  1.00  0.00     0.280 HD
HETATM   21  C   UNL     1       9.333  30.066  58.287  1.00  0.00     0.254 C 
HETATM   22  C   UNL     1       9.192  29.707  56.792  1.00  0.00     0.150 C 
HETATM   23  N   UNL     1       7.811  29.293  56.481  1.00  0.00    -0.378 N 
HETATM   24  C   UNL     1       6.850  30.379  56.766  1.00  0.00     0.150 C 
HETATM   25  C   UNL     1       6.878  30.731  58.268  1.00  0.00     0.254 C 
BRANCH  23  26
HETATM   26  C   UNL     1       7.393  27.979  56.755  1.00  0.00     0.030 A 
HETATM   27  C   UNL     1       8.273  26.958  57.155  1.00  0.00     0.029 A 
HETATM   28  C   UNL     1       7.828  25.660  57.449  1.00  0.00     0.002 A 
HETATM   29  C   UNL     1       6.484  25.336  57.326  1.00  0.00     0.000 A 
HETATM   30  C   UNL     1       5.594  26.303  56.886  1.00  0.00     0.002 A 
HETATM   31  C   UNL     1       6.048  27.597  56.595  1.00  0.00     0.029 A 
ENDBRANCH  23  26
ENDBRANCH  18  19
ENDBRANCH  17  18
ENDBRANCH  14  17
ENDBRANCH   2  13
BRANCH   2  32
HETATM   32  O   UNL     1       5.875  34.300  62.028  1.00  0.00    -0.359 OA
HETATM   33  H   UNL     1       5.788  34.108  61.077  1.00  0.00     0.213 HD
ENDBRANCH   2  32
BRANCH   1  34
HETATM   34  C   UNL     1       3.495  32.886  60.618  1.00  0.00     0.076 A 
HETATM   35  C   UNL     1       3.939  33.413  59.389  1.00  0.00     0.098 A 
HETATM   36  C   UNL     1       3.835  32.639  58.232  1.00  0.00     0.075 A 
HETATM   37  C   UNL     1       3.345  31.334  58.308  1.00  0.00     0.070 A 
HETATM   38  C   UNL     1       2.904  30.806  59.519  1.00  0.00     0.039 A 
HETATM   39  C   UNL     1       2.992  31.577  60.677  1.00  0.00     0.035 A 
BRANCH  35  40
HETATM   40  O   UNL     1       4.513  34.655  59.443  1.00  0.00    -0.354 OA
HETATM   41  C   UNL     1       4.174  35.586  58.422  1.00  0.00     0.210 C 
ENDBRANCH  35  40
BRANCH  37  42
HETATM   42  O   UNL     1       3.292  30.613  57.146  1.00  0.00    -0.356 OA
HETATM   43  C   UNL     1       3.429  31.462  56.002  1.00  0.00     0.210 C 
ENDBRANCH  37  42
ENDBRANCH   1  34
TORSDOF 9
ENDMDL
MODEL 10
REMARK VINA RESULT:      -8.7      2.379      3.388
REMARK  9 active torsions:
REMARK  status: ('A' for Active; 'I' for Inactive)
REMARK    1  A    between atoms: O_2  and  C_3 
REMARK    2  A    between atoms: C_5  and  O_6 
REMARK    3  A    between atoms: C_8  and  N_9 
REMARK    4  A    between atoms: C_10  and  C_12 
REMARK    5  A    between atoms: C_10  and  O_11 
REMARK       I    between atoms: C_12  and  N_13 
REMARK    6  A    between atoms: N_13  and  C_14 
REMARK    7  A    between atoms: C_14  and  C_15 
REMARK    8  A    between atoms: C_15  and  N_16 
REMARK    9  A    between atoms: N_20  and  C_21 
ROOT
HETATM    1  N   UNL     1       7.009  26.138  55.540  1.00  0.00    -0.251 N 
HETATM    2  C   UNL     1       7.004  25.611  54.172  1.00  0.00     0.256 C 
HETATM    3  C   UNL     1       7.521  24.179  54.103  1.00  0.00     0.034 A 
HETATM    4  C   UNL     1       8.397  23.756  55.102  1.00  0.00     0.048 A 
HETATM    5  N   UNL     1       8.662  24.603  56.172  1.00  0.00    -0.308 N 
HETATM    6  C   UNL     1       7.980  25.749  56.450  1.00  0.00     0.330 C 
HETATM    7  O   UNL     1       8.257  26.360  57.481  1.00  0.00    -0.246 OA
HETATM    8  C   UNL     1       7.251  23.292  53.046  1.00  0.00     0.015 A 
HETATM    9  C   UNL     1       7.847  22.029  52.998  1.00  0.00     0.001 A 
HETATM   10  C   UNL     1       8.730  21.637  53.998  1.00  0.00     0.002 A 
HETATM   11  C   UNL     1       9.009  22.502  55.053  1.00  0.00     0.030 A 
HETATM   12  H   UNL     1       9.300  24.309  56.902  1.00  0.00     0.170 HD
ENDROOT
BRANCH   2  13
HETATM   13  C   UNL     1       5.586  25.720  53.424  1.00  0.00     0.279 C 
HETATM   14  N   UNL     1       5.263  26.766  52.593  1.00  0.00    -0.355 N 
HETATM   15  H   UNL     1       4.274  26.744  52.362  1.00  0.00     0.162 HD
HETATM   16  O   UNL     1       4.699  24.863  53.517  1.00  0.00    -0.268 OA
BRANCH  14  17
HETATM   17  C   UNL     1       6.065  27.859  52.072  1.00  0.00     0.150 C 
BRANCH  17  18
HETATM   18  C   UNL     1       5.383  29.247  52.095  1.00  0.00     0.254 C 
BRANCH  18  19
HETATM   19  N   UNL     1       4.679  29.629  50.791  1.00  0.00    -0.067 N 
HETATM   20  H   UNL     1       4.025  28.882  50.527  1.00  0.00     0.280 HD
HETATM   21  C   UNL     1       3.840  30.905  51.041  1.00  0.00     0.254 C 
HETATM   22  C   UNL     1       3.224  31.464  49.740  1.00  0.00     0.150 C 
HETATM   23  N   UNL     1       4.264  31.672  48.715  1.00  0.00    -0.378 N 
HETATM   24  C   UNL     1       4.938  30.402  48.373  1.00  0.00     0.150 C 
HETATM   25  C   UNL     1       5.652  29.829  49.615  1.00  0.00     0.254 C 
BRANCH  23  26
HETATM   26  C   UNL     1       5.058  32.832  48.744  1.00  0.00     0.030 A 
HETATM   27  C   UNL     1       6.410  32.851  48.361  1.00  0.00     0.029 A 
HETATM   28  C   UNL     1       7.174  34.027  48.373  1.00  0.00     0.002 A 
HETATM   29  C   UNL     1       6.611  35.223  48.796  1.00  0.00     0.000 A 
HETATM   30  C   UNL     1       5.295  35.234  49.229  1.00  0.00     0.002 A 
HETATM   31  C   UNL     1       4.539  34.054  49.214  1.00  0.00     0.029 A 
ENDBRANCH  23  26
ENDBRANCH  18  19
ENDBRANCH  17  18
ENDBRANCH  14  17
ENDBRANCH   2  13
BRANCH   2  32
HETATM   32  O   UNL     1       8.004  26.364  53.471  1.00  0.00    -0.359 OA
HETATM   33  H   UNL     1       8.773  26.308  54.066  1.00  0.00     0.213 HD
ENDBRANCH   2  32
BRANCH   1  34
HETATM   34  C   UNL     1       6.240  27.301  55.851  1.00  0.00     0.076 A 
HETATM   35  C   UNL     1       6.752  28.582  55.564  1.00  0.00     0.098 A 
HETATM   36  C   UNL     1       5.956  29.707  55.792  1.00  0.00     0.075 A 
HETATM   37  C   UNL     1       4.646  29.552  56.248  1.00  0.00     0.070 A 
HETATM   38  C   UNL     1       4.134  28.290  56.534  1.00  0.00     0.039 A 
HETATM   39  C   UNL     1       4.926  27.162  56.323  1.00  0.00     0.035 A 
BRANCH  35  40
HETATM   40  O   UNL     1       8.003  28.617  55.007  1.00  0.00    -0.354 OA
HETATM   41  C   UNL     1       9.032  29.282  55.731  1.00  0.00     0.210 C 
ENDBRANCH  35  40
BRANCH  37  42
HETATM   42  O   UNL     1       3.904  30.688  56.427  1.00  0.00    -0.356 OA
HETATM   43  C   UNL     1       4.678  31.861  56.159  1.00  0.00     0.210 C 
ENDBRANCH  37  42
ENDBRANCH   1  34
TORSDOF 9
ENDMDL
