MODEL 1
REMARK VINA RESULT:      -9.8      0.000      0.000
REMARK  8 active torsions:
REMARK  status: ('A' for Active; 'I' for Inactive)
REMARK    1  A    between atoms: O_2  and  C_3 
REMARK    2  A    between atoms: C_5  and  N_6 
REMARK       I    between atoms: N_6  and  C_7 
REMARK    3  A    between atoms: C_7  and  C_8 
REMARK    4  A    between atoms: C_8  and  N_9 
REMARK    5  A    between atoms: C_8  and  C_25 
REMARK    6  A    between atoms: N_9  and  C_12 
REMARK    7  A    between atoms: C_12  and  C_13 
REMARK    8  A    between atoms: C_16  and  N_17 
ROOT
HETATM    1  C   UNL     1       7.484  28.492  56.142  1.00  0.00     0.310 C 
ENDROOT
BRANCH   1   2
HETATM    2  C   UNL     1       6.422  29.198  55.276  1.00  0.00     0.257 C 
HETATM    3  N   UNL     1       5.929  28.725  54.104  1.00  0.00    -0.325 N 
HETATM    4  H   UNL     1       5.177  29.320  53.762  1.00  0.00     0.169 HD
HETATM    5  O   UNL     1       5.927  30.245  55.730  1.00  0.00    -0.270 OA
BRANCH   3   6
HETATM    6  C   UNL     1       6.222  27.622  53.282  1.00  0.00     0.037 A 
HETATM    7  C   UNL     1       5.446  27.165  52.220  1.00  0.00     0.066 A 
HETATM    8  C   UNL     1       5.825  26.044  51.466  1.00  0.00     0.070 A 
HETATM    9  C   UNL     1       7.002  25.369  51.773  1.00  0.00     0.037 A 
HETATM   10  C   UNL     1       7.784  25.805  52.841  1.00  0.00     0.005 A 
HETATM   11  C   UNL     1       7.394  26.916  53.591  1.00  0.00     0.029 A 
BRANCH   8  12
HETATM   12  O   UNL     1       4.955  25.724  50.460  1.00  0.00    -0.356 OA
HETATM   13  C   UNL     1       4.508  26.794  49.634  1.00  0.00     0.210 C 
ENDBRANCH   8  12
ENDBRANCH   3   6
ENDBRANCH   1   2
BRANCH   1  14
HETATM   14  N   UNL     1       6.772  27.723  57.242  1.00  0.00    -0.054 N 
HETATM   15  H   UNL     1       6.259  28.372  57.849  1.00  0.00     0.278 HD
HETATM   16  H   UNL     1       6.050  27.161  56.764  1.00  0.00     0.278 HD
BRANCH  14  17
HETATM   17  C   UNL     1       7.588  26.795  58.060  1.00  0.00     0.272 C 
BRANCH  17  18
HETATM   18  C   UNL     1       7.669  25.476  57.346  1.00  0.00    -0.033 A 
HETATM   19  C   UNL     1       8.878  24.777  57.290  1.00  0.00     0.011 A 
HETATM   20  C   UNL     1       9.006  23.647  56.473  1.00  0.00     0.030 A 
HETATM   21  C   UNL     1       7.945  23.188  55.685  1.00  0.00     0.037 A 
HETATM   22  C   UNL     1       6.722  23.866  55.791  1.00  0.00     0.030 A 
HETATM   23  C   UNL     1       6.584  24.998  56.605  1.00  0.00     0.011 A 
BRANCH  21  24
HETATM   24  N   UNL     1       8.095  22.097  54.786  1.00  0.00    -0.318 N 
HETATM   25  C   UNL     1       8.445  20.780  55.136  1.00  0.00     0.224 C 
HETATM   26  O   UNL     1       8.626  20.302  56.245  1.00  0.00    -0.273 OA
HETATM   27  C   UNL     1       8.673  20.005  53.860  1.00  0.00     0.105 C 
HETATM   28  C   UNL     1       7.987  20.852  52.808  1.00  0.00     0.029 C 
HETATM   29  C   UNL     1       8.116  22.260  53.350  1.00  0.00     0.133 C 
ENDBRANCH  21  24
ENDBRANCH  17  18
ENDBRANCH  14  17
ENDBRANCH   1  14
BRANCH   1  30
HETATM   30  C   UNL     1       8.449  29.439  56.837  1.00  0.00    -0.019 A 
HETATM   31  C   UNL     1       9.788  29.495  56.405  1.00  0.00     0.010 A 
HETATM   32  C   UNL     1      10.720  30.285  57.079  1.00  0.00     0.001 A 
HETATM   33  C   UNL     1      10.335  31.013  58.200  1.00  0.00     0.000 A 
HETATM   34  C   UNL     1       9.019  30.956  58.649  1.00  0.00     0.001 A 
HETATM   35  C   UNL     1       8.080  30.170  57.979  1.00  0.00     0.010 A 
ENDBRANCH   1  30
TORSDOF 8
ENDMDL
MODEL 2
REMARK VINA RESULT:      -9.5      2.085      7.663
REMARK  8 active torsions:
REMARK  status: ('A' for Active; 'I' for Inactive)
REMARK    1  A    between atoms: O_2  and  C_3 
REMARK    2  A    between atoms: C_5  and  N_6 
REMARK       I    between atoms: N_6  and  C_7 
REMARK    3  A    between atoms: C_7  and  C_8 
REMARK    4  A    between atoms: C_8  and  N_9 
REMARK    5  A    between atoms: C_8  and  C_25 
REMARK    6  A    between atoms: N_9  and  C_12 
REMARK    7  A    between atoms: C_12  and  C_13 
REMARK    8  A    between atoms: C_16  and  N_17 
ROOT
HETATM    1  C   UNL     1       6.573  27.178  53.468  1.00  0.00     0.310 C 
ENDROOT
BRANCH   1   2
HETATM    2  C   UNL     1       5.675  26.582  54.571  1.00  0.00     0.257 C 
HETATM    3  N   UNL     1       5.905  25.412  55.217  1.00  0.00    -0.325 N 
HETATM    4  H   UNL     1       5.225  25.271  55.962  1.00  0.00     0.169 HD
HETATM    5  O   UNL     1       4.709  27.269  54.945  1.00  0.00    -0.270 OA
BRANCH   3   6
HETATM    6  C   UNL     1       6.851  24.378  55.086  1.00  0.00     0.037 A 
HETATM    7  C   UNL     1       6.991  23.533  53.989  1.00  0.00     0.066 A 
HETATM    8  C   UNL     1       7.965  22.523  53.964  1.00  0.00     0.070 A 
HETATM    9  C   UNL     1       8.818  22.357  55.050  1.00  0.00     0.037 A 
HETATM   10  C   UNL     1       8.683  23.186  56.162  1.00  0.00     0.005 A 
HETATM   11  C   UNL     1       7.705  24.182  56.181  1.00  0.00     0.029 A 
BRANCH   8  12
HETATM   12  O   UNL     1       7.971  21.778  52.816  1.00  0.00    -0.356 OA
HETATM   13  C   UNL     1       8.297  20.398  52.949  1.00  0.00     0.210 C 
ENDBRANCH   8  12
ENDBRANCH   3   6
ENDBRANCH   1   2
BRANCH   1  14
HETATM   14  N   UNL     1       7.108  28.514  53.955  1.00  0.00    -0.054 N 
HETATM   15  H   UNL     1       7.005  29.223  53.220  1.00  0.00     0.278 HD
HETATM   16  H   UNL     1       6.472  28.807  54.714  1.00  0.00     0.278 HD
BRANCH  14  17
HETATM   17  C   UNL     1       8.488  28.538  54.496  1.00  0.00     0.272 C 
BRANCH  17  18
HETATM   18  C   UNL     1       8.429  28.987  55.929  1.00  0.00    -0.033 A 
HETATM   19  C   UNL     1       7.197  29.180  56.558  1.00  0.00     0.011 A 
HETATM   20  C   UNL     1       7.133  29.774  57.824  1.00  0.00     0.030 A 
HETATM   21  C   UNL     1       8.286  30.201  58.493  1.00  0.00     0.037 A 
HETATM   22  C   UNL     1       9.520  29.953  57.874  1.00  0.00     0.030 A 
HETATM   23  C   UNL     1       9.594  29.360  56.608  1.00  0.00     0.011 A 
BRANCH  21  24
HETATM   24  N   UNL     1       8.222  30.886  59.737  1.00  0.00    -0.318 N 
HETATM   25  C   UNL     1       7.475  32.049  60.002  1.00  0.00     0.224 C 
HETATM   26  O   UNL     1       6.709  32.654  59.269  1.00  0.00    -0.273 OA
HETATM   27  C   UNL     1       7.845  32.533  61.384  1.00  0.00     0.105 C 
HETATM   28  C   UNL     1       8.489  31.318  62.021  1.00  0.00     0.029 C 
HETATM   29  C   UNL     1       9.101  30.587  60.845  1.00  0.00     0.133 C 
ENDBRANCH  21  24
ENDBRANCH  17  18
ENDBRANCH  14  17
ENDBRANCH   1  14
BRANCH   1  30
HETATM   30  C   UNL     1       5.850  27.457  52.161  1.00  0.00    -0.019 A 
HETATM   31  C   UNL     1       5.458  26.377  51.347  1.00  0.00     0.010 A 
HETATM   32  C   UNL     1       4.875  26.599  50.100  1.00  0.00     0.001 A 
HETATM   33  C   UNL     1       4.690  27.900  49.640  1.00  0.00     0.000 A 
HETATM   34  C   UNL     1       5.087  28.979  50.425  1.00  0.00     0.001 A 
HETATM   35  C   UNL     1       5.669  28.763  51.675  1.00  0.00     0.010 A 
ENDBRANCH   1  30
TORSDOF 8
ENDMDL
MODEL 3
REMARK VINA RESULT:      -9.4      1.782      2.686
REMARK  8 active torsions:
REMARK  status: ('A' for Active; 'I' for Inactive)
REMARK    1  A    between atoms: O_2  and  C_3 
REMARK    2  A    between atoms: C_5  and  N_6 
REMARK       I    between atoms: N_6  and  C_7 
REMARK    3  A    between atoms: C_7  and  C_8 
REMARK    4  A    between atoms: C_8  and  N_9 
REMARK    5  A    between atoms: C_8  and  C_25 
REMARK    6  A    between atoms: N_9  and  C_12 
REMARK    7  A    between atoms: C_12  and  C_13 
REMARK    8  A    between atoms: C_16  and  N_17 
ROOT
HETATM    1  C   UNL     1       8.966  28.800  57.175  1.00  0.00     0.310 C 
ENDROOT
BRANCH   1   2
HETATM    2  C   UNL     1       9.365  29.267  55.761  1.00  0.00     0.257 C 
HETATM    3  N   UNL     1       8.648  29.041  54.632  1.00  0.00    -0.325 N 
HETATM    4  H   UNL     1       9.067  29.519  53.837  1.00  0.00     0.169 HD
HETATM    5  O   UNL     1      10.387  29.969  55.666  1.00  0.00    -0.270 OA
BRANCH   3   6
HETATM    6  C   UNL     1       7.485  28.310  54.329  1.00  0.00     0.037 A 
HETATM    7  C   UNL     1       6.187  28.651  54.697  1.00  0.00     0.066 A 
HETATM    8  C   UNL     1       5.093  27.843  54.351  1.00  0.00     0.070 A 
HETATM    9  C   UNL     1       5.297  26.678  53.618  1.00  0.00     0.037 A 
HETATM   10  C   UNL     1       6.591  26.316  53.252  1.00  0.00     0.005 A 
HETATM   11  C   UNL     1       7.674  27.121  53.609  1.00  0.00     0.029 A 
BRANCH   8  12
HETATM   12  O   UNL     1       3.885  28.315  54.790  1.00  0.00    -0.356 OA
HETATM   13  C   UNL     1       3.892  29.065  56.000  1.00  0.00     0.210 C 
ENDBRANCH   8  12
ENDBRANCH   3   6
ENDBRANCH   1   2
BRANCH   1  14
HETATM   14  N   UNL     1       7.747  27.900  57.057  1.00  0.00    -0.054 N 
HETATM   15  H   UNL     1       6.892  28.467  57.029  1.00  0.00     0.278 HD
HETATM   16  H   UNL     1       7.818  27.459  56.125  1.00  0.00     0.278 HD
BRANCH  14  17
HETATM   17  C   UNL     1       7.605  26.812  58.054  1.00  0.00     0.272 C 
BRANCH  17  18
HETATM   18  C   UNL     1       7.706  25.495  57.339  1.00  0.00    -0.033 A 
HETATM   19  C   UNL     1       8.938  24.846  57.225  1.00  0.00     0.011 A 
HETATM   20  C   UNL     1       9.073  23.719  56.406  1.00  0.00     0.030 A 
HETATM   21  C   UNL     1       7.994  23.214  55.670  1.00  0.00     0.037 A 
HETATM   22  C   UNL     1       6.751  23.842  55.835  1.00  0.00     0.030 A 
HETATM   23  C   UNL     1       6.606  24.970  56.652  1.00  0.00     0.011 A 
BRANCH  21  24
HETATM   24  N   UNL     1       8.146  22.126  54.767  1.00  0.00    -0.318 N 
HETATM   25  C   UNL     1       8.089  22.204  53.364  1.00  0.00     0.224 C 
HETATM   26  O   UNL     1       7.964  23.188  52.653  1.00  0.00    -0.273 OA
HETATM   27  C   UNL     1       8.113  20.795  52.820  1.00  0.00     0.105 C 
HETATM   28  C   UNL     1       8.643  19.979  53.983  1.00  0.00     0.029 C 
HETATM   29  C   UNL     1       8.166  20.746  55.197  1.00  0.00     0.133 C 
ENDBRANCH  21  24
ENDBRANCH  17  18
ENDBRANCH  14  17
ENDBRANCH   1  14
BRANCH   1  30
HETATM   30  C   UNL     1       8.575  29.927  58.115  1.00  0.00    -0.019 A 
HETATM   31  C   UNL     1       7.263  30.435  58.074  1.00  0.00     0.010 A 
HETATM   32  C   UNL     1       6.897  31.529  58.858  1.00  0.00     0.001 A 
HETATM   33  C   UNL     1       7.838  32.143  59.679  1.00  0.00     0.000 A 
HETATM   34  C   UNL     1       9.144  31.664  59.719  1.00  0.00     0.001 A 
HETATM   35  C   UNL     1       9.516  30.568  58.940  1.00  0.00     0.010 A 
ENDBRANCH   1  30
TORSDOF 8
ENDMDL
MODEL 4
REMARK VINA RESULT:      -9.2      2.785      6.389
REMARK  8 active torsions:
REMARK  status: ('A' for Active; 'I' for Inactive)
REMARK    1  A    between atoms: O_2  and  C_3 
REMARK    2  A    between atoms: C_5  and  N_6 
REMARK       I    between atoms: N_6  and  C_7 
REMARK    3  A    between atoms: C_7  and  C_8 
REMARK    4  A    between atoms: C_8  and  N_9 
REMARK    5  A    between atoms: C_8  and  C_25 
REMARK    6  A    between atoms: N_9  and  C_12 
REMARK    7  A    between atoms: C_12  and  C_13 
REMARK    8  A    between atoms: C_16  and  N_17 
ROOT
HETATM    1  C   UNL     1       7.506  29.456  57.974  1.00  0.00     0.310 C 
ENDROOT
BRANCH   1   2
HETATM    2  C   UNL     1       8.864  30.185  58.006  1.00  0.00     0.257 C 
HETATM    3  N   UNL     1       9.343  30.898  59.056  1.00  0.00    -0.325 N 
HETATM    4  H   UNL     1      10.294  31.212  58.875  1.00  0.00     0.169 HD
HETATM    5  O   UNL     1       9.605  30.041  57.019  1.00  0.00    -0.270 OA
BRANCH   3   6
HETATM    6  C   UNL     1       8.826  31.289  60.305  1.00  0.00     0.037 A 
HETATM    7  C   UNL     1       8.023  32.400  60.546  1.00  0.00     0.066 A 
HETATM    8  C   UNL     1       7.568  32.707  61.837  1.00  0.00     0.070 A 
HETATM    9  C   UNL     1       7.914  31.887  62.907  1.00  0.00     0.037 A 
HETATM   10  C   UNL     1       8.727  30.778  62.685  1.00  0.00     0.005 A 
HETATM   11  C   UNL     1       9.183  30.486  61.398  1.00  0.00     0.029 A 
BRANCH   8  12
HETATM   12  O   UNL     1       6.792  33.832  61.906  1.00  0.00    -0.356 OA
HETATM   13  C   UNL     1       5.478  33.739  61.364  1.00  0.00     0.210 C 
ENDBRANCH   8  12
ENDBRANCH   3   6
ENDBRANCH   1   2
BRANCH   1  14
HETATM   14  N   UNL     1       7.669  28.173  57.177  1.00  0.00    -0.054 N 
HETATM   15  H   UNL     1       7.219  28.270  56.259  1.00  0.00     0.278 HD
HETATM   16  H   UNL     1       8.680  28.094  56.983  1.00  0.00     0.278 HD
BRANCH  14  17
HETATM   17  C   UNL     1       7.240  26.911  57.824  1.00  0.00     0.272 C 
BRANCH  17  18
HETATM   18  C   UNL     1       7.567  25.769  56.904  1.00  0.00    -0.033 A 
HETATM   19  C   UNL     1       6.660  25.378  55.915  1.00  0.00     0.011 A 
HETATM   20  C   UNL     1       6.874  24.204  55.181  1.00  0.00     0.030 A 
HETATM   21  C   UNL     1       7.985  23.385  55.416  1.00  0.00     0.037 A 
HETATM   22  C   UNL     1       8.915  23.817  56.373  1.00  0.00     0.030 A 
HETATM   23  C   UNL     1       8.709  24.989  57.112  1.00  0.00     0.011 A 
BRANCH  21  24
HETATM   24  N   UNL     1       8.161  22.148  54.738  1.00  0.00    -0.318 N 
HETATM   25  C   UNL     1       8.302  20.887  55.345  1.00  0.00     0.224 C 
HETATM   26  O   UNL     1       8.245  20.592  56.529  1.00  0.00    -0.273 OA
HETATM   27  C   UNL     1       8.650  19.889  54.266  1.00  0.00     0.105 C 
HETATM   28  C   UNL     1       8.242  20.596  52.989  1.00  0.00     0.029 C 
HETATM   29  C   UNL     1       8.434  22.061  53.321  1.00  0.00     0.133 C 
ENDBRANCH  21  24
ENDBRANCH  17  18
ENDBRANCH  14  17
ENDBRANCH   1  14
BRANCH   1  30
HETATM   30  C   UNL     1       6.394  30.241  57.300  1.00  0.00    -0.019 A 
HETATM   31  C   UNL     1       5.885  29.793  56.066  1.00  0.00     0.010 A 
HETATM   32  C   UNL     1       4.929  30.539  55.377  1.00  0.00     0.001 A 
HETATM   33  C   UNL     1       4.481  31.749  55.898  1.00  0.00     0.000 A 
HETATM   34  C   UNL     1       4.985  32.214  57.109  1.00  0.00     0.001 A 
HETATM   35  C   UNL     1       5.940  31.472  57.806  1.00  0.00     0.010 A 
ENDBRANCH   1  30
TORSDOF 8
ENDMDL
MODEL 5
REMARK VINA RESULT:      -9.2      2.598      7.165
REMARK  8 active torsions:
REMARK  status: ('A' for Active; 'I' for Inactive)
REMARK    1  A    between atoms: O_2  and  C_3 
REMARK    2  A    between atoms: C_5  and  N_6 
REMARK       I    between atoms: N_6  and  C_7 
REMARK    3  A    between atoms: C_7  and  C_8 
REMARK    4  A    between atoms: C_8  and  N_9 
REMARK    5  A    between atoms: C_8  and  C_25 
REMARK    6  A    between atoms: N_9  and  C_12 
REMARK    7  A    between atoms: C_12  and  C_13 
REMARK    8  A    between atoms: C_16  and  N_17 
ROOT
HETATM    1  C   UNL     1       6.899  26.866  55.527  1.00  0.00     0.310 C 
ENDROOT
BRANCH   1   2
HETATM    2  C   UNL     1       5.367  27.031  55.600  1.00  0.00     0.257 C 
HETATM    3  N   UNL     1       4.520  26.937  54.545  1.00  0.00    -0.325 N 
HETATM    4  H   UNL     1       3.552  26.994  54.854  1.00  0.00     0.169 HD
HETATM    5  O   UNL     1       4.869  27.185  56.729  1.00  0.00    -0.270 OA
BRANCH   3   6
HETATM    6  C   UNL     1       4.684  26.782  53.156  1.00  0.00     0.037 A 
HETATM    7  C   UNL     1       4.966  27.799  52.248  1.00  0.00     0.066 A 
HETATM    8  C   UNL     1       5.099  27.538  50.876  1.00  0.00     0.070 A 
HETATM    9  C   UNL     1       4.954  26.238  50.401  1.00  0.00     0.037 A 
HETATM   10  C   UNL     1       4.660  25.211  51.294  1.00  0.00     0.005 A 
HETATM   11  C   UNL     1       4.520  25.482  52.657  1.00  0.00     0.029 A 
BRANCH   8  12
HETATM   12  O   UNL     1       5.374  28.644  50.119  1.00  0.00    -0.356 OA
HETATM   13  C   UNL     1       5.322  29.904  50.781  1.00  0.00     0.210 C 
ENDBRANCH   8  12
ENDBRANCH   3   6
ENDBRANCH   1   2
BRANCH   1  14
HETATM   14  N   UNL     1       7.493  28.151  54.977  1.00  0.00    -0.054 N 
HETATM   15  H   UNL     1       7.489  28.130  53.951  1.00  0.00     0.278 HD
HETATM   16  H   UNL     1       6.830  28.898  55.241  1.00  0.00     0.278 HD
BRANCH  14  17
HETATM   17  C   UNL     1       8.832  28.549  55.474  1.00  0.00     0.272 C 
BRANCH  17  18
HETATM   18  C   UNL     1       8.651  29.427  56.679  1.00  0.00    -0.033 A 
HETATM   19  C   UNL     1       9.756  29.812  57.443  1.00  0.00     0.011 A 
HETATM   20  C   UNL     1       9.577  30.471  58.666  1.00  0.00     0.030 A 
HETATM   21  C   UNL     1       8.300  30.755  59.166  1.00  0.00     0.037 A 
HETATM   22  C   UNL     1       7.202  30.411  58.364  1.00  0.00     0.030 A 
HETATM   23  C   UNL     1       7.371  29.752  57.140  1.00  0.00     0.011 A 
BRANCH  21  24
HETATM   24  N   UNL     1       8.110  31.341  60.447  1.00  0.00    -0.318 N 
HETATM   25  C   UNL     1       8.656  30.877  61.657  1.00  0.00     0.224 C 
HETATM   26  O   UNL     1       9.425  29.948  61.847  1.00  0.00    -0.273 OA
HETATM   27  C   UNL     1       8.047  31.683  62.780  1.00  0.00     0.105 C 
HETATM   28  C   UNL     1       7.491  32.903  62.075  1.00  0.00     0.029 C 
HETATM   29  C   UNL     1       7.140  32.384  60.697  1.00  0.00     0.133 C 
ENDBRANCH  21  24
ENDBRANCH  17  18
ENDBRANCH  14  17
ENDBRANCH   1  14
BRANCH   1  30
HETATM   30  C   UNL     1       7.361  25.751  54.605  1.00  0.00    -0.019 A 
HETATM   31  C   UNL     1       7.849  26.075  53.324  1.00  0.00     0.010 A 
HETATM   32  C   UNL     1       8.196  25.072  52.420  1.00  0.00     0.001 A 
HETATM   33  C   UNL     1       8.044  23.734  52.771  1.00  0.00     0.000 A 
HETATM   34  C   UNL     1       7.547  23.396  54.027  1.00  0.00     0.001 A 
HETATM   35  C   UNL     1       7.201  24.395  54.938  1.00  0.00     0.010 A 
ENDBRANCH   1  30
TORSDOF 8
ENDMDL
MODEL 6
REMARK VINA RESULT:      -9.2      2.294      6.088
REMARK  8 active torsions:
REMARK  status: ('A' for Active; 'I' for Inactive)
REMARK    1  A    between atoms: O_2  and  C_3 
REMARK    2  A    between atoms: C_5  and  N_6 
REMARK       I    between atoms: N_6  and  C_7 
REMARK    3  A    between atoms: C_7  and  C_8 
REMARK    4  A    between atoms: C_8  and  N_9 
REMARK    5  A    between atoms: C_8  and  C_25 
REMARK    6  A    between atoms: N_9  and  C_12 
REMARK    7  A    between atoms: C_12  and  C_13 
REMARK    8  A    between atoms: C_16  and  N_17 
ROOT
HETATM    1  C   UNL     1       7.832  29.030  57.139  1.00  0.00     0.310 C 
ENDROOT
BRANCH   1   2
HETATM    2  C   UNL     1       8.998  30.038  57.103  1.00  0.00     0.257 C 
HETATM    3  N   UNL     1       9.299  30.919  58.089  1.00  0.00    -0.325 N 
HETATM    4  H   UNL     1      10.161  31.418  57.877  1.00  0.00     0.169 HD
HETATM    5  O   UNL     1       9.763  29.982  56.125  1.00  0.00    -0.270 OA
BRANCH   3   6
HETATM    6  C   UNL     1       8.696  31.284  59.307  1.00  0.00     0.037 A 
HETATM    7  C   UNL     1       7.425  31.831  59.458  1.00  0.00     0.066 A 
HETATM    8  C   UNL     1       6.921  32.171  60.723  1.00  0.00     0.070 A 
HETATM    9  C   UNL     1       7.697  31.957  61.858  1.00  0.00     0.037 A 
HETATM   10  C   UNL     1       8.976  31.423  61.723  1.00  0.00     0.005 A 
HETATM   11  C   UNL     1       9.473  31.096  60.460  1.00  0.00     0.029 A 
BRANCH   8  12
HETATM   12  O   UNL     1       5.659  32.699  60.701  1.00  0.00    -0.356 OA
HETATM   13  C   UNL     1       4.888  32.568  61.891  1.00  0.00     0.210 C 
ENDBRANCH   8  12
ENDBRANCH   3   6
ENDBRANCH   1   2
BRANCH   1  14
HETATM   14  N   UNL     1       8.410  27.634  57.297  1.00  0.00    -0.054 N 
HETATM   15  H   UNL     1       8.689  27.263  56.381  1.00  0.00     0.278 HD
HETATM   16  H   UNL     1       9.288  27.756  57.826  1.00  0.00     0.278 HD
BRANCH  14  17
HETATM   17  C   UNL     1       7.588  26.635  58.022  1.00  0.00     0.272 C 
BRANCH  17  18
HETATM   18  C   UNL     1       7.660  25.331  57.281  1.00  0.00    -0.033 A 
HETATM   19  C   UNL     1       8.801  24.529  57.373  1.00  0.00     0.011 A 
HETATM   20  C   UNL     1       8.950  23.410  56.544  1.00  0.00     0.030 A 
HETATM   21  C   UNL     1       7.979  23.065  55.596  1.00  0.00     0.037 A 
HETATM   22  C   UNL     1       6.815  23.847  55.551  1.00  0.00     0.030 A 
HETATM   23  C   UNL     1       6.657  24.967  56.376  1.00  0.00     0.011 A 
BRANCH  21  24
HETATM   24  N   UNL     1       8.166  21.986  54.691  1.00  0.00    -0.318 N 
HETATM   25  C   UNL     1       8.074  22.058  53.289  1.00  0.00     0.224 C 
HETATM   26  O   UNL     1       7.884  23.034  52.580  1.00  0.00    -0.273 OA
HETATM   27  C   UNL     1       8.158  20.651  52.745  1.00  0.00     0.105 C 
HETATM   28  C   UNL     1       8.753  19.865  53.896  1.00  0.00     0.029 C 
HETATM   29  C   UNL     1       8.264  20.609  55.120  1.00  0.00     0.133 C 
ENDBRANCH  21  24
ENDBRANCH  17  18
ENDBRANCH  14  17
ENDBRANCH   1  14
BRANCH   1  30
HETATM   30  C   UNL     1       6.992  29.005  55.873  1.00  0.00    -0.019 A 
HETATM   31  C   UNL     1       5.761  29.687  55.850  1.00  0.00     0.010 A 
HETATM   32  C   UNL     1       4.924  29.610  54.737  1.00  0.00     0.001 A 
HETATM   33  C   UNL     1       5.294  28.838  53.640  1.00  0.00     0.000 A 
HETATM   34  C   UNL     1       6.500  28.144  53.653  1.00  0.00     0.001 A 
HETATM   35  C   UNL     1       7.344  28.219  54.762  1.00  0.00     0.010 A 
ENDBRANCH   1  30
TORSDOF 8
ENDMDL
MODEL 7
REMARK VINA RESULT:      -9.1      2.362      7.830
REMARK  8 active torsions:
REMARK  status: ('A' for Active; 'I' for Inactive)
REMARK    1  A    between atoms: O_2  and  C_3 
REMARK    2  A    between atoms: C_5  and  N_6 
REMARK       I    between atoms: N_6  and  C_7 
REMARK    3  A    between atoms: C_7  and  C_8 
REMARK    4  A    between atoms: C_8  and  N_9 
REMARK    5  A    between atoms: C_8  and  C_25 
REMARK    6  A    between atoms: N_9  and  C_12 
REMARK    7  A    between atoms: C_12  and  C_13 
REMARK    8  A    between atoms: C_16  and  N_17 
ROOT
HETATM    1  C   UNL     1       7.426  25.936  55.225  1.00  0.00     0.310 C 
ENDROOT
BRANCH   1   2
HETATM    2  C   UNL     1       6.762  25.998  56.615  1.00  0.00     0.257 C 
HETATM    3  N   UNL     1       6.933  26.995  57.518  1.00  0.00    -0.325 N 
HETATM    4  H   UNL     1       6.326  26.860  58.325  1.00  0.00     0.169 HD
HETATM    5  O   UNL     1       5.949  25.100  56.893  1.00  0.00    -0.270 OA
BRANCH   3   6
HETATM    6  C   UNL     1       7.744  28.143  57.583  1.00  0.00     0.037 A 
HETATM    7  C   UNL     1       7.362  29.387  58.077  1.00  0.00     0.066 A 
HETATM    8  C   UNL     1       8.249  30.474  58.086  1.00  0.00     0.070 A 
HETATM    9  C   UNL     1       9.543  30.317  57.600  1.00  0.00     0.037 A 
HETATM   10  C   UNL     1       9.938  29.082  57.090  1.00  0.00     0.005 A 
HETATM   11  C   UNL     1       9.045  28.008  57.077  1.00  0.00     0.029 A 
BRANCH   8  12
HETATM   12  O   UNL     1       7.719  31.626  58.602  1.00  0.00    -0.356 OA
HETATM   13  C   UNL     1       6.304  31.768  58.532  1.00  0.00     0.210 C 
ENDBRANCH   8  12
ENDBRANCH   3   6
ENDBRANCH   1   2
BRANCH   1  14
HETATM   14  N   UNL     1       6.416  26.401  54.190  1.00  0.00    -0.054 N 
HETATM   15  H   UNL     1       6.172  25.627  53.562  1.00  0.00     0.278 HD
HETATM   16  H   UNL     1       5.553  26.610  54.719  1.00  0.00     0.278 HD
BRANCH  14  17
HETATM   17  C   UNL     1       6.757  27.609  53.401  1.00  0.00     0.272 C 
BRANCH  17  18
HETATM   18  C   UNL     1       5.956  27.590  52.130  1.00  0.00    -0.033 A 
HETATM   19  C   UNL     1       5.330  28.753  51.673  1.00  0.00     0.011 A 
HETATM   20  C   UNL     1       4.435  28.700  50.598  1.00  0.00     0.030 A 
HETATM   21  C   UNL     1       4.128  27.493  49.958  1.00  0.00     0.037 A 
HETATM   22  C   UNL     1       4.803  26.343  50.392  1.00  0.00     0.030 A 
HETATM   23  C   UNL     1       5.700  26.386  51.466  1.00  0.00     0.011 A 
BRANCH  21  24
HETATM   24  N   UNL     1       3.152  27.419  48.926  1.00  0.00    -0.318 N 
HETATM   25  C   UNL     1       3.386  27.033  47.594  1.00  0.00     0.224 C 
HETATM   26  O   UNL     1       4.421  26.640  47.078  1.00  0.00    -0.273 OA
HETATM   27  C   UNL     1       2.118  27.277  46.810  1.00  0.00     0.105 C 
HETATM   28  C   UNL     1       1.057  27.386  47.887  1.00  0.00     0.029 C 
HETATM   29  C   UNL     1       1.813  27.944  49.073  1.00  0.00     0.133 C 
ENDBRANCH  21  24
ENDBRANCH  17  18
ENDBRANCH  14  17
ENDBRANCH   1  14
BRANCH   1  30
HETATM   30  C   UNL     1       7.859  24.542  54.804  1.00  0.00    -0.019 A 
HETATM   31  C   UNL     1       7.291  23.963  53.653  1.00  0.00     0.010 A 
HETATM   32  C   UNL     1       7.598  22.652  53.290  1.00  0.00     0.001 A 
HETATM   33  C   UNL     1       8.459  21.894  54.078  1.00  0.00     0.000 A 
HETATM   34  C   UNL     1       9.016  22.446  55.228  1.00  0.00     0.001 A 
HETATM   35  C   UNL     1       8.716  23.759  55.596  1.00  0.00     0.010 A 
ENDBRANCH   1  30
TORSDOF 8
ENDMDL
MODEL 8
REMARK VINA RESULT:      -9.1      2.254      7.788
REMARK  8 active torsions:
REMARK  status: ('A' for Active; 'I' for Inactive)
REMARK    1  A    between atoms: O_2  and  C_3 
REMARK    2  A    between atoms: C_5  and  N_6 
REMARK       I    between atoms: N_6  and  C_7 
REMARK    3  A    between atoms: C_7  and  C_8 
REMARK    4  A    between atoms: C_8  and  N_9 
REMARK    5  A    between atoms: C_8  and  C_25 
REMARK    6  A    between atoms: N_9  and  C_12 
REMARK    7  A    between atoms: C_12  and  C_13 
REMARK    8  A    between atoms: C_16  and  N_17 
ROOT
HETATM    1  C   UNL     1       7.600  25.176  55.259  1.00  0.00     0.310 C 
ENDROOT
BRANCH   1   2
HETATM    2  C   UNL     1       6.939  25.108  56.650  1.00  0.00     0.257 C 
HETATM    3  N   UNL     1       6.710  26.173  57.459  1.00  0.00    -0.325 N 
HETATM    4  H   UNL     1       6.185  25.893  58.285  1.00  0.00     0.169 HD
HETATM    5  O   UNL     1       6.517  23.999  57.021  1.00  0.00    -0.270 OA
BRANCH   3   6
HETATM    6  C   UNL     1       7.032  27.542  57.407  1.00  0.00     0.037 A 
HETATM    7  C   UNL     1       8.294  28.093  57.609  1.00  0.00     0.066 A 
HETATM    8  C   UNL     1       8.506  29.479  57.546  1.00  0.00     0.070 A 
HETATM    9  C   UNL     1       7.440  30.330  57.269  1.00  0.00     0.037 A 
HETATM   10  C   UNL     1       6.168  29.796  57.076  1.00  0.00     0.005 A 
HETATM   11  C   UNL     1       5.966  28.416  57.150  1.00  0.00     0.029 A 
BRANCH   8  12
HETATM   12  O   UNL     1       9.801  29.859  57.770  1.00  0.00    -0.356 OA
HETATM   13  C   UNL     1      10.763  29.462  56.798  1.00  0.00     0.210 C 
ENDBRANCH   8  12
ENDBRANCH   3   6
ENDBRANCH   1   2
BRANCH   1  14
HETATM   14  N   UNL     1       6.605  25.781  54.284  1.00  0.00    -0.054 N 
HETATM   15  H   UNL     1       6.352  25.091  53.567  1.00  0.00     0.278 HD
HETATM   16  H   UNL     1       5.744  25.941  54.831  1.00  0.00     0.278 HD
BRANCH  14  17
HETATM   17  C   UNL     1       6.973  27.067  53.646  1.00  0.00     0.272 C 
BRANCH  17  18
HETATM   18  C   UNL     1       6.195  27.206  52.369  1.00  0.00    -0.033 A 
HETATM   19  C   UNL     1       5.635  28.436  52.014  1.00  0.00     0.011 A 
HETATM   20  C   UNL     1       4.757  28.527  50.927  1.00  0.00     0.030 A 
HETATM   21  C   UNL     1       4.404  27.402  50.173  1.00  0.00     0.037 A 
HETATM   22  C   UNL     1       5.015  26.184  50.506  1.00  0.00     0.030 A 
HETATM   23  C   UNL     1       5.894  26.083  51.591  1.00  0.00     0.011 A 
BRANCH  21  24
HETATM   24  N   UNL     1       3.445  27.472  49.126  1.00  0.00    -0.318 N 
HETATM   25  C   UNL     1       3.652  27.089  47.788  1.00  0.00     0.224 C 
HETATM   26  O   UNL     1       4.638  26.581  47.278  1.00  0.00    -0.273 OA
HETATM   27  C   UNL     1       2.437  27.506  46.993  1.00  0.00     0.105 C 
HETATM   28  C   UNL     1       1.379  27.723  48.056  1.00  0.00     0.029 C 
HETATM   29  C   UNL     1       2.179  28.157  49.266  1.00  0.00     0.133 C 
ENDBRANCH  21  24
ENDBRANCH  17  18
ENDBRANCH  14  17
ENDBRANCH   1  14
BRANCH   1  30
HETATM   30  C   UNL     1       7.990  23.822  54.689  1.00  0.00    -0.019 A 
HETATM   31  C   UNL     1       9.040  23.100  55.288  1.00  0.00     0.010 A 
HETATM   32  C   UNL     1       9.482  21.898  54.736  1.00  0.00     0.001 A 
HETATM   33  C   UNL     1       8.898  21.409  53.571  1.00  0.00     0.000 A 
HETATM   34  C   UNL     1       7.870  22.119  52.958  1.00  0.00     0.001 A 
HETATM   35  C   UNL     1       7.420  23.321  53.506  1.00  0.00     0.010 A 
ENDBRANCH   1  30
TORSDOF 8
ENDMDL
MODEL 9
REMARK VINA RESULT:      -9.0      6.947     11.419
REMARK  8 active torsions:
REMARK  status: ('A' for Active; 'I' for Inactive)
REMARK    1  A    between atoms: O_2  and  C_3 
REMARK    2  A    between atoms: C_5  and  N_6 
REMARK       I    between atoms: N_6  and  C_7 
REMARK    3  A    between atoms: C_7  and  C_8 
REMARK    4  A    between atoms: C_8  and  N_9 
REMARK    5  A    between atoms: C_8  and  C_25 
REMARK    6  A    between atoms: N_9  and  C_12 
REMARK    7  A    between atoms: C_12  and  C_13 
REMARK    8  A    between atoms: C_16  and  N_17 
ROOT
HETATM    1  C   UNL     1       5.306  33.303  63.639  1.00  0.00     0.310 C 
ENDROOT
BRANCH   1   2
HETATM    2  C   UNL     1       4.699  34.068  64.832  1.00  0.00     0.257 C 
HETATM    3  N   UNL     1       4.331  35.374  64.816  1.00  0.00    -0.325 N 
HETATM    4  H   UNL     1       3.877  35.631  65.690  1.00  0.00     0.169 HD
HETATM    5  O   UNL     1       4.461  33.413  65.861  1.00  0.00    -0.270 OA
BRANCH   3   6
HETATM    6  C   UNL     1       4.438  36.421  63.882  1.00  0.00     0.037 A 
HETATM    7  C   UNL     1       5.534  37.262  63.719  1.00  0.00     0.066 A 
HETATM    8  C   UNL     1       5.534  38.287  62.761  1.00  0.00     0.070 A 
HETATM    9  C   UNL     1       4.422  38.472  61.945  1.00  0.00     0.037 A 
HETATM   10  C   UNL     1       3.311  37.647  62.103  1.00  0.00     0.005 A 
HETATM   11  C   UNL     1       3.317  36.635  63.066  1.00  0.00     0.029 A 
BRANCH   8  12
HETATM   12  O   UNL     1       6.686  39.026  62.729  1.00  0.00    -0.356 OA
HETATM   13  C   UNL     1       7.004  39.767  63.902  1.00  0.00     0.210 C 
ENDBRANCH   8  12
ENDBRANCH   3   6
ENDBRANCH   1   2
BRANCH   1  14
HETATM   14  N   UNL     1       6.725  33.799  63.422  1.00  0.00    -0.054 N 
HETATM   15  H   UNL     1       6.835  34.141  62.460  1.00  0.00     0.278 HD
HETATM   16  H   UNL     1       6.823  34.631  64.025  1.00  0.00     0.278 HD
BRANCH  14  17
HETATM   17  C   UNL     1       7.830  32.871  63.762  1.00  0.00     0.272 C 
BRANCH  17  18
HETATM   18  C   UNL     1       8.325  32.235  62.495  1.00  0.00    -0.033 A 
HETATM   19  C   UNL     1       8.237  32.920  61.280  1.00  0.00     0.011 A 
HETATM   20  C   UNL     1       8.522  32.267  60.075  1.00  0.00     0.030 A 
HETATM   21  C   UNL     1       8.892  30.917  60.043  1.00  0.00     0.037 A 
HETATM   22  C   UNL     1       9.029  30.256  61.272  1.00  0.00     0.030 A 
HETATM   23  C   UNL     1       8.745  30.901  62.482  1.00  0.00     0.011 A 
BRANCH  21  24
HETATM   24  N   UNL     1       9.095  30.224  58.818  1.00  0.00    -0.318 N 
HETATM   25  C   UNL     1      10.057  30.537  57.842  1.00  0.00     0.224 C 
HETATM   26  O   UNL     1      10.926  31.396  57.866  1.00  0.00    -0.273 OA
HETATM   27  C   UNL     1       9.795  29.668  56.635  1.00  0.00     0.105 C 
HETATM   28  C   UNL     1       8.925  28.556  57.186  1.00  0.00     0.029 C 
HETATM   29  C   UNL     1       8.177  29.224  58.320  1.00  0.00     0.133 C 
ENDBRANCH  21  24
ENDBRANCH  17  18
ENDBRANCH  14  17
ENDBRANCH   1  14
BRANCH   1  30
HETATM   30  C   UNL     1       4.572  33.516  62.325  1.00  0.00    -0.019 A 
HETATM   31  C   UNL     1       5.212  34.218  61.286  1.00  0.00     0.010 A 
HETATM   32  C   UNL     1       4.535  34.510  60.102  1.00  0.00     0.001 A 
HETATM   33  C   UNL     1       3.207  34.123  59.945  1.00  0.00     0.000 A 
HETATM   34  C   UNL     1       2.555  33.442  60.969  1.00  0.00     0.001 A 
HETATM   35  C   UNL     1       3.227  33.144  62.155  1.00  0.00     0.010 A 
ENDBRANCH   1  30
TORSDOF 8
ENDMDL
MODEL 10
REMARK VINA RESULT:      -8.9      2.596      7.202
REMARK  8 active torsions:
REMARK  status: ('A' for Active; 'I' for Inactive)
REMARK    1  A    between atoms: O_2  and  C_3 
REMARK    2  A    between atoms: C_5  and  N_6 
REMARK       I    between atoms: N_6  and  C_7 
REMARK    3  A    between atoms: C_7  and  C_8 
REMARK    4  A    between atoms: C_8  and  N_9 
REMARK    5  A    between atoms: C_8  and  C_25 
REMARK    6  A    between atoms: N_9  and  C_12 
REMARK    7  A    between atoms: C_12  and  C_13 
REMARK    8  A    between atoms: C_16  and  N_17 
ROOT
HETATM    1  C   UNL     1       5.537  26.367  53.816  1.00  0.00     0.310 C 
ENDROOT
BRANCH   1   2
HETATM    2  C   UNL     1       6.357  27.533  53.229  1.00  0.00     0.257 C 
HETATM    3  N   UNL     1       5.936  28.365  52.243  1.00  0.00    -0.325 N 
HETATM    4  H   UNL     1       6.614  29.109  52.086  1.00  0.00     0.169 HD
HETATM    5  O   UNL     1       7.457  27.772  53.757  1.00  0.00    -0.270 OA
BRANCH   3   6
HETATM    6  C   UNL     1       4.801  28.422  51.414  1.00  0.00     0.037 A 
HETATM    7  C   UNL     1       4.686  27.859  50.146  1.00  0.00     0.066 A 
HETATM    8  C   UNL     1       3.507  27.985  49.395  1.00  0.00     0.070 A 
HETATM    9  C   UNL     1       2.422  28.678  49.921  1.00  0.00     0.037 A 
HETATM   10  C   UNL     1       2.524  29.258  51.183  1.00  0.00     0.005 A 
HETATM   11  C   UNL     1       3.705  29.136  51.919  1.00  0.00     0.029 A 
BRANCH   8  12
HETATM   12  O   UNL     1       3.556  27.377  48.170  1.00  0.00    -0.356 OA
HETATM   13  C   UNL     1       4.825  27.333  47.526  1.00  0.00     0.210 C 
ENDBRANCH   8  12
ENDBRANCH   3   6
ENDBRANCH   1   2
BRANCH   1  14
HETATM   14  N   UNL     1       5.142  26.726  55.238  1.00  0.00    -0.054 N 
HETATM   15  H   UNL     1       4.549  25.988  55.635  1.00  0.00     0.278 HD
HETATM   16  H   UNL     1       6.018  26.702  55.783  1.00  0.00     0.278 HD
BRANCH  14  17
HETATM   17  C   UNL     1       4.518  28.053  55.456  1.00  0.00     0.272 C 
BRANCH  17  18
HETATM   18  C   UNL     1       5.290  28.771  56.527  1.00  0.00    -0.033 A 
HETATM   19  C   UNL     1       4.947  30.077  56.887  1.00  0.00     0.011 A 
HETATM   20  C   UNL     1       5.772  30.814  57.746  1.00  0.00     0.030 A 
HETATM   21  C   UNL     1       6.961  30.281  58.258  1.00  0.00     0.037 A 
HETATM   22  C   UNL     1       7.265  28.951  57.932  1.00  0.00     0.030 A 
HETATM   23  C   UNL     1       6.446  28.206  57.074  1.00  0.00     0.011 A 
BRANCH  21  24
HETATM   24  N   UNL     1       7.847  31.055  59.056  1.00  0.00    -0.318 N 
HETATM   25  C   UNL     1       9.216  31.262  58.806  1.00  0.00     0.224 C 
HETATM   26  O   UNL     1       9.890  30.888  57.859  1.00  0.00    -0.273 OA
HETATM   27  C   UNL     1       9.801  31.983  59.997  1.00  0.00     0.105 C 
HETATM   28  C   UNL     1       8.583  32.552  60.697  1.00  0.00     0.029 C 
HETATM   29  C   UNL     1       7.490  31.559  60.363  1.00  0.00     0.133 C 
ENDBRANCH  21  24
ENDBRANCH  17  18
ENDBRANCH  14  17
ENDBRANCH   1  14
BRANCH   1  30
HETATM   30  C   UNL     1       6.296  25.054  53.901  1.00  0.00    -0.019 A 
HETATM   31  C   UNL     1       6.580  24.503  55.166  1.00  0.00     0.010 A 
HETATM   32  C   UNL     1       7.353  23.348  55.283  1.00  0.00     0.001 A 
HETATM   33  C   UNL     1       7.869  22.737  54.144  1.00  0.00     0.000 A 
HETATM   34  C   UNL     1       7.611  23.277  52.887  1.00  0.00     0.001 A 
HETATM   35  C   UNL     1       6.836  24.431  52.762  1.00  0.00     0.010 A 
ENDBRANCH   1  30
TORSDOF 8
ENDMDL
