MODEL 1
REMARK VINA RESULT:     -11.1      0.000      0.000
REMARK  3 active torsions:
REMARK  status: ('A' for Active; 'I' for Inactive)
REMARK    1  A    between atoms: C_6  and  C_7 
REMARK    2  A    between atoms: C_11  and  C_12 
REMARK       I    between atoms: C_12  and  N_13 
REMARK    3  A    between atoms: N_13  and  N_14 
ROOT
HETATM    1  C   UNL     1       8.849  29.412  56.713  1.00  0.00     0.289 C 
HETATM    2  N   UNL     1       7.844  28.459  56.700  1.00  0.00    -0.241 N 
HETATM    3  O   UNL     1       9.706  29.517  55.839  1.00  0.00    -0.264 OA
HETATM    4  H   UNL     1       7.155  28.416  57.450  1.00  0.00     0.192 HD
ENDROOT
BRANCH   1   5
HETATM    5  C   UNL     1       8.830  30.303  57.845  1.00  0.00     0.121 A 
HETATM    6  N   UNL     1       9.776  31.276  57.984  1.00  0.00    -0.272 N 
HETATM    7  N   UNL     1       9.635  32.031  59.081  1.00  0.00    -0.174 NA
HETATM    8  H   UNL     1      10.546  31.466  57.350  1.00  0.00     0.189 HD
HETATM    9  C   UNL     1       8.548  31.539  59.700  1.00  0.00     0.089 A 
HETATM   10  C   UNL     1       8.013  30.449  58.950  1.00  0.00     0.071 A 
BRANCH   9  11
HETATM   11  C   UNL     1       8.060  32.116  60.961  1.00  0.00    -0.005 A 
HETATM   12  C   UNL     1       6.970  32.998  60.997  1.00  0.00     0.021 A 
HETATM   13  C   UNL     1       6.506  33.552  62.208  1.00  0.00    -0.055 A 
HETATM   14  C   UNL     1       7.165  33.235  63.411  1.00  0.00    -0.056 A 
HETATM   15  C   UNL     1       5.331  34.491  62.174  1.00  0.00     0.049 C 
HETATM   16  C   UNL     1       6.734  33.771  64.748  1.00  0.00     0.049 C 
HETATM   17  C   UNL     1       8.243  32.339  63.378  1.00  0.00     0.008 A 
HETATM   18  C   UNL     1       8.685  31.791  62.172  1.00  0.00     0.014 A 
ENDBRANCH   9  11
ENDBRANCH   1   5
BRANCH   2  19
HETATM   19  N   UNL     1       7.762  27.556  55.674  1.00  0.00    -0.165 NA
HETATM   20  C   UNL     1       7.707  26.305  56.000  1.00  0.00     0.157 A 
HETATM   21  C   UNL     1       7.719  25.684  57.400  1.00  0.00     0.277 A 
HETATM   22  C   UNL     1       7.619  25.189  55.068  1.00  0.00     0.027 A 
HETATM   23  O   UNL     1       7.786  26.314  58.434  1.00  0.00    -0.266 OA
HETATM   24  N   UNL     1       7.641  24.323  57.201  1.00  0.00    -0.321 N 
HETATM   25  C   UNL     1       7.582  24.028  55.839  1.00  0.00     0.048 A 
HETATM   26  H   UNL     1       7.629  23.648  57.952  1.00  0.00     0.169 HD
HETATM   27  C   UNL     1       7.498  22.783  55.253  1.00  0.00     0.030 A 
HETATM   28  C   UNL     1       7.451  22.735  53.854  1.00  0.00     0.002 A 
HETATM   29  C   UNL     1       7.488  23.914  53.079  1.00  0.00     0.001 A 
HETATM   30  C   UNL     1       7.573  25.168  53.690  1.00  0.00     0.016 A 
ENDBRANCH   2  19
TORSDOF 3
ENDMDL
MODEL 2
REMARK VINA RESULT:     -10.7      1.717      2.470
REMARK  3 active torsions:
REMARK  status: ('A' for Active; 'I' for Inactive)
REMARK    1  A    between atoms: C_6  and  C_7 
REMARK    2  A    between atoms: C_11  and  C_12 
REMARK       I    between atoms: C_12  and  N_13 
REMARK    3  A    between atoms: N_13  and  N_14 
ROOT
HETATM    1  C   UNL     1       7.576  27.643  55.219  1.00  0.00     0.289 C 
HETATM    2  N   UNL     1       7.194  26.379  55.637  1.00  0.00    -0.241 N 
HETATM    3  O   UNL     1       8.005  27.893  54.096  1.00  0.00    -0.264 OA
HETATM    4  H   UNL     1       6.842  26.226  56.582  1.00  0.00     0.192 HD
ENDROOT
BRANCH   1   5
HETATM    5  C   UNL     1       7.436  28.681  56.209  1.00  0.00     0.121 A 
HETATM    6  N   UNL     1       6.742  29.823  55.930  1.00  0.00    -0.272 N 
HETATM    7  N   UNL     1       6.691  30.699  56.941  1.00  0.00    -0.174 NA
HETATM    8  H   UNL     1       6.281  30.052  55.054  1.00  0.00     0.189 HD
HETATM    9  C   UNL     1       7.381  30.116  57.937  1.00  0.00     0.089 A 
HETATM   10  C   UNL     1       7.866  28.843  57.512  1.00  0.00     0.071 A 
BRANCH   9  11
HETATM   11  C   UNL     1       7.550  30.778  59.239  1.00  0.00    -0.005 A 
HETATM   12  C   UNL     1       6.670  31.778  59.677  1.00  0.00     0.021 A 
HETATM   13  C   UNL     1       6.835  32.414  60.925  1.00  0.00    -0.055 A 
HETATM   14  C   UNL     1       7.923  32.057  61.744  1.00  0.00    -0.056 A 
HETATM   15  C   UNL     1       5.853  33.478  61.334  1.00  0.00     0.049 C 
HETATM   16  C   UNL     1       8.171  32.674  63.093  1.00  0.00     0.049 C 
HETATM   17  C   UNL     1       8.792  31.045  61.314  1.00  0.00     0.008 A 
HETATM   18  C   UNL     1       8.610  30.418  60.080  1.00  0.00     0.014 A 
ENDBRANCH   9  11
ENDBRANCH   1   5
BRANCH   2  19
HETATM   19  N   UNL     1       7.285  25.313  54.784  1.00  0.00    -0.165 NA
HETATM   20  C   UNL     1       7.694  24.194  55.288  1.00  0.00     0.157 A 
HETATM   21  C   UNL     1       8.098  23.892  56.734  1.00  0.00     0.277 A 
HETATM   22  C   UNL     1       7.863  22.945  54.557  1.00  0.00     0.027 A 
HETATM   23  O   UNL     1       8.087  24.701  57.637  1.00  0.00    -0.266 OA
HETATM   24  N   UNL     1       8.455  22.561  56.748  1.00  0.00    -0.321 N 
HETATM   25  C   UNL     1       8.319  22.003  55.477  1.00  0.00     0.048 A 
HETATM   26  H   UNL     1       8.768  22.076  57.575  1.00  0.00     0.169 HD
HETATM   27  C   UNL     1       8.580  20.703  55.100  1.00  0.00     0.030 A 
HETATM   28  C   UNL     1       8.368  20.371  53.756  1.00  0.00     0.002 A 
HETATM   29  C   UNL     1       7.906  21.330  52.829  1.00  0.00     0.001 A 
HETATM   30  C   UNL     1       7.645  22.643  53.229  1.00  0.00     0.016 A 
ENDBRANCH   2  19
TORSDOF 3
ENDMDL
MODEL 3
REMARK VINA RESULT:     -10.6      1.991      3.113
REMARK  3 active torsions:
REMARK  status: ('A' for Active; 'I' for Inactive)
REMARK    1  A    between atoms: C_6  and  C_7 
REMARK    2  A    between atoms: C_11  and  C_12 
REMARK       I    between atoms: C_12  and  N_13 
REMARK    3  A    between atoms: N_13  and  N_14 
ROOT
HETATM    1  C   UNL     1       7.302  27.515  54.869  1.00  0.00     0.289 C 
HETATM    2  N   UNL     1       7.298  26.235  55.398  1.00  0.00    -0.241 N 
HETATM    3  O   UNL     1       7.398  27.762  53.669  1.00  0.00    -0.264 OA
HETATM    4  H   UNL     1       7.213  26.086  56.403  1.00  0.00     0.192 HD
ENDROOT
BRANCH   1   5
HETATM    5  C   UNL     1       7.182  28.576  55.837  1.00  0.00     0.121 A 
HETATM    6  N   UNL     1       6.508  29.724  55.537  1.00  0.00    -0.272 N 
HETATM    7  N   UNL     1       6.474  30.621  56.530  1.00  0.00    -0.174 NA
HETATM    8  H   UNL     1       6.048  29.942  54.658  1.00  0.00     0.189 HD
HETATM    9  C   UNL     1       7.157  30.047  57.536  1.00  0.00     0.089 A 
HETATM   10  C   UNL     1       7.619  28.757  57.136  1.00  0.00     0.071 A 
BRANCH   9  11
HETATM   11  C   UNL     1       7.340  30.733  58.823  1.00  0.00    -0.005 A 
HETATM   12  C   UNL     1       8.318  30.327  59.743  1.00  0.00     0.021 A 
HETATM   13  C   UNL     1       8.491  30.984  60.978  1.00  0.00    -0.055 A 
HETATM   14  C   UNL     1       7.648  32.061  61.312  1.00  0.00    -0.056 A 
HETATM   15  C   UNL     1       9.560  30.498  61.918  1.00  0.00     0.049 C 
HETATM   16  C   UNL     1       7.766  32.826  62.601  1.00  0.00     0.049 C 
HETATM   17  C   UNL     1       6.682  32.479  60.385  1.00  0.00     0.008 A 
HETATM   18  C   UNL     1       6.529  31.823  59.162  1.00  0.00     0.014 A 
ENDBRANCH   9  11
ENDBRANCH   1   5
BRANCH   2  19
HETATM   19  N   UNL     1       7.408  25.148  54.574  1.00  0.00    -0.165 NA
HETATM   20  C   UNL     1       7.811  24.044  55.116  1.00  0.00     0.157 A 
HETATM   21  C   UNL     1       8.189  23.781  56.576  1.00  0.00     0.277 A 
HETATM   22  C   UNL     1       7.997  22.777  54.420  1.00  0.00     0.027 A 
HETATM   23  O   UNL     1       8.158  24.613  57.458  1.00  0.00    -0.266 OA
HETATM   24  N   UNL     1       8.549  22.452  56.632  1.00  0.00    -0.321 N 
HETATM   25  C   UNL     1       8.439  21.861  55.373  1.00  0.00     0.048 A 
HETATM   26  H   UNL     1       8.849  21.990  57.477  1.00  0.00     0.169 HD
HETATM   27  C   UNL     1       8.711  20.553  55.035  1.00  0.00     0.030 A 
HETATM   28  C   UNL     1       8.525  20.185  53.696  1.00  0.00     0.002 A 
HETATM   29  C   UNL     1       8.077  21.118  52.736  1.00  0.00     0.001 A 
HETATM   30  C   UNL     1       7.805  22.440  53.097  1.00  0.00     0.016 A 
ENDBRANCH   2  19
TORSDOF 3
ENDMDL
MODEL 4
REMARK VINA RESULT:     -10.6      1.469      1.841
REMARK  3 active torsions:
REMARK  status: ('A' for Active; 'I' for Inactive)
REMARK    1  A    between atoms: C_6  and  C_7 
REMARK    2  A    between atoms: C_11  and  C_12 
REMARK       I    between atoms: C_12  and  N_13 
REMARK    3  A    between atoms: N_13  and  N_14 
ROOT
HETATM    1  C   UNL     1       9.197  29.237  57.481  1.00  0.00     0.289 C 
HETATM    2  N   UNL     1       8.038  28.568  57.122  1.00  0.00    -0.241 N 
HETATM    3  O   UNL     1      10.304  28.994  57.007  1.00  0.00    -0.264 OA
HETATM    4  H   UNL     1       7.143  28.811  57.545  1.00  0.00     0.192 HD
ENDROOT
BRANCH   1   5
HETATM    5  C   UNL     1       9.024  30.269  58.471  1.00  0.00     0.121 A 
HETATM    6  N   UNL     1       9.721  31.439  58.390  1.00  0.00    -0.272 N 
HETATM    7  N   UNL     1       9.460  32.307  59.376  1.00  0.00    -0.174 NA
HETATM    8  H   UNL     1      10.393  31.694  57.673  1.00  0.00     0.189 HD
HETATM    9  C   UNL     1       8.550  31.688  60.147  1.00  0.00     0.089 A 
HETATM   10  C   UNL     1       8.251  30.401  59.609  1.00  0.00     0.071 A 
BRANCH   9  11
HETATM   11  C   UNL     1       8.003  32.334  61.350  1.00  0.00    -0.005 A 
HETATM   12  C   UNL     1       6.960  33.269  61.276  1.00  0.00     0.021 A 
HETATM   13  C   UNL     1       6.438  33.889  62.430  1.00  0.00    -0.055 A 
HETATM   14  C   UNL     1       6.990  33.583  63.688  1.00  0.00    -0.056 A 
HETATM   15  C   UNL     1       5.319  34.882  62.279  1.00  0.00     0.049 C 
HETATM   16  C   UNL     1       6.491  34.187  64.971  1.00  0.00     0.049 C 
HETATM   17  C   UNL     1       8.020  32.634  63.765  1.00  0.00     0.008 A 
HETATM   18  C   UNL     1       8.520  32.022  62.614  1.00  0.00     0.014 A 
ENDBRANCH   9  11
ENDBRANCH   1   5
BRANCH   2  19
HETATM   19  N   UNL     1       8.080  27.566  56.191  1.00  0.00    -0.165 NA
HETATM   20  C   UNL     1       6.955  27.224  55.651  1.00  0.00     0.157 A 
HETATM   21  C   UNL     1       5.559  27.795  55.914  1.00  0.00     0.277 A 
HETATM   22  C   UNL     1       6.778  26.185  54.645  1.00  0.00     0.027 A 
HETATM   23  O   UNL     1       5.314  28.685  56.701  1.00  0.00    -0.266 OA
HETATM   24  N   UNL     1       4.709  27.090  55.090  1.00  0.00    -0.321 N 
HETATM   25  C   UNL     1       5.417  26.147  54.345  1.00  0.00     0.048 A 
HETATM   26  H   UNL     1       3.714  27.250  55.045  1.00  0.00     0.169 HD
HETATM   27  C   UNL     1       4.914  25.260  53.418  1.00  0.00     0.030 A 
HETATM   28  C   UNL     1       5.826  24.401  52.792  1.00  0.00     0.002 A 
HETATM   29  C   UNL     1       7.203  24.444  53.100  1.00  0.00     0.001 A 
HETATM   30  C   UNL     1       7.696  25.350  54.042  1.00  0.00     0.016 A 
ENDBRANCH   2  19
TORSDOF 3
ENDMDL
MODEL 5
REMARK VINA RESULT:     -10.5      2.088      9.790
REMARK  3 active torsions:
REMARK  status: ('A' for Active; 'I' for Inactive)
REMARK    1  A    between atoms: C_6  and  C_7 
REMARK    2  A    between atoms: C_11  and  C_12 
REMARK       I    between atoms: C_12  and  N_13 
REMARK    3  A    between atoms: N_13  and  N_14 
ROOT
HETATM    1  C   UNL     1       5.989  30.037  57.704  1.00  0.00     0.289 C 
HETATM    2  N   UNL     1       6.938  30.715  58.451  1.00  0.00    -0.241 N 
HETATM    3  O   UNL     1       4.777  30.201  57.822  1.00  0.00    -0.264 OA
HETATM    4  H   UNL     1       7.933  30.543  58.311  1.00  0.00     0.192 HD
ENDROOT
BRANCH   1   5
HETATM    5  C   UNL     1       6.521  29.099  56.748  1.00  0.00     0.121 A 
HETATM    6  N   UNL     1       7.362  29.513  55.756  1.00  0.00    -0.272 N 
HETATM    7  N   UNL     1       7.780  28.536  54.943  1.00  0.00    -0.174 NA
HETATM    8  H   UNL     1       7.683  30.463  55.593  1.00  0.00     0.189 HD
HETATM    9  C   UNL     1       7.192  27.422  55.412  1.00  0.00     0.089 A 
HETATM   10  C   UNL     1       6.390  27.738  56.549  1.00  0.00     0.071 A 
BRANCH   9  11
HETATM   11  C   UNL     1       7.411  26.115  54.774  1.00  0.00    -0.005 A 
HETATM   12  C   UNL     1       7.469  24.930  55.521  1.00  0.00     0.021 A 
HETATM   13  C   UNL     1       7.682  23.678  54.908  1.00  0.00    -0.055 A 
HETATM   14  C   UNL     1       7.867  23.614  53.514  1.00  0.00    -0.056 A 
HETATM   15  C   UNL     1       7.731  22.445  55.768  1.00  0.00     0.049 C 
HETATM   16  C   UNL     1       8.090  22.324  52.774  1.00  0.00     0.049 C 
HETATM   17  C   UNL     1       7.792  24.797  52.764  1.00  0.00     0.008 A 
HETATM   18  C   UNL     1       7.571  26.028  53.385  1.00  0.00     0.014 A 
ENDBRANCH   9  11
ENDBRANCH   1   5
BRANCH   2  19
HETATM   19  N   UNL     1       6.550  31.631  59.392  1.00  0.00    -0.165 NA
HETATM   20  C   UNL     1       7.227  31.657  60.494  1.00  0.00     0.157 A 
HETATM   21  C   UNL     1       8.424  30.792  60.898  1.00  0.00     0.277 A 
HETATM   22  C   UNL     1       6.981  32.549  61.619  1.00  0.00     0.027 A 
HETATM   23  O   UNL     1       8.916  29.926  60.205  1.00  0.00    -0.266 OA
HETATM   24  N   UNL     1       8.776  31.213  62.162  1.00  0.00    -0.321 N 
HETATM   25  C   UNL     1       7.935  32.241  62.588  1.00  0.00     0.048 A 
HETATM   26  H   UNL     1       9.540  30.820  62.689  1.00  0.00     0.169 HD
HETATM   27  C   UNL     1       7.975  32.914  63.790  1.00  0.00     0.030 A 
HETATM   28  C   UNL     1       7.019  33.917  63.997  1.00  0.00     0.002 A 
HETATM   29  C   UNL     1       6.056  34.224  63.011  1.00  0.00     0.001 A 
HETATM   30  C   UNL     1       6.030  33.532  61.797  1.00  0.00     0.016 A 
ENDBRANCH   2  19
TORSDOF 3
ENDMDL
MODEL 6
REMARK VINA RESULT:     -10.3      1.983      9.912
REMARK  3 active torsions:
REMARK  status: ('A' for Active; 'I' for Inactive)
REMARK    1  A    between atoms: C_6  and  C_7 
REMARK    2  A    between atoms: C_11  and  C_12 
REMARK       I    between atoms: C_12  and  N_13 
REMARK    3  A    between atoms: N_13  and  N_14 
ROOT
HETATM    1  C   UNL     1       5.675  29.083  56.584  1.00  0.00     0.289 C 
HETATM    2  N   UNL     1       6.571  29.945  57.193  1.00  0.00    -0.241 N 
HETATM    3  O   UNL     1       4.454  29.171  56.696  1.00  0.00    -0.264 OA
HETATM    4  H   UNL     1       7.576  29.829  57.065  1.00  0.00     0.192 HD
ENDROOT
BRANCH   1   5
HETATM    5  C   UNL     1       6.273  28.045  55.784  1.00  0.00     0.121 A 
HETATM    6  N   UNL     1       7.090  28.355  54.734  1.00  0.00    -0.272 N 
HETATM    7  N   UNL     1       7.577  27.292  54.082  1.00  0.00    -0.174 NA
HETATM    8  H   UNL     1       7.347  29.286  54.423  1.00  0.00     0.189 HD
HETATM    9  C   UNL     1       7.062  26.229  54.723  1.00  0.00     0.089 A 
HETATM   10  C   UNL     1       6.235  26.664  55.801  1.00  0.00     0.071 A 
BRANCH   9  11
HETATM   11  C   UNL     1       7.372  24.856  54.296  1.00  0.00    -0.005 A 
HETATM   12  C   UNL     1       7.420  23.792  55.209  1.00  0.00     0.021 A 
HETATM   13  C   UNL     1       7.720  22.477  54.798  1.00  0.00    -0.055 A 
HETATM   14  C   UNL     1       8.004  22.225  53.443  1.00  0.00    -0.056 A 
HETATM   15  C   UNL     1       7.753  21.383  55.829  1.00  0.00     0.049 C 
HETATM   16  C   UNL     1       8.324  20.854  52.913  1.00  0.00     0.049 C 
HETATM   17  C   UNL     1       7.939  23.284  52.527  1.00  0.00     0.008 A 
HETATM   18  C   UNL     1       7.631  24.579  52.947  1.00  0.00     0.014 A 
ENDBRANCH   9  11
ENDBRANCH   1   5
BRANCH   2  19
HETATM   19  N   UNL     1       6.119  30.970  57.979  1.00  0.00    -0.165 NA
HETATM   20  C   UNL     1       6.779  31.207  59.067  1.00  0.00     0.157 A 
HETATM   21  C   UNL     1       8.019  30.488  59.604  1.00  0.00     0.277 A 
HETATM   22  C   UNL     1       6.466  32.245  60.040  1.00  0.00     0.027 A 
HETATM   23  O   UNL     1       8.570  29.557  59.055  1.00  0.00    -0.266 OA
HETATM   24  N   UNL     1       8.329  31.120  60.789  1.00  0.00    -0.321 N 
HETATM   25  C   UNL     1       7.424  32.149  61.048  1.00  0.00     0.048 A 
HETATM   26  H   UNL     1       9.109  30.859  61.374  1.00  0.00     0.169 HD
HETATM   27  C   UNL     1       7.409  33.000  62.132  1.00  0.00     0.030 A 
HETATM   28  C   UNL     1       6.393  33.963  62.177  1.00  0.00     0.002 A 
HETATM   29  C   UNL     1       5.426  34.056  61.152  1.00  0.00     0.001 A 
HETATM   30  C   UNL     1       5.457  33.185  60.060  1.00  0.00     0.016 A 
ENDBRANCH   2  19
TORSDOF 3
ENDMDL
MODEL 7
REMARK VINA RESULT:     -10.1      8.140     11.168
REMARK  3 active torsions:
REMARK  status: ('A' for Active; 'I' for Inactive)
REMARK    1  A    between atoms: C_6  and  C_7 
REMARK    2  A    between atoms: C_11  and  C_12 
REMARK       I    between atoms: C_12  and  N_13 
REMARK    3  A    between atoms: N_13  and  N_14 
ROOT
HETATM    1  C   UNL     1       4.638  27.075  51.519  1.00  0.00     0.289 C 
HETATM    2  N   UNL     1       4.298  27.052  50.177  1.00  0.00    -0.241 N 
HETATM    3  O   UNL     1       4.191  27.886  52.327  1.00  0.00    -0.264 OA
HETATM    4  H   UNL     1       4.696  26.355  49.549  1.00  0.00     0.192 HD
ENDROOT
BRANCH   1   5
HETATM    5  C   UNL     1       5.574  26.059  51.928  1.00  0.00     0.121 A 
HETATM    6  N   UNL     1       6.764  25.903  51.279  1.00  0.00    -0.272 N 
HETATM    7  N   UNL     1       7.536  24.924  51.767  1.00  0.00    -0.174 NA
HETATM    8  H   UNL     1       7.098  26.447  50.489  1.00  0.00     0.189 HD
HETATM    9  C   UNL     1       6.829  24.404  52.785  1.00  0.00     0.089 A 
HETATM   10  C   UNL     1       5.587  25.094  52.917  1.00  0.00     0.071 A 
BRANCH   9  11
HETATM   11  C   UNL     1       7.353  23.288  53.587  1.00  0.00    -0.005 A 
HETATM   12  C   UNL     1       7.569  23.410  54.967  1.00  0.00     0.021 A 
HETATM   13  C   UNL     1       8.074  22.339  55.734  1.00  0.00    -0.055 A 
HETATM   14  C   UNL     1       8.393  21.124  55.099  1.00  0.00    -0.056 A 
HETATM   15  C   UNL     1       8.282  22.537  57.211  1.00  0.00     0.049 C 
HETATM   16  C   UNL     1       8.926  19.928  55.838  1.00  0.00     0.049 C 
HETATM   17  C   UNL     1       8.159  20.997  53.722  1.00  0.00     0.008 A 
HETATM   18  C   UNL     1       7.650  22.062  52.978  1.00  0.00     0.014 A 
ENDBRANCH   9  11
ENDBRANCH   1   5
BRANCH   2  19
HETATM   19  N   UNL     1       3.417  27.970  49.672  1.00  0.00    -0.165 NA
HETATM   20  C   UNL     1       2.674  27.586  48.685  1.00  0.00     0.157 A 
HETATM   21  C   UNL     1       2.642  26.220  47.992  1.00  0.00     0.277 A 
HETATM   22  C   UNL     1       1.678  28.403  48.005  1.00  0.00     0.027 A 
HETATM   23  O   UNL     1       3.343  25.278  48.292  1.00  0.00    -0.266 OA
HETATM   24  N   UNL     1       1.683  26.327  47.009  1.00  0.00    -0.321 N 
HETATM   25  C   UNL     1       1.116  27.602  47.012  1.00  0.00     0.048 A 
HETATM   26  H   UNL     1       1.438  25.574  46.383  1.00  0.00     0.169 HD
HETATM   27  C   UNL     1       0.129  28.083  46.179  1.00  0.00     0.030 A 
HETATM   28  C   UNL     1      -0.284  29.407  46.372  1.00  0.00     0.002 A 
HETATM   29  C   UNL     1       0.289  30.213  47.380  1.00  0.00     0.001 A 
HETATM   30  C   UNL     1       1.288  29.709  48.216  1.00  0.00     0.016 A 
ENDBRANCH   2  19
TORSDOF 3
ENDMDL
MODEL 8
REMARK VINA RESULT:      -9.9      8.160     11.233
REMARK  3 active torsions:
REMARK  status: ('A' for Active; 'I' for Inactive)
REMARK    1  A    between atoms: C_6  and  C_7 
REMARK    2  A    between atoms: C_11  and  C_12 
REMARK       I    between atoms: C_12  and  N_13 
REMARK    3  A    between atoms: N_13  and  N_14 
ROOT
HETATM    1  C   UNL     1       5.602  27.890  51.094  1.00  0.00     0.289 C 
HETATM    2  N   UNL     1       5.571  27.777  49.714  1.00  0.00    -0.241 N 
HETATM    3  O   UNL     1       5.519  28.958  51.696  1.00  0.00    -0.264 OA
HETATM    4  H   UNL     1       5.642  26.865  49.264  1.00  0.00     0.192 HD
ENDROOT
BRANCH   1   5
HETATM    5  C   UNL     1       5.739  26.645  51.805  1.00  0.00     0.121 A 
HETATM    6  N   UNL     1       4.660  25.834  52.009  1.00  0.00    -0.272 N 
HETATM    7  N   UNL     1       4.934  24.710  52.683  1.00  0.00    -0.174 NA
HETATM    8  H   UNL     1       3.707  26.007  51.703  1.00  0.00     0.189 HD
HETATM    9  C   UNL     1       6.251  24.775  52.940  1.00  0.00     0.089 A 
HETATM   10  C   UNL     1       6.793  25.981  52.403  1.00  0.00     0.071 A 
BRANCH   9  11
HETATM   11  C   UNL     1       6.939  23.702  53.674  1.00  0.00    -0.005 A 
HETATM   12  C   UNL     1       7.481  22.588  53.017  1.00  0.00     0.021 A 
HETATM   13  C   UNL     1       8.138  21.560  53.723  1.00  0.00    -0.055 A 
HETATM   14  C   UNL     1       8.235  21.636  55.125  1.00  0.00    -0.056 A 
HETATM   15  C   UNL     1       8.697  20.392  52.955  1.00  0.00     0.049 C 
HETATM   16  C   UNL     1       8.926  20.593  55.958  1.00  0.00     0.049 C 
HETATM   17  C   UNL     1       7.710  22.759  55.781  1.00  0.00     0.008 A 
HETATM   18  C   UNL     1       7.070  23.774  55.067  1.00  0.00     0.014 A 
ENDBRANCH   9  11
ENDBRANCH   1   5
BRANCH   2  19
HETATM   19  N   UNL     1       5.446  28.893  48.932  1.00  0.00    -0.165 NA
HETATM   20  C   UNL     1       4.363  28.997  48.232  1.00  0.00     0.157 A 
HETATM   21  C   UNL     1       3.180  28.027  48.157  1.00  0.00     0.277 A 
HETATM   22  C   UNL     1       4.033  30.099  47.338  1.00  0.00     0.027 A 
HETATM   23  O   UNL     1       3.102  26.985  48.772  1.00  0.00    -0.266 OA
HETATM   24  N   UNL     1       2.290  28.597  47.273  1.00  0.00    -0.321 N 
HETATM   25  C   UNL     1       2.784  29.809  46.791  1.00  0.00     0.048 A 
HETATM   26  H   UNL     1       1.406  28.179  47.023  1.00  0.00     0.169 HD
HETATM   27  C   UNL     1       2.181  30.664  45.894  1.00  0.00     0.030 A 
HETATM   28  C   UNL     1       2.874  31.833  45.556  1.00  0.00     0.002 A 
HETATM   29  C   UNL     1       4.139  32.121  46.113  1.00  0.00     0.001 A 
HETATM   30  C   UNL     1       4.736  31.243  47.022  1.00  0.00     0.016 A 
ENDBRANCH   2  19
TORSDOF 3
ENDMDL
MODEL 9
REMARK VINA RESULT:      -9.8      2.829     10.035
REMARK  3 active torsions:
REMARK  status: ('A' for Active; 'I' for Inactive)
REMARK    1  A    between atoms: C_6  and  C_7 
REMARK    2  A    between atoms: C_11  and  C_12 
REMARK       I    between atoms: C_12  and  N_13 
REMARK    3  A    between atoms: N_13  and  N_14 
ROOT
HETATM    1  C   UNL     1       7.926  31.279  60.071  1.00  0.00     0.289 C 
HETATM    2  N   UNL     1       7.029  31.130  61.115  1.00  0.00    -0.241 N 
HETATM    3  O   UNL     1       8.943  31.966  60.133  1.00  0.00    -0.264 OA
HETATM    4  H   UNL     1       6.200  30.545  61.012  1.00  0.00     0.192 HD
ENDROOT
BRANCH   1   5
HETATM    5  C   UNL     1       7.588  30.560  58.869  1.00  0.00     0.121 A 
HETATM    6  N   UNL     1       6.681  31.064  57.983  1.00  0.00    -0.272 N 
HETATM    7  N   UNL     1       6.466  30.291  56.912  1.00  0.00    -0.174 NA
HETATM    8  H   UNL     1       6.177  31.942  58.068  1.00  0.00     0.189 HD
HETATM    9  C   UNL     1       7.264  29.225  57.091  1.00  0.00     0.089 A 
HETATM   10  C   UNL     1       7.987  29.358  58.315  1.00  0.00     0.071 A 
BRANCH   9  11
HETATM   11  C   UNL     1       7.314  28.133  56.107  1.00  0.00    -0.005 A 
HETATM   12  C   UNL     1       7.072  26.801  56.470  1.00  0.00     0.021 A 
HETATM   13  C   UNL     1       7.122  25.755  55.525  1.00  0.00    -0.055 A 
HETATM   14  C   UNL     1       7.447  26.048  54.187  1.00  0.00    -0.056 A 
HETATM   15  C   UNL     1       6.851  24.348  55.981  1.00  0.00     0.049 C 
HETATM   16  C   UNL     1       7.514  25.001  53.110  1.00  0.00     0.049 C 
HETATM   17  C   UNL     1       7.671  27.383  53.820  1.00  0.00     0.008 A 
HETATM   18  C   UNL     1       7.608  28.408  54.765  1.00  0.00     0.014 A 
ENDBRANCH   9  11
ENDBRANCH   1   5
BRANCH   2  19
HETATM   19  N   UNL     1       7.244  31.768  62.307  1.00  0.00    -0.165 NA
HETATM   20  C   UNL     1       6.211  32.290  62.885  1.00  0.00     0.157 A 
HETATM   21  C   UNL     1       4.754  32.292  62.412  1.00  0.00     0.277 A 
HETATM   22  C   UNL     1       6.221  33.011  64.151  1.00  0.00     0.027 A 
HETATM   23  O   UNL     1       4.361  31.780  61.385  1.00  0.00    -0.266 OA
HETATM   24  N   UNL     1       4.051  32.975  63.381  1.00  0.00    -0.321 N 
HETATM   25  C   UNL     1       4.905  33.398  64.400  1.00  0.00     0.048 A 
HETATM   26  H   UNL     1       3.056  33.137  63.340  1.00  0.00     0.169 HD
HETATM   27  C   UNL     1       4.571  34.108  65.533  1.00  0.00     0.030 A 
HETATM   28  C   UNL     1       5.607  34.422  66.422  1.00  0.00     0.002 A 
HETATM   29  C   UNL     1       6.938  34.027  66.164  1.00  0.00     0.001 A 
HETATM   30  C   UNL     1       7.259  33.308  65.010  1.00  0.00     0.016 A 
ENDBRANCH   2  19
TORSDOF 3
ENDMDL
MODEL 10
REMARK VINA RESULT:      -9.6      7.538     10.717
REMARK  3 active torsions:
REMARK  status: ('A' for Active; 'I' for Inactive)
REMARK    1  A    between atoms: C_6  and  C_7 
REMARK    2  A    between atoms: C_11  and  C_12 
REMARK       I    between atoms: C_12  and  N_13 
REMARK    3  A    between atoms: N_13  and  N_14 
ROOT
HETATM    1  C   UNL     1       5.291  28.169  51.717  1.00  0.00     0.289 C 
HETATM    2  N   UNL     1       3.996  27.806  51.385  1.00  0.00    -0.241 N 
HETATM    3  O   UNL     1       5.802  29.244  51.413  1.00  0.00    -0.264 OA
HETATM    4  H   UNL     1       3.620  26.900  51.665  1.00  0.00     0.192 HD
ENDROOT
BRANCH   1   5
HETATM    5  C   UNL     1       6.028  27.182  52.465  1.00  0.00     0.121 A 
HETATM    6  N   UNL     1       7.098  27.543  53.232  1.00  0.00    -0.272 N 
HETATM    7  N   UNL     1       7.687  26.525  53.872  1.00  0.00    -0.174 NA
HETATM    8  H   UNL     1       7.468  28.481  53.351  1.00  0.00     0.189 HD
HETATM    9  C   UNL     1       6.979  25.439  53.516  1.00  0.00     0.089 A 
HETATM   10  C   UNL     1       5.926  25.814  52.629  1.00  0.00     0.071 A 
BRANCH   9  11
HETATM   11  C   UNL     1       7.322  24.103  54.026  1.00  0.00    -0.005 A 
HETATM   12  C   UNL     1       7.572  23.026  53.163  1.00  0.00     0.021 A 
HETATM   13  C   UNL     1       7.898  21.745  53.654  1.00  0.00    -0.055 A 
HETATM   14  C   UNL     1       7.951  21.530  55.045  1.00  0.00    -0.056 A 
HETATM   15  C   UNL     1       8.156  20.634  52.673  1.00  0.00     0.049 C 
HETATM   16  C   UNL     1       8.300  20.202  55.657  1.00  0.00     0.049 C 
HETATM   17  C   UNL     1       7.719  22.611  55.907  1.00  0.00     0.008 A 
HETATM   18  C   UNL     1       7.406  23.876  55.405  1.00  0.00     0.014 A 
ENDBRANCH   9  11
ENDBRANCH   1   5
BRANCH   2  19
HETATM   19  N   UNL     1       3.200  28.662  50.673  1.00  0.00    -0.165 NA
HETATM   20  C   UNL     1       2.832  28.274  49.495  1.00  0.00     0.157 A 
HETATM   21  C   UNL     1       3.169  26.965  48.775  1.00  0.00     0.277 A 
HETATM   22  C   UNL     1       1.991  29.031  48.578  1.00  0.00     0.027 A 
HETATM   23  O   UNL     1       3.858  26.081  49.236  1.00  0.00    -0.266 OA
HETATM   24  N   UNL     1       2.536  27.042  47.553  1.00  0.00    -0.321 N 
HETATM   25  C   UNL     1       1.845  28.248  47.433  1.00  0.00     0.048 A 
HETATM   26  H   UNL     1       2.579  26.315  46.855  1.00  0.00     0.169 HD
HETATM   27  C   UNL     1       1.098  28.684  46.360  1.00  0.00     0.030 A 
HETATM   28  C   UNL     1       0.491  29.942  46.469  1.00  0.00     0.002 A 
HETATM   29  C   UNL     1       0.642  30.728  47.631  1.00  0.00     0.001 A 
HETATM   30  C   UNL     1       1.403  30.272  48.710  1.00  0.00     0.016 A 
ENDBRANCH   2  19
TORSDOF 3
ENDMDL
