MODEL 1
REMARK VINA RESULT:      -7.7      0.000      0.000
REMARK  9 active torsions:
REMARK  status: ('A' for Active; 'I' for Inactive)
REMARK    1  A    between atoms: C_2  and  C_3 
REMARK    2  A    between atoms: C_7  and  C_8 
REMARK    3  A    between atoms: C_8  and  C_9 
REMARK       I    between atoms: C_9  and  N_10 
REMARK    4  A    between atoms: N_10  and  C_11 
REMARK    5  A    between atoms: C_11  and  C_12 
REMARK    6  A    between atoms: C_12  and  N_13 
REMARK    7  A    between atoms: C_21  and  C_22 
REMARK    8  A    between atoms: C_32  and  C_33 
REMARK    9  A    between atoms: C_33  and  O_34 
ROOT
HETATM    1  C   UNL     1       5.943  33.062  60.874  1.00  0.00     0.051 C 
HETATM    2  N   UNL     1       7.263  32.969  60.486  1.00  0.00    -0.228 NA
HETATM    3  C   UNL     1       7.594  32.076  59.626  1.00  0.00     0.170 C 
HETATM    4  N   UNL     1       6.608  31.184  58.829  1.00  0.00    -0.318 N 
HETATM    5  C   UNL     1       7.243  30.402  58.015  1.00  0.00     0.011 C 
HETATM    6  C   UNL     1       5.177  31.532  59.027  1.00  0.00     0.166 C 
HETATM    7  S   UNL     1       9.244  31.783  59.183  1.00  0.00    -0.086 SA
HETATM    8  C   UNL     1       8.748  30.377  58.160  1.00  0.00     0.135 C 
HETATM    9  C   UNL     1       4.966  32.330  60.292  1.00  0.00     0.069 C 
ENDROOT
BRANCH   5  10
HETATM   10  C   UNL     1       6.559  29.615  56.938  1.00  0.00     0.156 C 
BRANCH  10  11
HETATM   11  C   UNL     1       7.237  28.304  56.632  1.00  0.00     0.223 C 
HETATM   12  N   UNL     1       7.143  27.344  57.613  1.00  0.00    -0.359 N 
HETATM   13  H   UNL     1       6.421  27.444  58.321  1.00  0.00     0.162 HD
HETATM   14  O   UNL     1       7.861  28.144  55.591  1.00  0.00    -0.273 OA
BRANCH  12  15
HETATM   15  C   UNL     1       7.641  25.982  57.384  1.00  0.00     0.150 C 
BRANCH  15  16
HETATM   16  C   UNL     1       6.674  25.087  56.583  1.00  0.00     0.254 C 
BRANCH  16  17
HETATM   17  N   UNL     1       7.367  24.461  55.378  1.00  0.00    -0.070 N 
HETATM   18  H   UNL     1       8.348  24.754  55.454  1.00  0.00     0.279 HD
HETATM   19  C   UNL     1       7.337  22.948  55.361  1.00  0.00     0.235 C 
HETATM   20  C   UNL     1       8.226  22.451  54.231  1.00  0.00     0.028 C 
HETATM   21  C   UNL     1       7.792  23.016  52.883  1.00  0.00     0.003 C 
HETATM   22  C   UNL     1       7.697  24.538  52.924  1.00  0.00     0.028 C 
HETATM   23  C   UNL     1       6.829  25.026  54.077  1.00  0.00     0.235 C 
ENDBRANCH  16  17
ENDBRANCH  15  16
ENDBRANCH  12  15
ENDBRANCH  10  11
ENDBRANCH   5  10
BRANCH   6  24
HETATM   24  C   UNL     1       4.657  32.251  57.769  1.00  0.00    -0.024 A 
HETATM   25  C   UNL     1       3.755  31.652  56.855  1.00  0.00    -0.053 A 
HETATM   26  C   UNL     1       3.097  30.309  57.054  1.00  0.00     0.049 C 
HETATM   27  C   UNL     1       3.353  32.376  55.717  1.00  0.00     0.008 A 
HETATM   28  C   UNL     1       3.841  33.655  55.456  1.00  0.00     0.007 A 
HETATM   29  C   UNL     1       4.730  34.258  56.338  1.00  0.00    -0.061 A 
HETATM   30  C   UNL     1       5.200  35.665  56.096  1.00  0.00     0.048 C 
HETATM   31  C   UNL     1       5.109  33.568  57.496  1.00  0.00     0.017 A 
ENDBRANCH   6  24
BRANCH   9  32
HETATM   32  C   UNL     1       3.607  32.159  60.872  1.00  0.00     0.293 C 
HETATM   33  O   UNL     1       3.418  31.647  61.960  1.00  0.00    -0.259 OA
BRANCH  32  34
HETATM   34  O   UNL     1       2.695  32.831  60.137  1.00  0.00    -0.323 OA
HETATM   35  C   UNL     1       2.237  34.060  60.709  1.00  0.00     0.213 C 
ENDBRANCH  32  34
ENDBRANCH   9  32
BRANCH   1  36
HETATM   36  C   UNL     1       5.733  34.076  61.995  1.00  0.00     0.056 C 
HETATM   37  C   UNL     1       6.257  33.601  63.348  1.00  0.00     0.011 C 
ENDBRANCH   1  36
TORSDOF 9
ENDMDL
MODEL 2
REMARK VINA RESULT:      -7.4      3.533      6.787
REMARK  9 active torsions:
REMARK  status: ('A' for Active; 'I' for Inactive)
REMARK    1  A    between atoms: C_2  and  C_3 
REMARK    2  A    between atoms: C_7  and  C_8 
REMARK    3  A    between atoms: C_8  and  C_9 
REMARK       I    between atoms: C_9  and  N_10 
REMARK    4  A    between atoms: N_10  and  C_11 
REMARK    5  A    between atoms: C_11  and  C_12 
REMARK    6  A    between atoms: C_12  and  N_13 
REMARK    7  A    between atoms: C_21  and  C_22 
REMARK    8  A    between atoms: C_32  and  C_33 
REMARK    9  A    between atoms: C_33  and  O_34 
ROOT
HETATM    1  C   UNL     1       4.022  37.055  61.748  1.00  0.00     0.051 C 
HETATM    2  N   UNL     1       3.228  36.080  61.182  1.00  0.00    -0.228 NA
HETATM    3  C   UNL     1       3.695  34.889  61.070  1.00  0.00     0.170 C 
HETATM    4  N   UNL     1       5.028  34.384  61.679  1.00  0.00    -0.318 N 
HETATM    5  C   UNL     1       5.210  33.128  61.419  1.00  0.00     0.011 C 
HETATM    6  C   UNL     1       5.707  35.370  62.560  1.00  0.00     0.166 C 
HETATM    7  S   UNL     1       2.834  33.632  60.245  1.00  0.00    -0.086 SA
HETATM    8  C   UNL     1       4.234  32.505  60.446  1.00  0.00     0.135 C 
HETATM    9  C   UNL     1       5.226  36.777  62.298  1.00  0.00     0.069 C 
ENDROOT
BRANCH   5  10
HETATM   10  C   UNL     1       6.270  32.303  62.084  1.00  0.00     0.156 C 
BRANCH  10  11
HETATM   11  C   UNL     1       7.431  31.977  61.180  1.00  0.00     0.223 C 
HETATM   12  N   UNL     1       7.268  30.869  60.380  1.00  0.00    -0.359 N 
HETATM   13  H   UNL     1       6.327  30.517  60.226  1.00  0.00     0.162 HD
HETATM   14  O   UNL     1       8.456  32.645  61.203  1.00  0.00    -0.273 OA
BRANCH  12  15
HETATM   15  C   UNL     1       8.263  30.524  59.359  1.00  0.00     0.150 C 
BRANCH  15  16
HETATM   16  C   UNL     1       7.663  30.255  57.963  1.00  0.00     0.254 C 
BRANCH  16  17
HETATM   17  N   UNL     1       7.323  28.780  57.781  1.00  0.00    -0.070 N 
HETATM   18  H   UNL     1       7.176  28.422  58.732  1.00  0.00     0.279 HD
HETATM   19  C   UNL     1       6.057  28.528  56.992  1.00  0.00     0.235 C 
HETATM   20  C   UNL     1       5.724  27.044  57.055  1.00  0.00     0.028 C 
HETATM   21  C   UNL     1       6.870  26.188  56.528  1.00  0.00     0.003 C 
HETATM   22  C   UNL     1       8.182  26.522  57.231  1.00  0.00     0.028 C 
HETATM   23  C   UNL     1       8.490  28.013  57.188  1.00  0.00     0.235 C 
ENDBRANCH  16  17
ENDBRANCH  15  16
ENDBRANCH  12  15
ENDBRANCH  10  11
ENDBRANCH   5  10
BRANCH   6  24
HETATM   24  C   UNL     1       5.529  34.936  64.026  1.00  0.00    -0.024 A 
HETATM   25  C   UNL     1       6.533  34.253  64.757  1.00  0.00    -0.053 A 
HETATM   26  C   UNL     1       7.927  33.979  64.250  1.00  0.00     0.049 C 
HETATM   27  C   UNL     1       6.271  33.873  66.087  1.00  0.00     0.008 A 
HETATM   28  C   UNL     1       5.043  34.129  66.691  1.00  0.00     0.007 A 
HETATM   29  C   UNL     1       4.043  34.794  65.990  1.00  0.00    -0.061 A 
HETATM   30  C   UNL     1       2.745  35.136  66.664  1.00  0.00     0.048 C 
HETATM   31  C   UNL     1       4.300  35.215  64.679  1.00  0.00     0.017 A 
ENDBRANCH   6  24
BRANCH   9  32
HETATM   32  C   UNL     1       6.241  37.812  62.628  1.00  0.00     0.293 C 
HETATM   33  O   UNL     1       6.915  38.365  61.777  1.00  0.00    -0.259 OA
BRANCH  32  34
HETATM   34  O   UNL     1       6.136  38.178  63.924  1.00  0.00    -0.323 OA
HETATM   35  C   UNL     1       6.402  39.558  64.192  1.00  0.00     0.213 C 
ENDBRANCH  32  34
ENDBRANCH   9  32
BRANCH   1  36
HETATM   36  C   UNL     1       3.382  38.438  61.688  1.00  0.00     0.056 C 
HETATM   37  C   UNL     1       3.564  39.134  60.341  1.00  0.00     0.011 C 
ENDBRANCH   1  36
TORSDOF 9
ENDMDL
MODEL 3
REMARK VINA RESULT:      -7.0      5.692      8.612
REMARK  9 active torsions:
REMARK  status: ('A' for Active; 'I' for Inactive)
REMARK    1  A    between atoms: C_2  and  C_3 
REMARK    2  A    between atoms: C_7  and  C_8 
REMARK    3  A    between atoms: C_8  and  C_9 
REMARK       I    between atoms: C_9  and  N_10 
REMARK    4  A    between atoms: N_10  and  C_11 
REMARK    5  A    between atoms: C_11  and  C_12 
REMARK    6  A    between atoms: C_12  and  N_13 
REMARK    7  A    between atoms: C_21  and  C_22 
REMARK    8  A    between atoms: C_32  and  C_33 
REMARK    9  A    between atoms: C_33  and  O_34 
ROOT
HETATM    1  C   UNL     1       2.093  36.124  57.662  1.00  0.00     0.051 C 
HETATM    2  N   UNL     1       1.091  35.625  58.467  1.00  0.00    -0.228 NA
HETATM    3  C   UNL     1       1.341  35.415  59.709  1.00  0.00     0.170 C 
HETATM    4  N   UNL     1       2.634  35.839  60.451  1.00  0.00    -0.318 N 
HETATM    5  C   UNL     1       2.577  35.515  61.703  1.00  0.00     0.011 C 
HETATM    6  C   UNL     1       3.561  36.665  59.634  1.00  0.00     0.166 C 
HETATM    7  S   UNL     1       0.197  34.658  60.768  1.00  0.00    -0.086 SA
HETATM    8  C   UNL     1       1.408  34.648  62.111  1.00  0.00     0.135 C 
HETATM    9  C   UNL     1       3.290  36.513  58.156  1.00  0.00     0.069 C 
ENDROOT
BRANCH   5  10
HETATM   10  C   UNL     1       3.558  36.017  62.721  1.00  0.00     0.156 C 
BRANCH  10  11
HETATM   11  C   UNL     1       4.714  35.079  62.951  1.00  0.00     0.223 C 
HETATM   12  N   UNL     1       4.454  34.007  63.773  1.00  0.00    -0.359 N 
HETATM   13  H   UNL     1       3.485  33.746  63.938  1.00  0.00     0.162 HD
HETATM   14  O   UNL     1       5.814  35.300  62.463  1.00  0.00    -0.273 OA
BRANCH  12  15
HETATM   15  C   UNL     1       5.451  32.948  63.969  1.00  0.00     0.150 C 
BRANCH  15  16
HETATM   16  C   UNL     1       5.312  31.766  62.987  1.00  0.00     0.254 C 
BRANCH  16  17
HETATM   17  N   UNL     1       6.536  31.647  62.085  1.00  0.00    -0.070 N 
HETATM   18  H   UNL     1       6.672  30.637  61.955  1.00  0.00     0.279 HD
HETATM   19  C   UNL     1       6.362  32.271  60.718  1.00  0.00     0.235 C 
HETATM   20  C   UNL     1       7.564  31.910  59.856  1.00  0.00     0.028 C 
HETATM   21  C   UNL     1       8.871  32.363  60.497  1.00  0.00     0.003 C 
HETATM   22  C   UNL     1       9.001  31.842  61.925  1.00  0.00     0.028 C 
HETATM   23  C   UNL     1       7.780  32.183  62.770  1.00  0.00     0.235 C 
ENDBRANCH  16  17
ENDBRANCH  15  16
ENDBRANCH  12  15
ENDBRANCH  10  11
ENDBRANCH   5  10
BRANCH   6  24
HETATM   24  C   UNL     1       3.484  38.126  60.113  1.00  0.00    -0.024 A 
HETATM   25  C   UNL     1       4.564  38.788  60.749  1.00  0.00    -0.053 A 
HETATM   26  C   UNL     1       5.944  38.206  60.923  1.00  0.00     0.049 C 
HETATM   27  C   UNL     1       4.393  40.118  61.177  1.00  0.00     0.008 A 
HETATM   28  C   UNL     1       3.183  40.788  61.012  1.00  0.00     0.007 A 
HETATM   29  C   UNL     1       2.111  40.155  60.394  1.00  0.00    -0.061 A 
HETATM   30  C   UNL     1       0.829  40.900  60.151  1.00  0.00     0.048 C 
HETATM   31  C   UNL     1       2.275  38.845  59.926  1.00  0.00     0.017 A 
ENDBRANCH   6  24
BRANCH   9  32
HETATM   32  C   UNL     1       4.492  36.753  57.314  1.00  0.00     0.293 C 
HETATM   33  O   UNL     1       4.961  37.863  57.142  1.00  0.00    -0.259 OA
BRANCH  32  34
HETATM   34  O   UNL     1       5.073  35.581  56.979  1.00  0.00    -0.323 OA
HETATM   35  C   UNL     1       5.207  35.345  55.574  1.00  0.00     0.213 C 
ENDBRANCH  32  34
ENDBRANCH   9  32
BRANCH   1  36
HETATM   36  C   UNL     1       1.684  36.191  56.193  1.00  0.00     0.056 C 
HETATM   37  C   UNL     1       1.437  34.820  55.569  1.00  0.00     0.011 C 
ENDBRANCH   1  36
TORSDOF 9
ENDMDL
MODEL 4
REMARK VINA RESULT:      -6.8      1.419      2.033
REMARK  9 active torsions:
REMARK  status: ('A' for Active; 'I' for Inactive)
REMARK    1  A    between atoms: C_2  and  C_3 
REMARK    2  A    between atoms: C_7  and  C_8 
REMARK    3  A    between atoms: C_8  and  C_9 
REMARK       I    between atoms: C_9  and  N_10 
REMARK    4  A    between atoms: N_10  and  C_11 
REMARK    5  A    between atoms: C_11  and  C_12 
REMARK    6  A    between atoms: C_12  and  N_13 
REMARK    7  A    between atoms: C_21  and  C_22 
REMARK    8  A    between atoms: C_32  and  C_33 
REMARK    9  A    between atoms: C_33  and  O_34 
ROOT
HETATM    1  C   UNL     1       6.122  32.451  59.669  1.00  0.00     0.051 C 
HETATM    2  N   UNL     1       7.300  31.903  59.206  1.00  0.00    -0.228 NA
HETATM    3  C   UNL     1       7.245  30.876  58.438  1.00  0.00     0.170 C 
HETATM    4  N   UNL     1       5.953  30.279  57.824  1.00  0.00    -0.318 N 
HETATM    5  C   UNL     1       6.224  29.263  57.069  1.00  0.00     0.011 C 
HETATM    6  C   UNL     1       4.730  31.086  58.078  1.00  0.00     0.166 C 
HETATM    7  S   UNL     1       8.665  30.029  57.922  1.00  0.00    -0.086 SA
HETATM    8  C   UNL     1       7.652  28.769  57.112  1.00  0.00     0.135 C 
HETATM    9  C   UNL     1       4.911  32.022  59.249  1.00  0.00     0.069 C 
ENDROOT
BRANCH   5  10
HETATM   10  C   UNL     1       5.220  28.641  56.145  1.00  0.00     0.156 C 
BRANCH  10  11
HETATM   11  C   UNL     1       5.791  27.530  55.302  1.00  0.00     0.223 C 
HETATM   12  N   UNL     1       5.470  26.254  55.706  1.00  0.00    -0.359 N 
HETATM   13  H   UNL     1       4.677  26.128  56.329  1.00  0.00     0.162 HD
HETATM   14  O   UNL     1       6.523  27.770  54.351  1.00  0.00    -0.273 OA
BRANCH  12  15
HETATM   15  C   UNL     1       5.847  25.090  54.896  1.00  0.00     0.150 C 
BRANCH  15  16
HETATM   16  C   UNL     1       7.188  24.447  55.307  1.00  0.00     0.254 C 
BRANCH  16  17
HETATM   17  N   UNL     1       7.293  23.012  54.802  1.00  0.00    -0.070 N 
HETATM   18  H   UNL     1       6.322  22.713  54.649  1.00  0.00     0.279 HD
HETATM   19  C   UNL     1       8.033  22.869  53.491  1.00  0.00     0.235 C 
HETATM   20  C   UNL     1       7.892  21.435  53.000  1.00  0.00     0.028 C 
HETATM   21  C   UNL     1       8.412  20.436  54.028  1.00  0.00     0.003 C 
HETATM   22  C   UNL     1       7.763  20.652  55.391  1.00  0.00     0.028 C 
HETATM   23  C   UNL     1       7.884  22.097  55.858  1.00  0.00     0.235 C 
ENDBRANCH  16  17
ENDBRANCH  15  16
ENDBRANCH  12  15
ENDBRANCH  10  11
ENDBRANCH   5  10
BRANCH   6  24
HETATM   24  C   UNL     1       4.333  31.814  56.781  1.00  0.00    -0.024 A 
HETATM   25  C   UNL     1       3.290  31.366  55.932  1.00  0.00    -0.053 A 
HETATM   26  C   UNL     1       2.365  30.216  56.242  1.00  0.00     0.049 C 
HETATM   27  C   UNL     1       3.015  32.082  54.752  1.00  0.00     0.008 A 
HETATM   28  C   UNL     1       3.757  33.203  54.388  1.00  0.00     0.007 A 
HETATM   29  C   UNL     1       4.787  33.656  55.205  1.00  0.00    -0.061 A 
HETATM   30  C   UNL     1       5.540  34.907  54.851  1.00  0.00     0.048 C 
HETATM   31  C   UNL     1       5.049  32.980  56.403  1.00  0.00     0.017 A 
ENDBRANCH   6  24
BRANCH   9  32
HETATM   32  C   UNL     1       3.635  32.351  59.937  1.00  0.00     0.293 C 
HETATM   33  O   UNL     1       2.760  33.017  59.412  1.00  0.00    -0.259 OA
BRANCH  32  34
HETATM   34  O   UNL     1       3.519  31.641  61.079  1.00  0.00    -0.323 OA
HETATM   35  C   UNL     1       3.462  32.420  62.278  1.00  0.00     0.213 C 
ENDBRANCH  32  34
ENDBRANCH   9  32
BRANCH   1  36
HETATM   36  C   UNL     1       6.356  33.577  60.672  1.00  0.00     0.056 C 
HETATM   37  C   UNL     1       7.096  33.126  61.929  1.00  0.00     0.011 C 
ENDBRANCH   1  36
TORSDOF 9
ENDMDL
MODEL 5
REMARK VINA RESULT:      -6.6      7.132     10.851
REMARK  9 active torsions:
REMARK  status: ('A' for Active; 'I' for Inactive)
REMARK    1  A    between atoms: C_2  and  C_3 
REMARK    2  A    between atoms: C_7  and  C_8 
REMARK    3  A    between atoms: C_8  and  C_9 
REMARK       I    between atoms: C_9  and  N_10 
REMARK    4  A    between atoms: N_10  and  C_11 
REMARK    5  A    between atoms: C_11  and  C_12 
REMARK    6  A    between atoms: C_12  and  N_13 
REMARK    7  A    between atoms: C_21  and  C_22 
REMARK    8  A    between atoms: C_32  and  C_33 
REMARK    9  A    between atoms: C_33  and  O_34 
ROOT
HETATM    1  C   UNL     1       4.787  38.070  60.003  1.00  0.00     0.051 C 
HETATM    2  N   UNL     1       5.698  38.440  60.970  1.00  0.00    -0.228 NA
HETATM    3  C   UNL     1       5.464  38.130  62.193  1.00  0.00     0.170 C 
HETATM    4  N   UNL     1       4.320  37.206  62.684  1.00  0.00    -0.318 N 
HETATM    5  C   UNL     1       4.362  37.058  63.970  1.00  0.00     0.011 C 
HETATM    6  C   UNL     1       3.550  36.558  61.590  1.00  0.00     0.166 C 
HETATM    7  S   UNL     1       6.470  38.673  63.495  1.00  0.00    -0.086 SA
HETATM    8  C   UNL     1       5.342  37.943  64.706  1.00  0.00     0.135 C 
HETATM    9  C   UNL     1       3.720  37.288  60.279  1.00  0.00     0.069 C 
ENDROOT
BRANCH   5  10
HETATM   10  C   UNL     1       3.552  36.029  64.700  1.00  0.00     0.156 C 
BRANCH  10  11
HETATM   11  C   UNL     1       4.387  34.926  65.300  1.00  0.00     0.223 C 
HETATM   12  N   UNL     1       5.195  35.298  66.350  1.00  0.00    -0.359 N 
HETATM   13  H   UNL     1       4.990  36.168  66.835  1.00  0.00     0.162 HD
HETATM   14  O   UNL     1       4.361  33.793  64.840  1.00  0.00    -0.273 OA
BRANCH  12  15
HETATM   15  C   UNL     1       5.953  34.297  67.109  1.00  0.00     0.150 C 
BRANCH  15  16
HETATM   16  C   UNL     1       5.318  33.926  68.465  1.00  0.00     0.254 C 
BRANCH  16  17
HETATM   17  N   UNL     1       6.256  34.251  69.623  1.00  0.00    -0.070 N 
HETATM   18  H   UNL     1       5.715  34.875  70.235  1.00  0.00     0.279 HD
HETATM   19  C   UNL     1       6.672  33.049  70.441  1.00  0.00     0.235 C 
HETATM   20  C   UNL     1       7.431  33.528  71.670  1.00  0.00     0.028 C 
HETATM   21  C   UNL     1       8.643  34.371  71.289  1.00  0.00     0.003 C 
HETATM   22  C   UNL     1       8.253  35.517  70.361  1.00  0.00     0.028 C 
HETATM   23  C   UNL     1       7.469  35.029  69.150  1.00  0.00     0.235 C 
ENDBRANCH  16  17
ENDBRANCH  15  16
ENDBRANCH  12  15
ENDBRANCH  10  11
ENDBRANCH   5  10
BRANCH   6  24
HETATM   24  C   UNL     1       3.949  35.073  61.509  1.00  0.00    -0.024 A 
HETATM   25  C   UNL     1       3.002  34.023  61.408  1.00  0.00    -0.053 A 
HETATM   26  C   UNL     1       1.516  34.221  61.242  1.00  0.00     0.049 C 
HETATM   27  C   UNL     1       3.459  32.693  61.365  1.00  0.00     0.008 A 
HETATM   28  C   UNL     1       4.815  32.383  61.445  1.00  0.00     0.007 A 
HETATM   29  C   UNL     1       5.759  33.399  61.547  1.00  0.00    -0.061 A 
HETATM   30  C   UNL     1       7.225  33.071  61.559  1.00  0.00     0.048 C 
HETATM   31  C   UNL     1       5.325  34.730  61.551  1.00  0.00     0.017 A 
ENDBRANCH   6  24
BRANCH   9  32
HETATM   32  C   UNL     1       2.558  37.123  59.365  1.00  0.00     0.293 C 
HETATM   33  O   UNL     1       1.591  37.862  59.394  1.00  0.00    -0.259 OA
BRANCH  32  34
HETATM   34  O   UNL     1       2.840  36.217  58.404  1.00  0.00    -0.323 OA
HETATM   35  C   UNL     1       1.701  35.615  57.781  1.00  0.00     0.213 C 
ENDBRANCH  32  34
ENDBRANCH   9  32
BRANCH   1  36
HETATM   36  C   UNL     1       5.137  38.626  58.626  1.00  0.00     0.056 C 
HETATM   37  C   UNL     1       4.406  39.925  58.292  1.00  0.00     0.011 C 
ENDBRANCH   1  36
TORSDOF 9
ENDMDL
MODEL 6
REMARK VINA RESULT:      -6.6      7.138     10.073
REMARK  9 active torsions:
REMARK  status: ('A' for Active; 'I' for Inactive)
REMARK    1  A    between atoms: C_2  and  C_3 
REMARK    2  A    between atoms: C_7  and  C_8 
REMARK    3  A    between atoms: C_8  and  C_9 
REMARK       I    between atoms: C_9  and  N_10 
REMARK    4  A    between atoms: N_10  and  C_11 
REMARK    5  A    between atoms: C_11  and  C_12 
REMARK    6  A    between atoms: C_12  and  N_13 
REMARK    7  A    between atoms: C_21  and  C_22 
REMARK    8  A    between atoms: C_32  and  C_33 
REMARK    9  A    between atoms: C_33  and  O_34 
ROOT
HETATM    1  C   UNL     1       3.134  32.101  47.338  1.00  0.00     0.051 C 
HETATM    2  N   UNL     1       4.132  32.429  48.232  1.00  0.00    -0.228 NA
HETATM    3  C   UNL     1       4.142  31.863  49.384  1.00  0.00     0.170 C 
HETATM    4  N   UNL     1       3.226  30.691  49.819  1.00  0.00    -0.318 N 
HETATM    5  C   UNL     1       3.494  30.317  51.029  1.00  0.00     0.011 C 
HETATM    6  C   UNL     1       2.382  30.140  48.726  1.00  0.00     0.166 C 
HETATM    7  S   UNL     1       5.264  32.312  50.626  1.00  0.00    -0.086 SA
HETATM    8  C   UNL     1       4.454  31.197  51.797  1.00  0.00     0.135 C 
HETATM    9  C   UNL     1       2.239  31.118  47.584  1.00  0.00     0.069 C 
ENDROOT
BRANCH   5  10
HETATM   10  C   UNL     1       2.957  29.052  51.631  1.00  0.00     0.156 C 
BRANCH  10  11
HETATM   11  C   UNL     1       4.010  27.993  51.835  1.00  0.00     0.223 C 
HETATM   12  N   UNL     1       3.813  27.161  52.913  1.00  0.00    -0.359 N 
HETATM   13  H   UNL     1       2.883  27.106  53.320  1.00  0.00     0.162 HD
HETATM   14  O   UNL     1       4.987  27.924  51.102  1.00  0.00    -0.273 OA
BRANCH  12  15
HETATM   15  C   UNL     1       4.688  26.006  53.143  1.00  0.00     0.150 C 
BRANCH  15  16
HETATM   16  C   UNL     1       5.780  26.247  54.207  1.00  0.00     0.254 C 
BRANCH  16  17
HETATM   17  N   UNL     1       6.827  25.139  54.187  1.00  0.00    -0.070 N 
HETATM   18  H   UNL     1       7.729  25.627  54.125  1.00  0.00     0.279 HD
HETATM   19  C   UNL     1       6.849  24.286  55.436  1.00  0.00     0.235 C 
HETATM   20  C   UNL     1       8.057  23.360  55.379  1.00  0.00     0.028 C 
HETATM   21  C   UNL     1       8.038  22.490  54.127  1.00  0.00     0.003 C 
HETATM   22  C   UNL     1       7.889  23.333  52.865  1.00  0.00     0.028 C 
HETATM   23  C   UNL     1       6.696  24.277  52.946  1.00  0.00     0.235 C 
ENDBRANCH  16  17
ENDBRANCH  15  16
ENDBRANCH  12  15
ENDBRANCH  10  11
ENDBRANCH   5  10
BRANCH   6  24
HETATM   24  C   UNL     1       2.957  28.781  48.287  1.00  0.00    -0.024 A 
HETATM   25  C   UNL     1       2.185  27.593  48.246  1.00  0.00    -0.053 A 
HETATM   26  C   UNL     1       0.699  27.526  48.498  1.00  0.00     0.049 C 
HETATM   27  C   UNL     1       2.803  26.390  47.855  1.00  0.00     0.008 A 
HETATM   28  C   UNL     1       4.157  26.335  47.534  1.00  0.00     0.007 A 
HETATM   29  C   UNL     1       4.932  27.489  47.571  1.00  0.00    -0.061 A 
HETATM   30  C   UNL     1       6.375  27.446  47.155  1.00  0.00     0.048 C 
HETATM   31  C   UNL     1       4.325  28.702  47.919  1.00  0.00     0.017 A 
ENDBRANCH   6  24
BRANCH   9  32
HETATM   32  C   UNL     1       0.978  30.939  46.817  1.00  0.00     0.293 C 
HETATM   33  O   UNL     1       0.942  30.381  45.735  1.00  0.00    -0.259 OA
BRANCH  32  34
HETATM   34  O   UNL     1      -0.087  31.274  47.577  1.00  0.00    -0.323 OA
HETATM   35  C   UNL     1      -0.672  32.546  47.281  1.00  0.00     0.213 C 
ENDBRANCH  32  34
ENDBRANCH   9  32
BRANCH   1  36
HETATM   36  C   UNL     1       3.180  32.951  46.072  1.00  0.00     0.056 C 
HETATM   37  C   UNL     1       4.559  32.995  45.419  1.00  0.00     0.011 C 
ENDBRANCH   1  36
TORSDOF 9
ENDMDL
MODEL 7
REMARK VINA RESULT:      -6.6      6.611      9.255
REMARK  9 active torsions:
REMARK  status: ('A' for Active; 'I' for Inactive)
REMARK    1  A    between atoms: C_2  and  C_3 
REMARK    2  A    between atoms: C_7  and  C_8 
REMARK    3  A    between atoms: C_8  and  C_9 
REMARK       I    between atoms: C_9  and  N_10 
REMARK    4  A    between atoms: N_10  and  C_11 
REMARK    5  A    between atoms: C_11  and  C_12 
REMARK    6  A    between atoms: C_12  and  N_13 
REMARK    7  A    between atoms: C_21  and  C_22 
REMARK    8  A    between atoms: C_32  and  C_33 
REMARK    9  A    between atoms: C_33  and  O_34 
ROOT
HETATM    1  C   UNL     1       4.804  31.778  47.704  1.00  0.00     0.051 C 
HETATM    2  N   UNL     1       4.640  30.480  47.268  1.00  0.00    -0.228 NA
HETATM    3  C   UNL     1       4.229  29.594  48.102  1.00  0.00     0.170 C 
HETATM    4  N   UNL     1       3.721  29.877  49.538  1.00  0.00    -0.318 N 
HETATM    5  C   UNL     1       3.347  28.784  50.122  1.00  0.00     0.011 C 
HETATM    6  C   UNL     1       3.602  31.322  49.868  1.00  0.00     0.166 C 
HETATM    7  S   UNL     1       4.129  27.913  47.692  1.00  0.00    -0.086 SA
HETATM    8  C   UNL     1       3.667  27.500  49.391  1.00  0.00     0.135 C 
HETATM    9  C   UNL     1       4.434  32.177  48.941  1.00  0.00     0.069 C 
ENDROOT
BRANCH   5  10
HETATM   10  C   UNL     1       2.578  28.768  51.410  1.00  0.00     0.156 C 
BRANCH  10  11
HETATM   11  C   UNL     1       3.458  28.738  52.632  1.00  0.00     0.223 C 
HETATM   12  N   UNL     1       3.821  27.486  53.073  1.00  0.00    -0.359 N 
HETATM   13  H   UNL     1       3.736  26.703  52.431  1.00  0.00     0.162 HD
HETATM   14  O   UNL     1       3.781  29.772  53.203  1.00  0.00    -0.273 OA
BRANCH  12  15
HETATM   15  C   UNL     1       4.784  27.322  54.168  1.00  0.00     0.150 C 
BRANCH  15  16
HETATM   16  C   UNL     1       6.244  27.149  53.699  1.00  0.00     0.254 C 
BRANCH  16  17
HETATM   17  N   UNL     1       6.640  25.677  53.650  1.00  0.00    -0.070 N 
HETATM   18  H   UNL     1       5.790  25.184  53.352  1.00  0.00     0.279 HD
HETATM   19  C   UNL     1       7.732  25.362  52.651  1.00  0.00     0.235 C 
HETATM   20  C   UNL     1       7.889  23.851  52.555  1.00  0.00     0.028 C 
HETATM   21  C   UNL     1       8.200  23.231  53.913  1.00  0.00     0.003 C 
HETATM   22  C   UNL     1       7.173  23.644  54.961  1.00  0.00     0.028 C 
HETATM   23  C   UNL     1       7.001  25.157  55.028  1.00  0.00     0.235 C 
ENDBRANCH  16  17
ENDBRANCH  15  16
ENDBRANCH  12  15
ENDBRANCH  10  11
ENDBRANCH   5  10
BRANCH   6  24
HETATM   24  C   UNL     1       2.113  31.713  49.873  1.00  0.00    -0.024 A 
HETATM   25  C   UNL     1       1.481  32.334  50.979  1.00  0.00    -0.053 A 
HETATM   26  C   UNL     1       2.194  32.802  52.223  1.00  0.00     0.049 C 
HETATM   27  C   UNL     1       0.108  32.632  50.903  1.00  0.00     0.008 A 
HETATM   28  C   UNL     1      -0.648  32.309  49.779  1.00  0.00     0.007 A 
HETATM   29  C   UNL     1      -0.048  31.697  48.684  1.00  0.00    -0.061 A 
HETATM   30  C   UNL     1      -0.846  31.414  47.443  1.00  0.00     0.048 C 
HETATM   31  C   UNL     1       1.326  31.429  48.727  1.00  0.00     0.017 A 
ENDBRANCH   6  24
BRANCH   9  32
HETATM   32  C   UNL     1       4.870  33.456  49.561  1.00  0.00     0.293 C 
HETATM   33  O   UNL     1       4.271  34.504  49.393  1.00  0.00    -0.259 OA
BRANCH  32  34
HETATM   34  O   UNL     1       5.845  33.232  50.468  1.00  0.00    -0.323 OA
HETATM   35  C   UNL     1       5.870  34.139  51.574  1.00  0.00     0.213 C 
ENDBRANCH  32  34
ENDBRANCH   9  32
BRANCH   1  36
HETATM   36  C   UNL     1       5.422  32.678  46.638  1.00  0.00     0.056 C 
HETATM   37  C   UNL     1       5.014  32.304  45.215  1.00  0.00     0.011 C 
ENDBRANCH   1  36
TORSDOF 9
ENDMDL
MODEL 8
REMARK VINA RESULT:      -6.5      3.119      4.306
REMARK  9 active torsions:
REMARK  status: ('A' for Active; 'I' for Inactive)
REMARK    1  A    between atoms: C_2  and  C_3 
REMARK    2  A    between atoms: C_7  and  C_8 
REMARK    3  A    between atoms: C_8  and  C_9 
REMARK       I    between atoms: C_9  and  N_10 
REMARK    4  A    between atoms: N_10  and  C_11 
REMARK    5  A    between atoms: C_11  and  C_12 
REMARK    6  A    between atoms: C_12  and  N_13 
REMARK    7  A    between atoms: C_21  and  C_22 
REMARK    8  A    between atoms: C_32  and  C_33 
REMARK    9  A    between atoms: C_33  and  O_34 
ROOT
HETATM    1  C   UNL     1       2.526  34.083  56.414  1.00  0.00     0.051 C 
HETATM    2  N   UNL     1       3.586  33.825  57.257  1.00  0.00    -0.228 NA
HETATM    3  C   UNL     1       4.265  32.748  57.088  1.00  0.00     0.170 C 
HETATM    4  N   UNL     1       4.118  31.771  55.894  1.00  0.00    -0.318 N 
HETATM    5  C   UNL     1       4.962  30.793  55.988  1.00  0.00     0.011 C 
HETATM    6  C   UNL     1       3.193  32.243  54.831  1.00  0.00     0.166 C 
HETATM    7  S   UNL     1       5.520  32.264  58.179  1.00  0.00    -0.086 SA
HETATM    8  C   UNL     1       5.731  30.705  57.288  1.00  0.00     0.135 C 
HETATM    9  C   UNL     1       2.250  33.306  55.342  1.00  0.00     0.069 C 
ENDROOT
BRANCH   5  10
HETATM   10  C   UNL     1       5.234  29.837  54.865  1.00  0.00     0.156 C 
BRANCH  10  11
HETATM   11  C   UNL     1       6.014  28.620  55.291  1.00  0.00     0.223 C 
HETATM   12  N   UNL     1       5.358  27.763  56.144  1.00  0.00    -0.359 N 
HETATM   13  H   UNL     1       4.346  27.825  56.210  1.00  0.00     0.162 HD
HETATM   14  O   UNL     1       7.168  28.449  54.922  1.00  0.00    -0.273 OA
BRANCH  12  15
HETATM   15  C   UNL     1       5.953  26.477  56.524  1.00  0.00     0.150 C 
BRANCH  15  16
HETATM   16  C   UNL     1       5.500  25.292  55.646  1.00  0.00     0.254 C 
BRANCH  16  17
HETATM   17  N   UNL     1       6.666  24.714  54.851  1.00  0.00    -0.070 N 
HETATM   18  H   UNL     1       7.396  25.435  54.888  1.00  0.00     0.279 HD
HETATM   19  C   UNL     1       7.241  23.441  55.431  1.00  0.00     0.235 C 
HETATM   20  C   UNL     1       8.510  23.083  54.671  1.00  0.00     0.028 C 
HETATM   21  C   UNL     1       8.245  22.926  53.178  1.00  0.00     0.003 C 
HETATM   22  C   UNL     1       7.550  24.156  52.605  1.00  0.00     0.028 C 
HETATM   23  C   UNL     1       6.298  24.523  53.391  1.00  0.00     0.235 C 
ENDBRANCH  16  17
ENDBRANCH  15  16
ENDBRANCH  12  15
ENDBRANCH  10  11
ENDBRANCH   5  10
BRANCH   6  24
HETATM   24  C   UNL     1       4.020  32.705  53.617  1.00  0.00    -0.024 A 
HETATM   25  C   UNL     1       3.892  32.126  52.330  1.00  0.00    -0.053 A 
HETATM   26  C   UNL     1       2.862  31.091  51.953  1.00  0.00     0.049 C 
HETATM   27  C   UNL     1       4.709  32.597  51.285  1.00  0.00     0.008 A 
HETATM   28  C   UNL     1       5.656  33.598  51.492  1.00  0.00     0.007 A 
HETATM   29  C   UNL     1       5.799  34.176  52.749  1.00  0.00    -0.061 A 
HETATM   30  C   UNL     1       6.767  35.306  52.956  1.00  0.00     0.048 C 
HETATM   31  C   UNL     1       4.967  33.748  53.790  1.00  0.00     0.017 A 
ENDBRANCH   6  24
BRANCH   9  32
HETATM   32  C   UNL     1       0.962  33.350  54.601  1.00  0.00     0.293 C 
HETATM   33  O   UNL     1       0.886  33.703  53.438  1.00  0.00    -0.259 OA
BRANCH  32  34
HETATM   34  O   UNL     1      -0.014  32.752  55.318  1.00  0.00    -0.323 OA
HETATM   35  C   UNL     1      -1.307  33.357  55.211  1.00  0.00     0.213 C 
ENDBRANCH  32  34
ENDBRANCH   9  32
BRANCH   1  36
HETATM   36  C   UNL     1       1.741  35.325  56.825  1.00  0.00     0.056 C 
HETATM   37  C   UNL     1       2.041  35.789  58.248  1.00  0.00     0.011 C 
ENDBRANCH   1  36
TORSDOF 9
ENDMDL
MODEL 9
REMARK VINA RESULT:      -6.5      6.764      9.658
REMARK  9 active torsions:
REMARK  status: ('A' for Active; 'I' for Inactive)
REMARK    1  A    between atoms: C_2  and  C_3 
REMARK    2  A    between atoms: C_7  and  C_8 
REMARK    3  A    between atoms: C_8  and  C_9 
REMARK       I    between atoms: C_9  and  N_10 
REMARK    4  A    between atoms: N_10  and  C_11 
REMARK    5  A    between atoms: C_11  and  C_12 
REMARK    6  A    between atoms: C_12  and  N_13 
REMARK    7  A    between atoms: C_21  and  C_22 
REMARK    8  A    between atoms: C_32  and  C_33 
REMARK    9  A    between atoms: C_33  and  O_34 
ROOT
HETATM    1  C   UNL     1       4.587  31.617  46.587  1.00  0.00     0.051 C 
HETATM    2  N   UNL     1       4.257  30.279  46.556  1.00  0.00    -0.228 NA
HETATM    3  C   UNL     1       4.530  29.550  47.576  1.00  0.00     0.170 C 
HETATM    4  N   UNL     1       5.049  30.070  48.941  1.00  0.00    -0.318 N 
HETATM    5  C   UNL     1       5.202  29.096  49.781  1.00  0.00     0.011 C 
HETATM    6  C   UNL     1       5.086  31.551  49.053  1.00  0.00     0.166 C 
HETATM    7  S   UNL     1       4.288  27.834  47.580  1.00  0.00    -0.086 SA
HETATM    8  C   UNL     1       5.050  27.703  49.214  1.00  0.00     0.135 C 
HETATM    9  C   UNL     1       5.077  32.215  47.696  1.00  0.00     0.069 C 
ENDROOT
BRANCH   5  10
HETATM   10  C   UNL     1       5.442  29.311  51.246  1.00  0.00     0.156 C 
BRANCH  10  11
HETATM   11  C   UNL     1       4.771  28.283  52.120  1.00  0.00     0.223 C 
HETATM   12  N   UNL     1       5.519  27.163  52.399  1.00  0.00    -0.359 N 
HETATM   13  H   UNL     1       6.526  27.206  52.264  1.00  0.00     0.162 HD
HETATM   14  O   UNL     1       3.621  28.438  52.508  1.00  0.00    -0.273 OA
BRANCH  12  15
HETATM   15  C   UNL     1       5.036  26.152  53.347  1.00  0.00     0.150 C 
BRANCH  15  16
HETATM   16  C   UNL     1       6.050  25.796  54.455  1.00  0.00     0.254 C 
BRANCH  16  17
HETATM   17  N   UNL     1       6.601  24.386  54.270  1.00  0.00    -0.070 N 
HETATM   18  H   UNL     1       5.779  23.804  54.070  1.00  0.00     0.279 HD
HETATM   19  C   UNL     1       7.562  24.243  53.110  1.00  0.00     0.235 C 
HETATM   20  C   UNL     1       7.877  22.767  52.911  1.00  0.00     0.028 C 
HETATM   21  C   UNL     1       8.455  22.141  54.174  1.00  0.00     0.003 C 
HETATM   22  C   UNL     1       7.554  22.387  55.380  1.00  0.00     0.028 C 
HETATM   23  C   UNL     1       7.221  23.863  55.552  1.00  0.00     0.235 C 
ENDBRANCH  16  17
ENDBRANCH  15  16
ENDBRANCH  12  15
ENDBRANCH  10  11
ENDBRANCH   5  10
BRANCH   6  24
HETATM   24  C   UNL     1       3.930  32.015  49.957  1.00  0.00    -0.024 A 
HETATM   25  C   UNL     1       4.117  32.857  51.081  1.00  0.00    -0.053 A 
HETATM   26  C   UNL     1       5.426  33.504  51.460  1.00  0.00     0.049 C 
HETATM   27  C   UNL     1       3.003  33.208  51.866  1.00  0.00     0.008 A 
HETATM   28  C   UNL     1       1.727  32.727  51.579  1.00  0.00     0.007 A 
HETATM   29  C   UNL     1       1.523  31.897  50.483  1.00  0.00    -0.061 A 
HETATM   30  C   UNL     1       0.137  31.437  50.130  1.00  0.00     0.048 C 
HETATM   31  C   UNL     1       2.613  31.569  49.668  1.00  0.00     0.017 A 
ENDBRANCH   6  24
BRANCH   9  32
HETATM   32  C   UNL     1       5.734  33.548  47.694  1.00  0.00     0.293 C 
HETATM   33  O   UNL     1       5.135  34.576  47.956  1.00  0.00    -0.259 OA
BRANCH  32  34
HETATM   34  O   UNL     1       7.073  33.413  47.584  1.00  0.00    -0.323 OA
HETATM   35  C   UNL     1       7.676  34.153  46.518  1.00  0.00     0.213 C 
ENDBRANCH  32  34
ENDBRANCH   9  32
BRANCH   1  36
HETATM   36  C   UNL     1       4.323  32.316  45.256  1.00  0.00     0.056 C 
HETATM   37  C   UNL     1       2.953  32.986  45.184  1.00  0.00     0.011 C 
ENDBRANCH   1  36
TORSDOF 9
ENDMDL
MODEL 10
REMARK VINA RESULT:      -6.3      3.579      6.442
REMARK  9 active torsions:
REMARK  status: ('A' for Active; 'I' for Inactive)
REMARK    1  A    between atoms: C_2  and  C_3 
REMARK    2  A    between atoms: C_7  and  C_8 
REMARK    3  A    between atoms: C_8  and  C_9 
REMARK       I    between atoms: C_9  and  N_10 
REMARK    4  A    between atoms: N_10  and  C_11 
REMARK    5  A    between atoms: C_11  and  C_12 
REMARK    6  A    between atoms: C_12  and  N_13 
REMARK    7  A    between atoms: C_21  and  C_22 
REMARK    8  A    between atoms: C_32  and  C_33 
REMARK    9  A    between atoms: C_33  and  O_34 
ROOT
HETATM    1  C   UNL     1       3.323  38.174  58.832  1.00  0.00     0.051 C 
HETATM    2  N   UNL     1       2.766  37.448  57.800  1.00  0.00    -0.228 NA
HETATM    3  C   UNL     1       3.170  36.246  57.599  1.00  0.00     0.170 C 
HETATM    4  N   UNL     1       4.118  35.448  58.530  1.00  0.00    -0.318 N 
HETATM    5  C   UNL     1       4.316  34.252  58.075  1.00  0.00     0.011 C 
HETATM    6  C   UNL     1       4.444  36.140  59.804  1.00  0.00     0.166 C 
HETATM    7  S   UNL     1       2.639  35.306  56.244  1.00  0.00    -0.086 SA
HETATM    8  C   UNL     1       3.776  33.972  56.691  1.00  0.00     0.135 C 
HETATM    9  C   UNL     1       4.189  37.626  59.714  1.00  0.00     0.069 C 
ENDROOT
BRANCH   5  10
HETATM   10  C   UNL     1       4.974  33.171  58.880  1.00  0.00     0.156 C 
BRANCH  10  11
HETATM   11  C   UNL     1       4.688  31.784  58.364  1.00  0.00     0.223 C 
HETATM   12  N   UNL     1       5.709  31.192  57.656  1.00  0.00    -0.359 N 
HETATM   13  H   UNL     1       6.649  31.565  57.758  1.00  0.00     0.162 HD
HETATM   14  O   UNL     1       3.598  31.256  58.540  1.00  0.00    -0.273 OA
BRANCH  12  15
HETATM   15  C   UNL     1       5.611  29.795  57.218  1.00  0.00     0.150 C 
BRANCH  15  16
HETATM   16  C   UNL     1       6.815  28.922  57.631  1.00  0.00     0.254 C 
BRANCH  16  17
HETATM   17  N   UNL     1       8.135  29.647  57.386  1.00  0.00    -0.070 N 
HETATM   18  H   UNL     1       7.877  30.506  56.886  1.00  0.00     0.279 HD
HETATM   19  C   UNL     1       8.865  30.048  58.649  1.00  0.00     0.235 C 
HETATM   20  C   UNL     1      10.048  30.930  58.274  1.00  0.00     0.028 C 
HETATM   21  C   UNL     1      10.989  30.225  57.304  1.00  0.00     0.003 C 
HETATM   22  C   UNL     1      10.240  29.704  56.082  1.00  0.00     0.028 C 
HETATM   23  C   UNL     1       9.041  28.848  56.469  1.00  0.00     0.235 C 
ENDBRANCH  16  17
ENDBRANCH  15  16
ENDBRANCH  12  15
ENDBRANCH  10  11
ENDBRANCH   5  10
BRANCH   6  24
HETATM   24  C   UNL     1       3.672  35.466  60.952  1.00  0.00    -0.024 A 
HETATM   25  C   UNL     1       4.311  34.870  62.067  1.00  0.00    -0.053 A 
HETATM   26  C   UNL     1       5.794  34.927  62.339  1.00  0.00     0.049 C 
HETATM   27  C   UNL     1       3.524  34.253  63.057  1.00  0.00     0.008 A 
HETATM   28  C   UNL     1       2.136  34.192  62.954  1.00  0.00     0.007 A 
HETATM   29  C   UNL     1       1.490  34.768  61.865  1.00  0.00    -0.061 A 
HETATM   30  C   UNL     1      -0.011  34.767  61.789  1.00  0.00     0.048 C 
HETATM   31  C   UNL     1       2.255  35.421  60.891  1.00  0.00     0.017 A 
ENDBRANCH   6  24
BRANCH   9  32
HETATM   32  C   UNL     1       5.046  38.422  60.632  1.00  0.00     0.293 C 
HETATM   33  O   UNL     1       6.052  38.997  60.256  1.00  0.00    -0.259 OA
BRANCH  32  34
HETATM   34  O   UNL     1       4.437  38.580  61.826  1.00  0.00    -0.323 OA
HETATM   35  C   UNL     1       5.310  38.600  62.959  1.00  0.00     0.213 C 
ENDBRANCH  32  34
ENDBRANCH   9  32
BRANCH   1  36
HETATM   36  C   UNL     1       2.840  39.621  58.857  1.00  0.00     0.056 C 
HETATM   37  C   UNL     1       1.690  39.860  59.832  1.00  0.00     0.011 C 
ENDBRANCH   1  36
TORSDOF 9
ENDMDL
