MODEL 1
REMARK VINA RESULT:      -8.1      0.000      0.000
REMARK  6 active torsions:
REMARK  status: ('A' for Active; 'I' for Inactive)
REMARK    1  A    between atoms: C_4  and  C_5 
REMARK    2  A    between atoms: C_5  and  C_6 
REMARK    3  A    between atoms: C_6  and  C_7 
REMARK    4  A    between atoms: C_7  and  C_8 
REMARK       I    between atoms: C_8  and  N_9 
REMARK    5  A    between atoms: N_9  and  C_10 
REMARK    6  A    between atoms: C_12  and  C_13 
ROOT
HETATM    1  C   UNL     1       8.379  22.635  56.389  1.00  0.00     0.222 C 
HETATM    2  N   UNL     1       7.757  23.508  57.229  1.00  0.00    -0.327 N 
HETATM    3  O   UNL     1       8.673  21.530  56.854  1.00  0.00    -0.273 OA
HETATM    4  H   UNL     1       7.634  23.065  58.134  1.00  0.00     0.169 HD
ENDROOT
BRANCH   2   5
HETATM    5  C   UNL     1       7.304  24.838  57.141  1.00  0.00     0.035 A 
HETATM    6  C   UNL     1       8.070  25.986  57.353  1.00  0.00     0.042 A 
HETATM    7  C   UNL     1       7.496  27.270  57.270  1.00  0.00    -0.021 A 
HETATM    8  C   UNL     1       6.137  27.396  56.964  1.00  0.00     0.012 A 
HETATM    9  C   UNL     1       5.365  26.261  56.737  1.00  0.00     0.003 A 
HETATM   10  C   UNL     1       5.946  24.995  56.825  1.00  0.00     0.029 A 
BRANCH   7  11
HETATM   11  C   UNL     1       8.289  28.461  57.520  1.00  0.00     0.010 A 
HETATM   12  C   UNL     1       9.535  28.868  56.988  1.00  0.00     0.152 A 
HETATM   13  N   UNL     1       9.953  30.036  57.483  1.00  0.00    -0.187 NA
HETATM   14  N   UNL     1       8.977  30.382  58.337  1.00  0.00    -0.289 N 
HETATM   15  H   UNL     1       9.074  31.251  58.851  1.00  0.00     0.188 HD
HETATM   16  C   UNL     1       7.958  29.473  58.396  1.00  0.00     0.123 A 
ENDBRANCH   7  11
ENDBRANCH   2   5
BRANCH   1  17
HETATM   17  C   UNL     1       8.692  22.996  54.953  1.00  0.00     0.103 C 
BRANCH  17  18
HETATM   18  C   UNL     1       7.509  22.800  54.000  1.00  0.00     0.014 C 
BRANCH  18  19
HETATM   19  C   UNL     1       7.584  23.687  52.751  1.00  0.00     0.039 C 
BRANCH  19  20
HETATM   20  C   UNL     1       6.886  25.007  52.974  1.00  0.00    -0.058 A 
HETATM   21  C   UNL     1       5.489  25.089  52.889  1.00  0.00     0.007 A 
HETATM   22  C   UNL     1       4.839  26.310  53.069  1.00  0.00     0.001 A 
HETATM   23  C   UNL     1       5.577  27.460  53.337  1.00  0.00     0.000 A 
HETATM   24  C   UNL     1       6.967  27.391  53.426  1.00  0.00     0.001 A 
HETATM   25  C   UNL     1       7.620  26.170  53.243  1.00  0.00     0.007 A 
ENDBRANCH  19  20
ENDBRANCH  18  19
ENDBRANCH  17  18
ENDBRANCH   1  17
TORSDOF 6
ENDMDL
MODEL 2
REMARK VINA RESULT:      -8.0      2.372      4.201
REMARK  6 active torsions:
REMARK  status: ('A' for Active; 'I' for Inactive)
REMARK    1  A    between atoms: C_4  and  C_5 
REMARK    2  A    between atoms: C_5  and  C_6 
REMARK    3  A    between atoms: C_6  and  C_7 
REMARK    4  A    between atoms: C_7  and  C_8 
REMARK       I    between atoms: C_8  and  N_9 
REMARK    5  A    between atoms: N_9  and  C_10 
REMARK    6  A    between atoms: C_12  and  C_13 
ROOT
HETATM    1  C   UNL     1       6.565  26.240  52.311  1.00  0.00     0.222 C 
HETATM    2  N   UNL     1       6.381  27.089  53.359  1.00  0.00    -0.327 N 
HETATM    3  O   UNL     1       5.873  26.438  51.307  1.00  0.00    -0.273 OA
HETATM    4  H   UNL     1       5.674  27.774  53.111  1.00  0.00     0.169 HD
ENDROOT
BRANCH   2   5
HETATM    5  C   UNL     1       6.897  27.201  54.665  1.00  0.00     0.035 A 
HETATM    6  C   UNL     1       7.794  28.170  55.117  1.00  0.00     0.042 A 
HETATM    7  C   UNL     1       8.269  28.161  56.443  1.00  0.00    -0.021 A 
HETATM    8  C   UNL     1       7.830  27.167  57.322  1.00  0.00     0.012 A 
HETATM    9  C   UNL     1       6.926  26.202  56.889  1.00  0.00     0.003 A 
HETATM   10  C   UNL     1       6.465  26.221  55.572  1.00  0.00     0.029 A 
BRANCH   7  11
HETATM   11  C   UNL     1       9.225  29.155  56.901  1.00  0.00     0.010 A 
HETATM   12  C   UNL     1      10.475  29.548  56.368  1.00  0.00     0.152 A 
HETATM   13  N   UNL     1      11.072  30.497  57.093  1.00  0.00    -0.187 NA
HETATM   14  N   UNL     1      10.208  30.714  58.097  1.00  0.00    -0.289 N 
HETATM   15  H   UNL     1      10.450  31.407  58.799  1.00  0.00     0.188 HD
HETATM   16  C   UNL     1       9.087  29.937  58.029  1.00  0.00     0.123 A 
ENDBRANCH   7  11
ENDBRANCH   2   5
BRANCH   1  17
HETATM   17  C   UNL     1       7.571  25.112  52.366  1.00  0.00     0.103 C 
BRANCH  17  18
HETATM   18  C   UNL     1       6.977  23.784  52.847  1.00  0.00     0.014 C 
BRANCH  18  19
HETATM   19  C   UNL     1       8.009  22.653  52.930  1.00  0.00     0.039 C 
BRANCH  19  20
HETATM   20  C   UNL     1       8.102  22.098  54.331  1.00  0.00    -0.058 A 
HETATM   21  C   UNL     1       8.321  22.957  55.416  1.00  0.00     0.007 A 
HETATM   22  C   UNL     1       8.433  22.449  56.711  1.00  0.00     0.001 A 
HETATM   23  C   UNL     1       8.325  21.079  56.934  1.00  0.00     0.000 A 
HETATM   24  C   UNL     1       8.105  20.214  55.862  1.00  0.00     0.001 A 
HETATM   25  C   UNL     1       7.996  20.721  54.565  1.00  0.00     0.007 A 
ENDBRANCH  19  20
ENDBRANCH  18  19
ENDBRANCH  17  18
ENDBRANCH   1  17
TORSDOF 6
ENDMDL
MODEL 3
REMARK VINA RESULT:      -7.8      2.805      4.971
REMARK  6 active torsions:
REMARK  status: ('A' for Active; 'I' for Inactive)
REMARK    1  A    between atoms: C_4  and  C_5 
REMARK    2  A    between atoms: C_5  and  C_6 
REMARK    3  A    between atoms: C_6  and  C_7 
REMARK    4  A    between atoms: C_7  and  C_8 
REMARK       I    between atoms: C_8  and  N_9 
REMARK    5  A    between atoms: N_9  and  C_10 
REMARK    6  A    between atoms: C_12  and  C_13 
ROOT
HETATM    1  C   UNL     1       7.309  27.650  54.490  1.00  0.00     0.222 C 
HETATM    2  N   UNL     1       7.907  28.828  54.817  1.00  0.00    -0.327 N 
HETATM    3  O   UNL     1       6.706  27.613  53.413  1.00  0.00    -0.273 OA
HETATM    4  H   UNL     1       7.748  29.499  54.072  1.00  0.00     0.169 HD
ENDROOT
BRANCH   2   5
HETATM    5  C   UNL     1       8.630  29.315  55.924  1.00  0.00     0.035 A 
HETATM    6  C   UNL     1       8.091  29.728  57.144  1.00  0.00     0.042 A 
HETATM    7  C   UNL     1       8.914  30.232  58.170  1.00  0.00    -0.021 A 
HETATM    8  C   UNL     1      10.295  30.314  57.964  1.00  0.00     0.012 A 
HETATM    9  C   UNL     1      10.847  29.895  56.758  1.00  0.00     0.003 A 
HETATM   10  C   UNL     1      10.020  29.400  55.749  1.00  0.00     0.029 A 
BRANCH   7  11
HETATM   11  C   UNL     1       8.347  30.687  59.428  1.00  0.00     0.010 A 
HETATM   12  C   UNL     1       8.820  30.555  60.754  1.00  0.00     0.152 A 
HETATM   13  N   UNL     1       7.996  31.101  61.654  1.00  0.00    -0.187 NA
HETATM   14  N   UNL     1       6.991  31.582  60.907  1.00  0.00    -0.289 N 
HETATM   15  H   UNL     1       6.222  32.048  61.378  1.00  0.00     0.188 HD
HETATM   16  C   UNL     1       7.152  31.361  59.569  1.00  0.00     0.123 A 
ENDBRANCH   7  11
ENDBRANCH   2   5
BRANCH   1  17
HETATM   17  C   UNL     1       7.378  26.441  55.397  1.00  0.00     0.103 C 
BRANCH  17  18
HETATM   18  C   UNL     1       7.610  25.125  54.647  1.00  0.00     0.014 C 
BRANCH  18  19
HETATM   19  C   UNL     1       6.903  23.927  55.293  1.00  0.00     0.039 C 
BRANCH  19  20
HETATM   20  C   UNL     1       7.488  22.622  54.812  1.00  0.00    -0.058 A 
HETATM   21  C   UNL     1       7.710  22.411  53.443  1.00  0.00     0.007 A 
HETATM   22  C   UNL     1       8.228  21.197  52.988  1.00  0.00     0.001 A 
HETATM   23  C   UNL     1       8.529  20.184  53.895  1.00  0.00     0.000 A 
HETATM   24  C   UNL     1       8.314  20.383  55.258  1.00  0.00     0.001 A 
HETATM   25  C   UNL     1       7.794  21.596  55.715  1.00  0.00     0.007 A 
ENDBRANCH  19  20
ENDBRANCH  18  19
ENDBRANCH  17  18
ENDBRANCH   1  17
TORSDOF 6
ENDMDL
MODEL 4
REMARK VINA RESULT:      -7.7      2.524      4.428
REMARK  6 active torsions:
REMARK  status: ('A' for Active; 'I' for Inactive)
REMARK    1  A    between atoms: C_4  and  C_5 
REMARK    2  A    between atoms: C_5  and  C_6 
REMARK    3  A    between atoms: C_6  and  C_7 
REMARK    4  A    between atoms: C_7  and  C_8 
REMARK       I    between atoms: C_8  and  N_9 
REMARK    5  A    between atoms: N_9  and  C_10 
REMARK    6  A    between atoms: C_12  and  C_13 
ROOT
HETATM    1  C   UNL     1       5.078  25.357  52.292  1.00  0.00     0.222 C 
HETATM    2  N   UNL     1       4.373  26.091  53.197  1.00  0.00    -0.327 N 
HETATM    3  O   UNL     1       4.575  24.288  51.931  1.00  0.00    -0.273 OA
HETATM    4  H   UNL     1       3.510  25.604  53.419  1.00  0.00     0.169 HD
ENDROOT
BRANCH   2   5
HETATM    5  C   UNL     1       4.581  27.297  53.893  1.00  0.00     0.035 A 
HETATM    6  C   UNL     1       5.481  27.501  54.941  1.00  0.00     0.042 A 
HETATM    7  C   UNL     1       5.577  28.749  55.586  1.00  0.00    -0.021 A 
HETATM    8  C   UNL     1       4.760  29.804  55.166  1.00  0.00     0.012 A 
HETATM    9  C   UNL     1       3.867  29.619  54.114  1.00  0.00     0.003 A 
HETATM   10  C   UNL     1       3.781  28.376  53.485  1.00  0.00     0.029 A 
BRANCH   7  11
HETATM   11  C   UNL     1       6.494  28.949  56.695  1.00  0.00     0.010 A 
HETATM   12  C   UNL     1       7.276  28.022  57.423  1.00  0.00     0.152 A 
HETATM   13  N   UNL     1       7.990  28.598  58.394  1.00  0.00    -0.187 NA
HETATM   14  N   UNL     1       7.666  29.897  58.294  1.00  0.00    -0.289 N 
HETATM   15  H   UNL     1       8.089  30.550  58.945  1.00  0.00     0.188 HD
HETATM   16  C   UNL     1       6.775  30.160  57.293  1.00  0.00     0.123 A 
ENDBRANCH   7  11
ENDBRANCH   2   5
BRANCH   1  17
HETATM   17  C   UNL     1       6.409  25.826  51.749  1.00  0.00     0.103 C 
BRANCH  17  18
HETATM   18  C   UNL     1       7.593  24.964  52.201  1.00  0.00     0.014 C 
BRANCH  18  19
HETATM   19  C   UNL     1       7.594  24.679  53.708  1.00  0.00     0.039 C 
BRANCH  19  20
HETATM   20  C   UNL     1       7.731  23.201  53.985  1.00  0.00    -0.058 A 
HETATM   21  C   UNL     1       7.880  22.296  52.925  1.00  0.00     0.007 A 
HETATM   22  C   UNL     1       7.982  20.926  53.171  1.00  0.00     0.001 A 
HETATM   23  C   UNL     1       7.939  20.448  54.478  1.00  0.00     0.000 A 
HETATM   24  C   UNL     1       7.793  21.339  55.541  1.00  0.00     0.001 A 
HETATM   25  C   UNL     1       7.687  22.710  55.296  1.00  0.00     0.007 A 
ENDBRANCH  19  20
ENDBRANCH  18  19
ENDBRANCH  17  18
ENDBRANCH   1  17
TORSDOF 6
ENDMDL
MODEL 5
REMARK VINA RESULT:      -7.7      2.717      6.721
REMARK  6 active torsions:
REMARK  status: ('A' for Active; 'I' for Inactive)
REMARK    1  A    between atoms: C_4  and  C_5 
REMARK    2  A    between atoms: C_5  and  C_6 
REMARK    3  A    between atoms: C_6  and  C_7 
REMARK    4  A    between atoms: C_7  and  C_8 
REMARK       I    between atoms: C_8  and  N_9 
REMARK    5  A    between atoms: N_9  and  C_10 
REMARK    6  A    between atoms: C_12  and  C_13 
ROOT
HETATM    1  C   UNL     1       5.806  26.385  56.620  1.00  0.00     0.222 C 
HETATM    2  N   UNL     1       5.654  25.870  55.369  1.00  0.00    -0.327 N 
HETATM    3  O   UNL     1       4.897  27.109  57.037  1.00  0.00    -0.273 OA
HETATM    4  H   UNL     1       4.768  26.185  54.986  1.00  0.00     0.169 HD
ENDROOT
BRANCH   2   5
HETATM    5  C   UNL     1       6.431  25.069  54.510  1.00  0.00     0.035 A 
HETATM    6  C   UNL     1       6.868  23.768  54.767  1.00  0.00     0.042 A 
HETATM    7  C   UNL     1       7.673  23.075  53.842  1.00  0.00    -0.021 A 
HETATM    8  C   UNL     1       8.036  23.699  52.644  1.00  0.00     0.012 A 
HETATM    9  C   UNL     1       7.597  24.990  52.370  1.00  0.00     0.003 A 
HETATM   10  C   UNL     1       6.801  25.666  53.295  1.00  0.00     0.029 A 
BRANCH   7  11
HETATM   11  C   UNL     1       8.150  21.732  54.126  1.00  0.00     0.010 A 
HETATM   12  C   UNL     1       8.655  20.731  53.263  1.00  0.00     0.152 A 
HETATM   13  N   UNL     1       8.981  19.607  53.908  1.00  0.00    -0.187 NA
HETATM   14  N   UNL     1       8.682  19.883  55.188  1.00  0.00    -0.289 N 
HETATM   15  H   UNL     1       8.842  19.163  55.884  1.00  0.00     0.188 HD
HETATM   16  C   UNL     1       8.183  21.141  55.371  1.00  0.00     0.123 A 
ENDBRANCH   7  11
ENDBRANCH   2   5
BRANCH   1  17
HETATM   17  C   UNL     1       7.026  26.085  57.463  1.00  0.00     0.103 C 
BRANCH  17  18
HETATM   18  C   UNL     1       8.322  26.672  56.896  1.00  0.00     0.014 C 
BRANCH  18  19
HETATM   19  C   UNL     1       8.145  28.080  56.314  1.00  0.00     0.039 C 
BRANCH  19  20
HETATM   20  C   UNL     1       8.700  29.131  57.244  1.00  0.00    -0.058 A 
HETATM   21  C   UNL     1       7.995  29.493  58.401  1.00  0.00     0.007 A 
HETATM   22  C   UNL     1       8.490  30.481  59.252  1.00  0.00     0.001 A 
HETATM   23  C   UNL     1       9.693  31.117  58.957  1.00  0.00     0.000 A 
HETATM   24  C   UNL     1      10.405  30.764  57.811  1.00  0.00     0.001 A 
HETATM   25  C   UNL     1       9.909  29.777  56.956  1.00  0.00     0.007 A 
ENDBRANCH  19  20
ENDBRANCH  18  19
ENDBRANCH  17  18
ENDBRANCH   1  17
TORSDOF 6
ENDMDL
MODEL 6
REMARK VINA RESULT:      -7.5      3.054      6.670
REMARK  6 active torsions:
REMARK  status: ('A' for Active; 'I' for Inactive)
REMARK    1  A    between atoms: C_4  and  C_5 
REMARK    2  A    between atoms: C_5  and  C_6 
REMARK    3  A    between atoms: C_6  and  C_7 
REMARK    4  A    between atoms: C_7  and  C_8 
REMARK       I    between atoms: C_8  and  N_9 
REMARK    5  A    between atoms: N_9  and  C_10 
REMARK    6  A    between atoms: C_12  and  C_13 
ROOT
HETATM    1  C   UNL     1       5.130  27.562  54.471  1.00  0.00     0.222 C 
HETATM    2  N   UNL     1       5.120  26.299  53.964  1.00  0.00    -0.327 N 
HETATM    3  O   UNL     1       4.057  28.173  54.462  1.00  0.00    -0.273 OA
HETATM    4  H   UNL     1       4.179  26.071  53.661  1.00  0.00     0.169 HD
ENDROOT
BRANCH   2   5
HETATM    5  C   UNL     1       6.086  25.299  53.739  1.00  0.00     0.035 A 
HETATM    6  C   UNL     1       6.436  24.277  54.624  1.00  0.00     0.042 A 
HETATM    7  C   UNL     1       7.446  23.349  54.302  1.00  0.00    -0.021 A 
HETATM    8  C   UNL     1       8.105  23.452  53.072  1.00  0.00     0.012 A 
HETATM    9  C   UNL     1       7.758  24.458  52.176  1.00  0.00     0.003 A 
HETATM   10  C   UNL     1       6.757  25.371  52.509  1.00  0.00     0.029 A 
BRANCH   7  11
HETATM   11  C   UNL     1       7.827  22.304  55.236  1.00  0.00     0.010 A 
HETATM   12  C   UNL     1       8.263  22.383  56.580  1.00  0.00     0.152 A 
HETATM   13  N   UNL     1       8.537  21.185  57.106  1.00  0.00    -0.187 NA
HETATM   14  N   UNL     1       8.281  20.335  56.100  1.00  0.00    -0.289 N 
HETATM   15  H   UNL     1       8.425  19.343  56.261  1.00  0.00     0.188 HD
HETATM   16  C   UNL     1       7.854  20.954  54.959  1.00  0.00     0.123 A 
ENDBRANCH   7  11
ENDBRANCH   2   5
BRANCH   1  17
HETATM   17  C   UNL     1       6.391  28.191  55.022  1.00  0.00     0.103 C 
BRANCH  17  18
HETATM   18  C   UNL     1       6.439  28.226  56.553  1.00  0.00     0.014 C 
BRANCH  18  19
HETATM   19  C   UNL     1       7.770  27.724  57.128  1.00  0.00     0.039 C 
BRANCH  19  20
HETATM   20  C   UNL     1       8.693  28.873  57.454  1.00  0.00    -0.058 A 
HETATM   21  C   UNL     1       8.423  29.707  58.548  1.00  0.00     0.007 A 
HETATM   22  C   UNL     1       9.257  30.786  58.841  1.00  0.00     0.001 A 
HETATM   23  C   UNL     1      10.370  31.042  58.044  1.00  0.00     0.000 A 
HETATM   24  C   UNL     1      10.651  30.219  56.954  1.00  0.00     0.001 A 
HETATM   25  C   UNL     1       9.815  29.140  56.658  1.00  0.00     0.007 A 
ENDBRANCH  19  20
ENDBRANCH  18  19
ENDBRANCH  17  18
ENDBRANCH   1  17
TORSDOF 6
ENDMDL
MODEL 7
REMARK VINA RESULT:      -7.2      3.341      5.194
REMARK  6 active torsions:
REMARK  status: ('A' for Active; 'I' for Inactive)
REMARK    1  A    between atoms: C_4  and  C_5 
REMARK    2  A    between atoms: C_5  and  C_6 
REMARK    3  A    between atoms: C_6  and  C_7 
REMARK    4  A    between atoms: C_7  and  C_8 
REMARK       I    between atoms: C_8  and  N_9 
REMARK    5  A    between atoms: N_9  and  C_10 
REMARK    6  A    between atoms: C_12  and  C_13 
ROOT
HETATM    1  C   UNL     1       5.478  26.013  51.872  1.00  0.00     0.222 C 
HETATM    2  N   UNL     1       6.027  27.199  52.252  1.00  0.00    -0.327 N 
HETATM    3  O   UNL     1       5.347  25.825  50.658  1.00  0.00    -0.273 OA
HETATM    4  H   UNL     1       6.249  27.742  51.423  1.00  0.00     0.169 HD
ENDROOT
BRANCH   2   5
HETATM    5  C   UNL     1       6.306  27.830  53.480  1.00  0.00     0.035 A 
HETATM    6  C   UNL     1       5.370  28.392  54.350  1.00  0.00     0.042 A 
HETATM    7  C   UNL     1       5.772  29.030  55.540  1.00  0.00    -0.021 A 
HETATM    8  C   UNL     1       7.133  29.095  55.856  1.00  0.00     0.012 A 
HETATM    9  C   UNL     1       8.076  28.528  55.005  1.00  0.00     0.003 A 
HETATM   10  C   UNL     1       7.663  27.902  53.829  1.00  0.00     0.029 A 
BRANCH   7  11
HETATM   11  C   UNL     1       4.798  29.639  56.428  1.00  0.00     0.010 A 
HETATM   12  C   UNL     1       3.580  30.301  56.146  1.00  0.00     0.152 A 
HETATM   13  N   UNL     1       2.964  30.742  57.246  1.00  0.00    -0.187 NA
HETATM   14  N   UNL     1       3.786  30.366  58.238  1.00  0.00    -0.289 N 
HETATM   15  H   UNL     1       3.528  30.600  59.191  1.00  0.00     0.188 HD
HETATM   16  C   UNL     1       4.897  29.703  57.802  1.00  0.00     0.123 A 
ENDBRANCH   7  11
ENDBRANCH   2   5
BRANCH   1  17
HETATM   17  C   UNL     1       5.052  24.971  52.882  1.00  0.00     0.103 C 
BRANCH  17  18
HETATM   18  C   UNL     1       6.207  24.433  53.732  1.00  0.00     0.014 C 
BRANCH  18  19
HETATM   19  C   UNL     1       7.202  23.582  52.932  1.00  0.00     0.039 C 
BRANCH  19  20
HETATM   20  C   UNL     1       7.681  22.398  53.739  1.00  0.00    -0.058 A 
HETATM   21  C   UNL     1       8.198  21.267  53.091  1.00  0.00     0.007 A 
HETATM   22  C   UNL     1       8.619  20.160  53.828  1.00  0.00     0.001 A 
HETATM   23  C   UNL     1       8.529  20.172  55.217  1.00  0.00     0.000 A 
HETATM   24  C   UNL     1       8.019  21.292  55.872  1.00  0.00     0.001 A 
HETATM   25  C   UNL     1       7.594  22.400  55.136  1.00  0.00     0.007 A 
ENDBRANCH  19  20
ENDBRANCH  18  19
ENDBRANCH  17  18
ENDBRANCH   1  17
TORSDOF 6
ENDMDL
MODEL 8
REMARK VINA RESULT:      -7.1      3.928      6.368
REMARK  6 active torsions:
REMARK  status: ('A' for Active; 'I' for Inactive)
REMARK    1  A    between atoms: C_4  and  C_5 
REMARK    2  A    between atoms: C_5  and  C_6 
REMARK    3  A    between atoms: C_6  and  C_7 
REMARK    4  A    between atoms: C_7  and  C_8 
REMARK       I    between atoms: C_8  and  N_9 
REMARK    5  A    between atoms: N_9  and  C_10 
REMARK    6  A    between atoms: C_12  and  C_13 
ROOT
HETATM    1  C   UNL     1       5.427  26.501  56.184  1.00  0.00     0.222 C 
HETATM    2  N   UNL     1       5.029  27.062  55.009  1.00  0.00    -0.327 N 
HETATM    3  O   UNL     1       5.273  27.180  57.204  1.00  0.00    -0.273 OA
HETATM    4  H   UNL     1       4.649  27.985  55.195  1.00  0.00     0.169 HD
ENDROOT
BRANCH   2   5
HETATM    5  C   UNL     1       5.061  26.684  53.653  1.00  0.00     0.035 A 
HETATM    6  C   UNL     1       5.149  27.546  52.558  1.00  0.00     0.042 A 
HETATM    7  C   UNL     1       5.138  27.051  51.239  1.00  0.00    -0.021 A 
HETATM    8  C   UNL     1       5.044  25.672  51.024  1.00  0.00     0.012 A 
HETATM    9  C   UNL     1       4.968  24.801  52.106  1.00  0.00     0.003 A 
HETATM   10  C   UNL     1       4.977  25.304  53.407  1.00  0.00     0.029 A 
BRANCH   7  11
HETATM   11  C   UNL     1       5.201  27.953  50.102  1.00  0.00     0.010 A 
HETATM   12  C   UNL     1       5.428  29.348  50.043  1.00  0.00     0.152 A 
HETATM   13  N   UNL     1       5.396  29.825  48.795  1.00  0.00    -0.187 NA
HETATM   14  N   UNL     1       5.145  28.737  48.050  1.00  0.00    -0.289 N 
HETATM   15  H   UNL     1       5.068  28.851  47.044  1.00  0.00     0.188 HD
HETATM   16  C   UNL     1       5.020  27.592  48.783  1.00  0.00     0.123 A 
ENDBRANCH   7  11
ENDBRANCH   2   5
BRANCH   1  17
HETATM   17  C   UNL     1       6.025  25.113  56.243  1.00  0.00     0.103 C 
BRANCH  17  18
HETATM   18  C   UNL     1       7.515  25.072  55.890  1.00  0.00     0.014 C 
BRANCH  18  19
HETATM   19  C   UNL     1       8.201  23.766  56.309  1.00  0.00     0.039 C 
BRANCH  19  20
HETATM   20  C   UNL     1       8.128  22.732  55.212  1.00  0.00    -0.058 A 
HETATM   21  C   UNL     1       8.039  23.133  53.871  1.00  0.00     0.007 A 
HETATM   22  C   UNL     1       7.945  22.184  52.852  1.00  0.00     0.001 A 
HETATM   23  C   UNL     1       7.942  20.826  53.163  1.00  0.00     0.000 A 
HETATM   24  C   UNL     1       8.033  20.416  54.493  1.00  0.00     0.001 A 
HETATM   25  C   UNL     1       8.123  21.365  55.513  1.00  0.00     0.007 A 
ENDBRANCH  19  20
ENDBRANCH  18  19
ENDBRANCH  17  18
ENDBRANCH   1  17
TORSDOF 6
ENDMDL
MODEL 9
REMARK VINA RESULT:      -7.1      3.884      6.442
REMARK  6 active torsions:
REMARK  status: ('A' for Active; 'I' for Inactive)
REMARK    1  A    between atoms: C_4  and  C_5 
REMARK    2  A    between atoms: C_5  and  C_6 
REMARK    3  A    between atoms: C_6  and  C_7 
REMARK    4  A    between atoms: C_7  and  C_8 
REMARK       I    between atoms: C_8  and  N_9 
REMARK    5  A    between atoms: N_9  and  C_10 
REMARK    6  A    between atoms: C_12  and  C_13 
ROOT
HETATM    1  C   UNL     1       5.197  26.391  53.437  1.00  0.00     0.222 C 
HETATM    2  N   UNL     1       5.582  25.950  54.666  1.00  0.00    -0.327 N 
HETATM    3  O   UNL     1       4.166  27.068  53.387  1.00  0.00    -0.273 OA
HETATM    4  H   UNL     1       4.919  26.281  55.359  1.00  0.00     0.169 HD
ENDROOT
BRANCH   2   5
HETATM    5  C   UNL     1       6.621  25.140  55.163  1.00  0.00     0.035 A 
HETATM    6  C   UNL     1       6.980  23.876  54.692  1.00  0.00     0.042 A 
HETATM    7  C   UNL     1       8.021  23.142  55.295  1.00  0.00    -0.021 A 
HETATM    8  C   UNL     1       8.710  23.693  56.380  1.00  0.00     0.012 A 
HETATM    9  C   UNL     1       8.372  24.958  56.852  1.00  0.00     0.003 A 
HETATM   10  C   UNL     1       7.337  25.673  56.247  1.00  0.00     0.029 A 
BRANCH   7  11
HETATM   11  C   UNL     1       8.372  21.815  54.820  1.00  0.00     0.010 A 
HETATM   12  C   UNL     1       8.183  21.207  53.556  1.00  0.00     0.152 A 
HETATM   13  N   UNL     1       8.634  19.950  53.514  1.00  0.00    -0.187 NA
HETATM   14  N   UNL     1       9.111  19.747  54.752  1.00  0.00    -0.289 N 
HETATM   15  H   UNL     1       9.510  18.839  54.969  1.00  0.00     0.188 HD
HETATM   16  C   UNL     1       8.978  20.831  55.572  1.00  0.00     0.123 A 
ENDBRANCH   7  11
ENDBRANCH   2   5
BRANCH   1  17
HETATM   17  C   UNL     1       5.994  26.074  52.190  1.00  0.00     0.103 C 
BRANCH  17  18
HETATM   18  C   UNL     1       5.124  25.834  50.952  1.00  0.00     0.014 C 
BRANCH  18  19
HETATM   19  C   UNL     1       5.046  27.051  50.021  1.00  0.00     0.039 C 
BRANCH  19  20
HETATM   20  C   UNL     1       3.876  26.940  49.073  1.00  0.00    -0.058 A 
HETATM   21  C   UNL     1       3.862  25.947  48.084  1.00  0.00     0.007 A 
HETATM   22  C   UNL     1       2.796  25.854  47.189  1.00  0.00     0.001 A 
HETATM   23  C   UNL     1       1.735  26.752  47.273  1.00  0.00     0.000 A 
HETATM   24  C   UNL     1       1.737  27.743  48.254  1.00  0.00     0.001 A 
HETATM   25  C   UNL     1       2.805  27.839  49.149  1.00  0.00     0.007 A 
ENDBRANCH  19  20
ENDBRANCH  18  19
ENDBRANCH  17  18
ENDBRANCH   1  17
TORSDOF 6
ENDMDL
MODEL 10
REMARK VINA RESULT:      -7.0      4.817      7.458
REMARK  6 active torsions:
REMARK  status: ('A' for Active; 'I' for Inactive)
REMARK    1  A    between atoms: C_4  and  C_5 
REMARK    2  A    between atoms: C_5  and  C_6 
REMARK    3  A    between atoms: C_6  and  C_7 
REMARK    4  A    between atoms: C_7  and  C_8 
REMARK       I    between atoms: C_8  and  N_9 
REMARK    5  A    between atoms: N_9  and  C_10 
REMARK    6  A    between atoms: C_12  and  C_13 
ROOT
HETATM    1  C   UNL     1       5.326  25.467  52.143  1.00  0.00     0.222 C 
HETATM    2  N   UNL     1       4.514  26.091  51.246  1.00  0.00    -0.327 N 
HETATM    3  O   UNL     1       4.772  24.849  53.058  1.00  0.00    -0.273 OA
HETATM    4  H   UNL     1       3.546  25.919  51.500  1.00  0.00     0.169 HD
ENDROOT
BRANCH   2   5
HETATM    5  C   UNL     1       4.706  26.915  50.120  1.00  0.00     0.035 A 
HETATM    6  C   UNL     1       4.950  28.289  50.136  1.00  0.00     0.042 A 
HETATM    7  C   UNL     1       5.092  29.017  48.939  1.00  0.00    -0.021 A 
HETATM    8  C   UNL     1       4.992  28.350  47.714  1.00  0.00     0.012 A 
HETATM    9  C   UNL     1       4.762  26.978  47.683  1.00  0.00     0.003 A 
HETATM   10  C   UNL     1       4.621  26.269  48.877  1.00  0.00     0.029 A 
BRANCH   7  11
HETATM   11  C   UNL     1       5.317  30.452  48.959  1.00  0.00     0.010 A 
HETATM   12  C   UNL     1       4.988  31.451  48.013  1.00  0.00     0.152 A 
HETATM   13  N   UNL     1       5.380  32.671  48.391  1.00  0.00    -0.187 NA
HETATM   14  N   UNL     1       5.964  32.458  49.580  1.00  0.00    -0.289 N 
HETATM   15  H   UNL     1       6.355  33.255  50.073  1.00  0.00     0.188 HD
HETATM   16  C   UNL     1       5.953  31.148  49.965  1.00  0.00     0.123 A 
ENDBRANCH   7  11
ENDBRANCH   2   5
BRANCH   1  17
HETATM   17  C   UNL     1       6.833  25.522  52.028  1.00  0.00     0.103 C 
BRANCH  17  18
HETATM   18  C   UNL     1       7.558  24.633  53.044  1.00  0.00     0.014 C 
BRANCH  18  19
HETATM   19  C   UNL     1       7.870  23.231  52.507  1.00  0.00     0.039 C 
BRANCH  19  20
HETATM   20  C   UNL     1       7.998  22.231  53.632  1.00  0.00    -0.058 A 
HETATM   21  C   UNL     1       7.633  22.588  54.937  1.00  0.00     0.007 A 
HETATM   22  C   UNL     1       7.772  21.678  55.986  1.00  0.00     0.001 A 
HETATM   23  C   UNL     1       8.275  20.404  55.740  1.00  0.00     0.000 A 
HETATM   24  C   UNL     1       8.641  20.036  54.446  1.00  0.00     0.001 A 
HETATM   25  C   UNL     1       8.505  20.947  53.396  1.00  0.00     0.007 A 
ENDBRANCH  19  20
ENDBRANCH  18  19
ENDBRANCH  17  18
ENDBRANCH   1  17
TORSDOF 6
ENDMDL
