MODEL 1
REMARK VINA RESULT:      -8.8      0.000      0.000
REMARK  6 active torsions:
REMARK  status: ('A' for Active; 'I' for Inactive)
REMARK    1  A    between atoms: O_2  and  C_3 
REMARK    2  A    between atoms: C_3  and  C_4 
REMARK    3  A    between atoms: C_4  and  N_5 
REMARK       I    between atoms: N_5  and  C_6 
REMARK    4  A    between atoms: C_6  and  C_7 
REMARK    5  A    between atoms: C_12  and  C_13 
REMARK    6  A    between atoms: C_20  and  C_21 
ROOT
HETATM    1  C   UNL     1       6.552  28.304  55.281  1.00  0.00     0.165 A 
HETATM    2  N   UNL     1       6.258  28.003  53.990  1.00  0.00    -0.163 NA
HETATM    3  N   UNL     1       6.591  26.707  53.870  1.00  0.00    -0.238 N 
HETATM    4  C   UNL     1       7.205  26.193  54.982  1.00  0.00     0.141 A 
HETATM    5  N   UNL     1       7.710  24.933  54.984  1.00  0.00    -0.365 N 
HETATM    6  C   UNL     1       7.954  24.265  53.709  1.00  0.00     0.118 C 
HETATM    7  C   UNL     1       6.749  24.495  52.789  1.00  0.00     0.066 C 
HETATM    8  C   UNL     1       6.489  26.003  52.602  1.00  0.00     0.221 C 
HETATM    9  C   UNL     1       7.147  27.189  55.923  1.00  0.00     0.092 A 
HETATM   10 BR   UNL     1       7.782  27.092  57.682  1.00  0.00    -0.044 Br
HETATM   11  H   UNL     1       8.340  24.656  55.738  1.00  0.00     0.162 HD
ENDROOT
BRANCH   1  12
HETATM   12  C   UNL     1       6.262  29.643  55.823  1.00  0.00     0.273 C 
HETATM   13  N   UNL     1       5.303  30.324  55.106  1.00  0.00    -0.353 N 
HETATM   14  H   UNL     1       4.812  29.779  54.398  1.00  0.00     0.162 HD
HETATM   15  O   UNL     1       6.811  30.111  56.816  1.00  0.00    -0.266 OA
BRANCH  13  16
HETATM   16  C   UNL     1       4.704  31.557  55.569  1.00  0.00     0.149 C 
BRANCH  16  17
HETATM   17  C   UNL     1       3.251  31.350  55.991  1.00  0.00     0.186 C 
BRANCH  17  18
HETATM   18  O   UNL     1       3.066  31.866  57.315  1.00  0.00    -0.394 OA
HETATM   19  C   UNL     1       3.607  30.989  58.295  1.00  0.00     0.201 C 
ENDBRANCH  17  18
ENDBRANCH  16  17
ENDBRANCH  13  16
ENDBRANCH   1  12
BRANCH   8  20
HETATM   20  C   UNL     1       5.141  26.209  51.947  1.00  0.00     0.409 C 
HETATM   21  F   UNL     1       5.061  27.385  51.286  1.00  0.00    -0.169 F 
HETATM   22  F   UNL     1       4.805  25.219  51.093  1.00  0.00    -0.169 F 
HETATM   23  F   UNL     1       4.170  26.230  52.899  1.00  0.00    -0.169 F 
ENDBRANCH   8  20
BRANCH   6  24
HETATM   24  C   UNL     1       8.206  22.785  53.920  1.00  0.00    -0.035 A 
HETATM   25  C   UNL     1       7.942  21.841  52.913  1.00  0.00     0.009 A 
HETATM   26  C   UNL     1       8.202  20.485  53.119  1.00  0.00     0.001 A 
HETATM   27  C   UNL     1       8.738  20.055  54.331  1.00  0.00     0.000 A 
HETATM   28  C   UNL     1       9.016  20.979  55.336  1.00  0.00     0.001 A 
HETATM   29  C   UNL     1       8.752  22.335  55.132  1.00  0.00     0.009 A 
ENDBRANCH   6  24
TORSDOF 6
ENDMDL
MODEL 2
REMARK VINA RESULT:      -8.6      3.565      4.664
REMARK  6 active torsions:
REMARK  status: ('A' for Active; 'I' for Inactive)
REMARK    1  A    between atoms: O_2  and  C_3 
REMARK    2  A    between atoms: C_3  and  C_4 
REMARK    3  A    between atoms: C_4  and  N_5 
REMARK       I    between atoms: N_5  and  C_6 
REMARK    4  A    between atoms: C_6  and  C_7 
REMARK    5  A    between atoms: C_12  and  C_13 
REMARK    6  A    between atoms: C_20  and  C_21 
ROOT
HETATM    1  C   UNL     1       5.352  27.713  53.397  1.00  0.00     0.165 A 
HETATM    2  N   UNL     1       5.733  27.632  54.697  1.00  0.00    -0.163 NA
HETATM    3  N   UNL     1       6.290  26.414  54.801  1.00  0.00    -0.238 N 
HETATM    4  C   UNL     1       6.169  25.656  53.666  1.00  0.00     0.141 A 
HETATM    5  N   UNL     1       6.573  24.361  53.642  1.00  0.00    -0.365 N 
HETATM    6  C   UNL     1       6.770  23.656  54.906  1.00  0.00     0.118 C 
HETATM    7  C   UNL     1       7.534  24.571  55.870  1.00  0.00     0.066 C 
HETATM    8  C   UNL     1       6.778  25.900  56.071  1.00  0.00     0.221 C 
HETATM    9  C   UNL     1       5.611  26.489  52.730  1.00  0.00     0.092 A 
HETATM   10 BR   UNL     1       5.229  26.059  50.948  1.00  0.00    -0.044 Br
HETATM   11  H   UNL     1       6.281  23.768  52.865  1.00  0.00     0.162 HD
ENDROOT
BRANCH   1  12
HETATM   12  C   UNL     1       4.746  28.948  52.868  1.00  0.00     0.273 C 
HETATM   13  N   UNL     1       5.511  29.556  51.897  1.00  0.00    -0.353 N 
HETATM   14  H   UNL     1       6.307  29.016  51.560  1.00  0.00     0.162 HD
HETATM   15  O   UNL     1       3.667  29.395  53.245  1.00  0.00    -0.266 OA
BRANCH  13  16
HETATM   16  C   UNL     1       5.026  30.653  51.087  1.00  0.00     0.149 C 
BRANCH  16  17
HETATM   17  C   UNL     1       5.576  30.583  49.663  1.00  0.00     0.186 C 
BRANCH  17  18
HETATM   18  O   UNL     1       5.883  29.221  49.343  1.00  0.00    -0.394 OA
HETATM   19  C   UNL     1       5.163  28.780  48.199  1.00  0.00     0.201 C 
ENDBRANCH  17  18
ENDBRANCH  16  17
ENDBRANCH  13  16
ENDBRANCH   1  12
BRANCH   8  20
HETATM   20  C   UNL     1       7.675  26.893  56.777  1.00  0.00     0.409 C 
HETATM   21  F   UNL     1       8.298  27.730  55.917  1.00  0.00    -0.169 F 
HETATM   22  F   UNL     1       7.028  27.636  57.698  1.00  0.00    -0.169 F 
HETATM   23  F   UNL     1       8.653  26.227  57.448  1.00  0.00    -0.169 F 
ENDBRANCH   8  20
BRANCH   6  24
HETATM   24  C   UNL     1       7.515  22.355  54.681  1.00  0.00    -0.035 A 
HETATM   25  C   UNL     1       7.825  21.491  55.745  1.00  0.00     0.009 A 
HETATM   26  C   UNL     1       8.492  20.286  55.515  1.00  0.00     0.001 A 
HETATM   27  C   UNL     1       8.848  19.923  54.218  1.00  0.00     0.000 A 
HETATM   28  C   UNL     1       8.539  20.763  53.152  1.00  0.00     0.001 A 
HETATM   29  C   UNL     1       7.876  21.971  53.381  1.00  0.00     0.009 A 
ENDBRANCH   6  24
TORSDOF 6
ENDMDL
MODEL 3
REMARK VINA RESULT:      -8.3      2.930      3.555
REMARK  6 active torsions:
REMARK  status: ('A' for Active; 'I' for Inactive)
REMARK    1  A    between atoms: O_2  and  C_3 
REMARK    2  A    between atoms: C_3  and  C_4 
REMARK    3  A    between atoms: C_4  and  N_5 
REMARK       I    between atoms: N_5  and  C_6 
REMARK    4  A    between atoms: C_6  and  C_7 
REMARK    5  A    between atoms: C_12  and  C_13 
REMARK    6  A    between atoms: C_20  and  C_21 
ROOT
HETATM    1  C   UNL     1       5.394  27.787  53.510  1.00  0.00     0.165 A 
HETATM    2  N   UNL     1       5.780  27.655  54.805  1.00  0.00    -0.163 NA
HETATM    3  N   UNL     1       6.324  26.427  54.862  1.00  0.00    -0.238 N 
HETATM    4  C   UNL     1       6.190  25.713  53.700  1.00  0.00     0.141 A 
HETATM    5  N   UNL     1       6.581  24.416  53.627  1.00  0.00    -0.365 N 
HETATM    6  C   UNL     1       6.774  23.663  54.864  1.00  0.00     0.118 C 
HETATM    7  C   UNL     1       7.552  24.534  55.858  1.00  0.00     0.066 C 
HETATM    8  C   UNL     1       6.811  25.863  56.110  1.00  0.00     0.221 C 
HETATM    9  C   UNL     1       5.638  26.586  52.798  1.00  0.00     0.092 A 
HETATM   10 BR   UNL     1       5.245  26.225  51.003  1.00  0.00    -0.044 Br
HETATM   11  H   UNL     1       6.279  23.854  52.830  1.00  0.00     0.162 HD
ENDROOT
BRANCH   1  12
HETATM   12  C   UNL     1       4.800  29.047  53.029  1.00  0.00     0.273 C 
HETATM   13  N   UNL     1       3.862  29.569  53.893  1.00  0.00    -0.353 N 
HETATM   14  H   UNL     1       3.803  29.119  54.805  1.00  0.00     0.162 HD
HETATM   15  O   UNL     1       5.105  29.587  51.971  1.00  0.00    -0.266 OA
BRANCH  13  16
HETATM   16  C   UNL     1       3.306  30.897  53.740  1.00  0.00     0.149 C 
BRANCH  16  17
HETATM   17  C   UNL     1       2.840  31.466  55.079  1.00  0.00     0.186 C 
BRANCH  17  18
HETATM   18  O   UNL     1       3.880  31.300  56.049  1.00  0.00    -0.394 OA
HETATM   19  C   UNL     1       3.373  30.785  57.274  1.00  0.00     0.201 C 
ENDBRANCH  17  18
ENDBRANCH  16  17
ENDBRANCH  13  16
ENDBRANCH   1  12
BRANCH   8  20
HETATM   20  C   UNL     1       7.721  26.820  56.848  1.00  0.00     0.409 C 
HETATM   21  F   UNL     1       7.051  27.600  57.725  1.00  0.00    -0.169 F 
HETATM   22  F   UNL     1       8.722  26.202  57.509  1.00  0.00    -0.169 F 
HETATM   23  F   UNL     1       8.319  27.658  55.959  1.00  0.00    -0.169 F 
ENDBRANCH   8  20
BRANCH   6  24
HETATM   24  C   UNL     1       7.504  22.363  54.589  1.00  0.00    -0.035 A 
HETATM   25  C   UNL     1       7.840  21.473  55.624  1.00  0.00     0.009 A 
HETATM   26  C   UNL     1       8.493  20.271  55.348  1.00  0.00     0.001 A 
HETATM   27  C   UNL     1       8.809  19.935  54.034  1.00  0.00     0.000 A 
HETATM   28  C   UNL     1       8.474  20.800  52.995  1.00  0.00     0.001 A 
HETATM   29  C   UNL     1       7.825  22.006  53.270  1.00  0.00     0.009 A 
ENDBRANCH   6  24
TORSDOF 6
ENDMDL
MODEL 4
REMARK VINA RESULT:      -8.3      1.649      2.086
REMARK  6 active torsions:
REMARK  status: ('A' for Active; 'I' for Inactive)
REMARK    1  A    between atoms: O_2  and  C_3 
REMARK    2  A    between atoms: C_3  and  C_4 
REMARK    3  A    between atoms: C_4  and  N_5 
REMARK       I    between atoms: N_5  and  C_6 
REMARK    4  A    between atoms: C_6  and  C_7 
REMARK    5  A    between atoms: C_12  and  C_13 
REMARK    6  A    between atoms: C_20  and  C_21 
ROOT
HETATM    1  C   UNL     1       6.430  28.152  55.340  1.00  0.00     0.165 A 
HETATM    2  N   UNL     1       6.229  27.909  54.020  1.00  0.00    -0.163 NA
HETATM    3  N   UNL     1       6.583  26.622  53.864  1.00  0.00    -0.238 N 
HETATM    4  C   UNL     1       7.125  26.062  54.992  1.00  0.00     0.141 A 
HETATM    5  N   UNL     1       7.641  24.807  54.971  1.00  0.00    -0.365 N 
HETATM    6  C   UNL     1       7.980  24.201  53.686  1.00  0.00     0.118 C 
HETATM    7  C   UNL     1       6.838  24.463  52.697  1.00  0.00     0.066 C 
HETATM    8  C   UNL     1       6.576  25.977  52.561  1.00  0.00     0.221 C 
HETATM    9  C   UNL     1       6.992  27.013  55.970  1.00  0.00     0.092 A 
HETATM   10 BR   UNL     1       7.506  26.840  57.763  1.00  0.00    -0.044 Br
HETATM   11  H   UNL     1       8.221  24.500  55.753  1.00  0.00     0.162 HD
ENDROOT
BRANCH   1  12
HETATM   12  C   UNL     1       6.090  29.462  55.922  1.00  0.00     0.273 C 
HETATM   13  N   UNL     1       6.775  29.734  57.086  1.00  0.00    -0.353 N 
HETATM   14  H   UNL     1       7.525  29.084  57.318  1.00  0.00     0.162 HD
HETATM   15  O   UNL     1       5.283  30.242  55.425  1.00  0.00    -0.266 OA
BRANCH  13  16
HETATM   16  C   UNL     1       6.768  31.036  57.717  1.00  0.00     0.149 C 
BRANCH  16  17
HETATM   17  C   UNL     1       7.846  31.143  58.794  1.00  0.00     0.186 C 
BRANCH  17  18
HETATM   18  O   UNL     1       7.837  32.467  59.340  1.00  0.00    -0.394 OA
HETATM   19  C   UNL     1       8.200  32.465  60.715  1.00  0.00     0.201 C 
ENDBRANCH  17  18
ENDBRANCH  16  17
ENDBRANCH  13  16
ENDBRANCH   1  12
BRANCH   8  20
HETATM   20  C   UNL     1       5.273  26.203  51.825  1.00  0.00     0.409 C 
HETATM   21  F   UNL     1       4.277  26.602  52.646  1.00  0.00    -0.169 F 
HETATM   22  F   UNL     1       5.377  27.095  50.818  1.00  0.00    -0.169 F 
HETATM   23  F   UNL     1       4.864  25.037  51.254  1.00  0.00    -0.169 F 
ENDBRANCH   8  20
BRANCH   6  24
HETATM   24  C   UNL     1       8.232  22.715  53.847  1.00  0.00    -0.035 A 
HETATM   25  C   UNL     1       7.965  21.805  52.809  1.00  0.00     0.009 A 
HETATM   26  C   UNL     1       8.225  20.443  52.969  1.00  0.00     0.001 A 
HETATM   27  C   UNL     1       8.765  19.972  54.164  1.00  0.00     0.000 A 
HETATM   28  C   UNL     1       9.047  20.861  55.198  1.00  0.00     0.001 A 
HETATM   29  C   UNL     1       8.783  22.224  55.041  1.00  0.00     0.009 A 
ENDBRANCH   6  24
TORSDOF 6
ENDMDL
MODEL 5
REMARK VINA RESULT:      -8.0      3.127      4.051
REMARK  6 active torsions:
REMARK  status: ('A' for Active; 'I' for Inactive)
REMARK    1  A    between atoms: O_2  and  C_3 
REMARK    2  A    between atoms: C_3  and  C_4 
REMARK    3  A    between atoms: C_4  and  N_5 
REMARK       I    between atoms: N_5  and  C_6 
REMARK    4  A    between atoms: C_6  and  C_7 
REMARK    5  A    between atoms: C_12  and  C_13 
REMARK    6  A    between atoms: C_20  and  C_21 
ROOT
HETATM    1  C   UNL     1       4.822  29.756  55.116  1.00  0.00     0.165 A 
HETATM    2  N   UNL     1       5.685  29.505  56.135  1.00  0.00    -0.163 NA
HETATM    3  N   UNL     1       6.183  28.290  55.852  1.00  0.00    -0.238 N 
HETATM    4  C   UNL     1       5.588  27.690  54.773  1.00  0.00     0.141 A 
HETATM    5  N   UNL     1       5.892  26.414  54.426  1.00  0.00    -0.365 N 
HETATM    6  C   UNL     1       6.543  25.548  55.406  1.00  0.00     0.118 C 
HETATM    7  C   UNL     1       7.667  26.334  56.092  1.00  0.00     0.066 C 
HETATM    8  C   UNL     1       7.112  27.616  56.745  1.00  0.00     0.221 C 
HETATM    9  C   UNL     1       4.742  28.635  54.252  1.00  0.00     0.092 A 
HETATM   10 BR   UNL     1       3.665  28.443  52.732  1.00  0.00    -0.044 Br
HETATM   11  H   UNL     1       5.289  25.927  53.762  1.00  0.00     0.162 HD
ENDROOT
BRANCH   1  12
HETATM   12  C   UNL     1       4.111  31.044  55.035  1.00  0.00     0.273 C 
HETATM   13  N   UNL     1       4.958  32.128  54.971  1.00  0.00    -0.353 N 
HETATM   14  H   UNL     1       5.945  31.911  54.838  1.00  0.00     0.162 HD
HETATM   15  O   UNL     1       2.889  31.150  55.020  1.00  0.00    -0.266 OA
BRANCH  13  16
HETATM   16  C   UNL     1       4.499  33.468  54.672  1.00  0.00     0.149 C 
BRANCH  16  17
HETATM   17  C   UNL     1       4.577  34.374  55.900  1.00  0.00     0.186 C 
BRANCH  17  18
HETATM   18  O   UNL     1       5.369  33.735  56.908  1.00  0.00    -0.394 OA
HETATM   19  C   UNL     1       4.720  33.758  58.172  1.00  0.00     0.201 C 
ENDBRANCH  17  18
ENDBRANCH  16  17
ENDBRANCH  13  16
ENDBRANCH   1  12
BRANCH   8  20
HETATM   20  C   UNL     1       8.258  28.515  57.153  1.00  0.00     0.409 C 
HETATM   21  F   UNL     1       9.435  27.854  57.223  1.00  0.00    -0.169 F 
HETATM   22  F   UNL     1       8.418  29.580  56.340  1.00  0.00    -0.169 F 
HETATM   23  F   UNL     1       8.022  29.020  58.394  1.00  0.00    -0.169 F 
ENDBRANCH   8  20
BRANCH   6  24
HETATM   24  C   UNL     1       7.080  24.296  54.739  1.00  0.00    -0.035 A 
HETATM   25  C   UNL     1       7.278  23.106  55.459  1.00  0.00     0.009 A 
HETATM   26  C   UNL     1       7.752  21.957  54.823  1.00  0.00     0.001 A 
HETATM   27  C   UNL     1       8.024  21.979  53.457  1.00  0.00     0.000 A 
HETATM   28  C   UNL     1       7.823  23.148  52.726  1.00  0.00     0.001 A 
HETATM   29  C   UNL     1       7.353  24.299  53.363  1.00  0.00     0.009 A 
ENDBRANCH   6  24
TORSDOF 6
ENDMDL
MODEL 6
REMARK VINA RESULT:      -8.0      3.647      4.416
REMARK  6 active torsions:
REMARK  status: ('A' for Active; 'I' for Inactive)
REMARK    1  A    between atoms: O_2  and  C_3 
REMARK    2  A    between atoms: C_3  and  C_4 
REMARK    3  A    between atoms: C_4  and  N_5 
REMARK       I    between atoms: N_5  and  C_6 
REMARK    4  A    between atoms: C_6  and  C_7 
REMARK    5  A    between atoms: C_12  and  C_13 
REMARK    6  A    between atoms: C_20  and  C_21 
ROOT
HETATM    1  C   UNL     1       5.353  28.080  52.573  1.00  0.00     0.165 A 
HETATM    2  N   UNL     1       5.758  28.127  53.868  1.00  0.00    -0.163 NA
HETATM    3  N   UNL     1       6.268  26.905  54.097  1.00  0.00    -0.238 N 
HETATM    4  C   UNL     1       6.093  26.033  53.054  1.00  0.00     0.141 A 
HETATM    5  N   UNL     1       6.445  24.727  53.167  1.00  0.00    -0.365 N 
HETATM    6  C   UNL     1       6.639  24.158  54.498  1.00  0.00     0.118 C 
HETATM    7  C   UNL     1       7.459  25.141  55.343  1.00  0.00     0.066 C 
HETATM    8  C   UNL     1       6.761  26.514  55.408  1.00  0.00     0.221 C 
HETATM    9  C   UNL     1       5.550  26.781  52.041  1.00  0.00     0.092 A 
HETATM   10 BR   UNL     1       5.115  26.174  50.324  1.00  0.00    -0.044 Br
HETATM   11  H   UNL     1       6.114  24.065  52.465  1.00  0.00     0.162 HD
ENDROOT
BRANCH   1  12
HETATM   12  C   UNL     1       4.786  29.274  51.920  1.00  0.00     0.273 C 
HETATM   13  N   UNL     1       3.421  29.379  52.072  1.00  0.00    -0.353 N 
HETATM   14  H   UNL     1       2.998  28.722  52.727  1.00  0.00     0.162 HD
HETATM   15  O   UNL     1       5.455  30.100  51.306  1.00  0.00    -0.266 OA
BRANCH  13  16
HETATM   16  C   UNL     1       2.679  30.567  51.708  1.00  0.00     0.149 C 
BRANCH  16  17
HETATM   17  C   UNL     1       2.023  30.418  50.336  1.00  0.00     0.186 C 
BRANCH  17  18
HETATM   18  O   UNL     1       1.327  29.168  50.280  1.00  0.00    -0.394 OA
HETATM   19  C   UNL     1       1.639  28.451  49.092  1.00  0.00     0.201 C 
ENDBRANCH  17  18
ENDBRANCH  16  17
ENDBRANCH  13  16
ENDBRANCH   1  12
BRANCH   8  20
HETATM   20  C   UNL     1       7.711  27.540  55.985  1.00  0.00     0.409 C 
HETATM   21  F   UNL     1       8.600  26.996  56.845  1.00  0.00    -0.169 F 
HETATM   22  F   UNL     1       8.394  28.224  55.044  1.00  0.00    -0.169 F 
HETATM   23  F   UNL     1       7.008  28.468  56.688  1.00  0.00    -0.169 F 
ENDBRANCH   8  20
BRANCH   6  24
HETATM   24  C   UNL     1       7.327  22.810  54.407  1.00  0.00    -0.035 A 
HETATM   25  C   UNL     1       7.693  22.251  53.170  1.00  0.00     0.009 A 
HETATM   26  C   UNL     1       8.345  21.019  53.109  1.00  0.00     0.001 A 
HETATM   27  C   UNL     1       8.652  20.333  54.282  1.00  0.00     0.000 A 
HETATM   28  C   UNL     1       8.306  20.877  55.516  1.00  0.00     0.001 A 
HETATM   29  C   UNL     1       7.649  22.108  55.579  1.00  0.00     0.009 A 
ENDBRANCH   6  24
TORSDOF 6
ENDMDL
MODEL 7
REMARK VINA RESULT:      -7.9      4.114      5.543
REMARK  6 active torsions:
REMARK  status: ('A' for Active; 'I' for Inactive)
REMARK    1  A    between atoms: O_2  and  C_3 
REMARK    2  A    between atoms: C_3  and  C_4 
REMARK    3  A    between atoms: C_4  and  N_5 
REMARK       I    between atoms: N_5  and  C_6 
REMARK    4  A    between atoms: C_6  and  C_7 
REMARK    5  A    between atoms: C_12  and  C_13 
REMARK    6  A    between atoms: C_20  and  C_21 
ROOT
HETATM    1  C   UNL     1       5.981  31.037  58.216  1.00  0.00     0.165 A 
HETATM    2  N   UNL     1       7.243  30.568  58.388  1.00  0.00    -0.163 NA
HETATM    3  N   UNL     1       7.298  29.476  57.606  1.00  0.00    -0.238 N 
HETATM    4  C   UNL     1       6.094  29.145  57.041  1.00  0.00     0.141 A 
HETATM    5  N   UNL     1       5.949  28.005  56.319  1.00  0.00    -0.365 N 
HETATM    6  C   UNL     1       6.942  26.943  56.464  1.00  0.00     0.118 C 
HETATM    7  C   UNL     1       8.342  27.568  56.443  1.00  0.00     0.066 C 
HETATM    8  C   UNL     1       8.479  28.630  57.552  1.00  0.00     0.221 C 
HETATM    9  C   UNL     1       5.241  30.164  57.379  1.00  0.00     0.092 A 
HETATM   10 BR   UNL     1       3.445  30.322  56.871  1.00  0.00    -0.044 Br
HETATM   11  H   UNL     1       5.008  27.680  56.094  1.00  0.00     0.162 HD
ENDROOT
BRANCH   1  12
HETATM   12  C   UNL     1       5.547  32.283  58.873  1.00  0.00     0.273 C 
HETATM   13  N   UNL     1       5.222  32.112  60.200  1.00  0.00    -0.353 N 
HETATM   14  H   UNL     1       5.457  31.204  60.599  1.00  0.00     0.162 HD
HETATM   15  O   UNL     1       5.484  33.369  58.305  1.00  0.00    -0.266 OA
BRANCH  13  16
HETATM   16  C   UNL     1       4.978  33.220  61.099  1.00  0.00     0.149 C 
BRANCH  16  17
HETATM   17  C   UNL     1       3.935  32.863  62.157  1.00  0.00     0.186 C 
BRANCH  17  18
HETATM   18  O   UNL     1       4.548  32.056  63.170  1.00  0.00    -0.394 OA
HETATM   19  C   UNL     1       5.565  32.771  63.861  1.00  0.00     0.201 C 
ENDBRANCH  17  18
ENDBRANCH  16  17
ENDBRANCH  13  16
ENDBRANCH   1  12
BRANCH   8  20
HETATM   20  C   UNL     1       9.742  29.434  57.333  1.00  0.00     0.409 C 
HETATM   21  F   UNL     1       9.600  30.367  56.365  1.00  0.00    -0.169 F 
HETATM   22  F   UNL     1      10.186  30.046  58.450  1.00  0.00    -0.169 F 
HETATM   23  F   UNL     1      10.745  28.607  56.932  1.00  0.00    -0.169 F 
ENDBRANCH   8  20
BRANCH   6  24
HETATM   24  C   UNL     1       6.787  25.913  55.362  1.00  0.00    -0.035 A 
HETATM   25  C   UNL     1       7.757  24.921  55.139  1.00  0.00     0.009 A 
HETATM   26  C   UNL     1       7.585  23.968  54.134  1.00  0.00     0.001 A 
HETATM   27  C   UNL     1       6.437  23.986  53.345  1.00  0.00     0.000 A 
HETATM   28  C   UNL     1       5.461  24.955  53.561  1.00  0.00     0.001 A 
HETATM   29  C   UNL     1       5.633  25.913  54.563  1.00  0.00     0.009 A 
ENDBRANCH   6  24
TORSDOF 6
ENDMDL
MODEL 8
REMARK VINA RESULT:      -7.8      1.344      1.738
REMARK  6 active torsions:
REMARK  status: ('A' for Active; 'I' for Inactive)
REMARK    1  A    between atoms: O_2  and  C_3 
REMARK    2  A    between atoms: C_3  and  C_4 
REMARK    3  A    between atoms: C_4  and  N_5 
REMARK       I    between atoms: N_5  and  C_6 
REMARK    4  A    between atoms: C_6  and  C_7 
REMARK    5  A    between atoms: C_12  and  C_13 
REMARK    6  A    between atoms: C_20  and  C_21 
ROOT
HETATM    1  C   UNL     1       5.491  28.265  54.643  1.00  0.00     0.165 A 
HETATM    2  N   UNL     1       5.546  27.938  53.327  1.00  0.00    -0.163 NA
HETATM    3  N   UNL     1       6.077  26.704  53.316  1.00  0.00    -0.238 N 
HETATM    4  C   UNL     1       6.486  26.272  54.551  1.00  0.00     0.141 A 
HETATM    5  N   UNL     1       7.149  25.097  54.697  1.00  0.00    -0.365 N 
HETATM    6  C   UNL     1       7.771  24.483  53.526  1.00  0.00     0.118 C 
HETATM    7  C   UNL     1       6.787  24.548  52.351  1.00  0.00     0.066 C 
HETATM    8  C   UNL     1       6.368  26.006  52.075  1.00  0.00     0.221 C 
HETATM    9  C   UNL     1       6.074  27.240  55.430  1.00  0.00     0.092 A 
HETATM   10 BR   UNL     1       6.296  27.217  57.289  1.00  0.00    -0.044 Br
HETATM   11  H   UNL     1       7.622  24.904  55.580  1.00  0.00     0.162 HD
ENDROOT
BRANCH   1  12
HETATM   12  C   UNL     1       4.899  29.544  55.075  1.00  0.00     0.273 C 
HETATM   13  N   UNL     1       5.803  30.380  55.692  1.00  0.00    -0.353 N 
HETATM   14  H   UNL     1       6.779  30.088  55.643  1.00  0.00     0.162 HD
HETATM   15  O   UNL     1       3.722  29.845  54.902  1.00  0.00    -0.266 OA
BRANCH  13  16
HETATM   16  C   UNL     1       5.510  31.762  56.005  1.00  0.00     0.149 C 
BRANCH  16  17
HETATM   17  C   UNL     1       5.026  31.919  57.446  1.00  0.00     0.186 C 
BRANCH  17  18
HETATM   18  O   UNL     1       5.572  33.123  57.997  1.00  0.00    -0.394 OA
HETATM   19  C   UNL     1       4.882  33.515  59.177  1.00  0.00     0.201 C 
ENDBRANCH  17  18
ENDBRANCH  16  17
ENDBRANCH  13  16
ENDBRANCH   1  12
BRANCH   8  20
HETATM   20  C   UNL     1       5.190  26.024  51.125  1.00  0.00     0.409 C 
HETATM   21  F   UNL     1       4.309  27.008  51.411  1.00  0.00    -0.169 F 
HETATM   22  F   UNL     1       5.551  26.141  49.830  1.00  0.00    -0.169 F 
HETATM   23  F   UNL     1       4.509  24.850  51.221  1.00  0.00    -0.169 F 
ENDBRANCH   8  20
BRANCH   6  24
HETATM   24  C   UNL     1       8.173  23.052  53.824  1.00  0.00    -0.035 A 
HETATM   25  C   UNL     1       8.804  22.700  55.029  1.00  0.00     0.009 A 
HETATM   26  C   UNL     1       9.147  21.373  55.294  1.00  0.00     0.001 A 
HETATM   27  C   UNL     1       8.854  20.378  54.364  1.00  0.00     0.000 A 
HETATM   28  C   UNL     1       8.219  20.709  53.169  1.00  0.00     0.001 A 
HETATM   29  C   UNL     1       7.880  22.037  52.900  1.00  0.00     0.009 A 
ENDBRANCH   6  24
TORSDOF 6
ENDMDL
MODEL 9
REMARK VINA RESULT:      -7.6      6.882     11.535
REMARK  6 active torsions:
REMARK  status: ('A' for Active; 'I' for Inactive)
REMARK    1  A    between atoms: O_2  and  C_3 
REMARK    2  A    between atoms: C_3  and  C_4 
REMARK    3  A    between atoms: C_4  and  N_5 
REMARK       I    between atoms: N_5  and  C_6 
REMARK    4  A    between atoms: C_6  and  C_7 
REMARK    5  A    between atoms: C_12  and  C_13 
REMARK    6  A    between atoms: C_20  and  C_21 
ROOT
HETATM    1  C   UNL     1       6.017  32.313  59.209  1.00  0.00     0.165 A 
HETATM    2  N   UNL     1       7.239  32.076  59.752  1.00  0.00    -0.163 NA
HETATM    3  N   UNL     1       7.082  32.366  61.055  1.00  0.00    -0.238 N 
HETATM    4  C   UNL     1       5.856  32.901  61.354  1.00  0.00     0.141 A 
HETATM    5  N   UNL     1       5.577  33.357  62.601  1.00  0.00    -0.365 N 
HETATM    6  C   UNL     1       6.680  33.643  63.515  1.00  0.00     0.118 C 
HETATM    7  C   UNL     1       7.696  32.496  63.440  1.00  0.00     0.066 C 
HETATM    8  C   UNL     1       8.191  32.304  61.993  1.00  0.00     0.221 C 
HETATM    9  C   UNL     1       5.135  32.831  60.190  1.00  0.00     0.092 A 
HETATM   10 BR   UNL     1       3.357  33.369  59.952  1.00  0.00    -0.044 Br
HETATM   11  H   UNL     1       4.748  33.936  62.740  1.00  0.00     0.162 HD
ENDROOT
BRANCH   1  12
HETATM   12  C   UNL     1       5.766  32.046  57.782  1.00  0.00     0.273 C 
HETATM   13  N   UNL     1       5.967  30.729  57.432  1.00  0.00    -0.353 N 
HETATM   14  H   UNL     1       6.113  30.083  58.207  1.00  0.00     0.162 HD
HETATM   15  O   UNL     1       5.409  32.902  56.979  1.00  0.00    -0.266 OA
BRANCH  13  16
HETATM   16  C   UNL     1       5.579  30.188  56.146  1.00  0.00     0.149 C 
BRANCH  16  17
HETATM   17  C   UNL     1       5.804  28.679  56.082  1.00  0.00     0.186 C 
BRANCH  17  18
HETATM   18  O   UNL     1       7.206  28.417  55.946  1.00  0.00    -0.394 OA
HETATM   19  C   UNL     1       7.531  27.096  56.361  1.00  0.00     0.201 C 
ENDBRANCH  17  18
ENDBRANCH  16  17
ENDBRANCH  13  16
ENDBRANCH   1  12
BRANCH   8  20
HETATM   20  C   UNL     1       8.952  31.001  61.885  1.00  0.00     0.409 C 
HETATM   21  F   UNL     1       8.777  30.209  62.966  1.00  0.00    -0.169 F 
HETATM   22  F   UNL     1       8.639  30.289  60.783  1.00  0.00    -0.169 F 
HETATM   23  F   UNL     1      10.285  31.256  61.802  1.00  0.00    -0.169 F 
ENDBRANCH   8  20
BRANCH   6  24
HETATM   24  C   UNL     1       6.167  33.827  64.930  1.00  0.00    -0.035 A 
HETATM   25  C   UNL     1       7.044  33.987  66.016  1.00  0.00     0.009 A 
HETATM   26  C   UNL     1       6.552  34.178  67.309  1.00  0.00     0.001 A 
HETATM   27  C   UNL     1       5.178  34.222  67.532  1.00  0.00     0.000 A 
HETATM   28  C   UNL     1       4.295  34.077  66.464  1.00  0.00     0.001 A 
HETATM   29  C   UNL     1       4.786  33.881  65.171  1.00  0.00     0.009 A 
ENDBRANCH   6  24
TORSDOF 6
ENDMDL
MODEL 10
REMARK VINA RESULT:      -7.6      4.536      8.576
REMARK  6 active torsions:
REMARK  status: ('A' for Active; 'I' for Inactive)
REMARK    1  A    between atoms: O_2  and  C_3 
REMARK    2  A    between atoms: C_3  and  C_4 
REMARK    3  A    between atoms: C_4  and  N_5 
REMARK       I    between atoms: N_5  and  C_6 
REMARK    4  A    between atoms: C_6  and  C_7 
REMARK    5  A    between atoms: C_12  and  C_13 
REMARK    6  A    between atoms: C_20  and  C_21 
ROOT
HETATM    1  C   UNL     1       5.936  29.247  55.616  1.00  0.00     0.165 A 
HETATM    2  N   UNL     1       7.283  29.409  55.660  1.00  0.00    -0.163 NA
HETATM    3  N   UNL     1       7.508  29.963  56.864  1.00  0.00    -0.238 N 
HETATM    4  C   UNL     1       6.362  30.284  57.543  1.00  0.00     0.141 A 
HETATM    5  N   UNL     1       6.412  30.955  58.721  1.00  0.00    -0.365 N 
HETATM    6  C   UNL     1       7.631  31.677  59.076  1.00  0.00     0.118 C 
HETATM    7  C   UNL     1       8.841  30.786  58.769  1.00  0.00     0.066 C 
HETATM    8  C   UNL     1       8.841  30.361  57.287  1.00  0.00     0.221 C 
HETATM    9  C   UNL     1       5.336  29.788  56.781  1.00  0.00     0.092 A 
HETATM   10 BR   UNL     1       3.511  29.867  57.191  1.00  0.00    -0.044 Br
HETATM   11  H   UNL     1       5.553  31.363  59.093  1.00  0.00     0.162 HD
ENDROOT
BRANCH   1  12
HETATM   12  C   UNL     1       5.296  28.600  54.457  1.00  0.00     0.273 C 
HETATM   13  N   UNL     1       5.657  27.279  54.304  1.00  0.00    -0.353 N 
HETATM   14  H   UNL     1       6.188  26.875  55.074  1.00  0.00     0.162 HD
HETATM   15  O   UNL     1       4.515  29.170  53.701  1.00  0.00    -0.266 OA
BRANCH  13  16
HETATM   16  C   UNL     1       4.999  26.387  53.374  1.00  0.00     0.149 C 
BRANCH  16  17
HETATM   17  C   UNL     1       5.543  24.963  53.484  1.00  0.00     0.186 C 
BRANCH  17  18
HETATM   18  O   UNL     1       6.812  24.994  54.148  1.00  0.00    -0.394 OA
HETATM   19  C   UNL     1       6.899  23.990  55.151  1.00  0.00     0.201 C 
ENDBRANCH  17  18
ENDBRANCH  16  17
ENDBRANCH  13  16
ENDBRANCH   1  12
BRANCH   8  20
HETATM   20  C   UNL     1       9.856  29.260  57.074  1.00  0.00     0.409 C 
HETATM   21  F   UNL     1       9.354  28.034  57.341  1.00  0.00    -0.169 F 
HETATM   22  F   UNL     1      10.374  29.245  55.828  1.00  0.00    -0.169 F 
HETATM   23  F   UNL     1      10.909  29.441  57.916  1.00  0.00    -0.169 F 
ENDBRANCH   8  20
BRANCH   6  24
HETATM   24  C   UNL     1       7.607  32.082  60.536  1.00  0.00    -0.035 A 
HETATM   25  C   UNL     1       6.553  32.841  61.073  1.00  0.00     0.009 A 
HETATM   26  C   UNL     1       6.538  33.186  62.426  1.00  0.00     0.001 A 
HETATM   27  C   UNL     1       7.569  32.767  63.263  1.00  0.00     0.000 A 
HETATM   28  C   UNL     1       8.615  32.004  62.750  1.00  0.00     0.001 A 
HETATM   29  C   UNL     1       8.635  31.663  61.396  1.00  0.00     0.009 A 
ENDBRANCH   6  24
TORSDOF 6
ENDMDL
