MODEL 1
REMARK VINA RESULT:      -9.9      0.000      0.000
REMARK  4 active torsions:
REMARK  status: ('A' for Active; 'I' for Inactive)
REMARK    1  A    between atoms: C_8  and  C_9 
REMARK    2  A    between atoms: C_9  and  C_10 
REMARK       I    between atoms: C_10  and  N_11 
REMARK    3  A    between atoms: N_11  and  C_12 
REMARK    4  A    between atoms: C_14  and  C_15 
ROOT
HETATM    1  C   UNL     1       7.816  25.676  57.109  1.00  0.00     0.226 C 
HETATM    2  N   UNL     1       7.699  27.005  56.707  1.00  0.00    -0.327 N 
HETATM    3  O   UNL     1       8.692  25.218  57.835  1.00  0.00    -0.273 OA
HETATM    4  H   UNL     1       7.027  27.201  55.978  1.00  0.00     0.169 HD
ENDROOT
BRANCH   1   5
HETATM    5  C   UNL     1       6.737  24.816  56.477  1.00  0.00     0.144 C 
BRANCH   5   6
HETATM    6  C   UNL     1       7.066  24.065  55.218  1.00  0.00    -0.021 A 
HETATM    7  C   UNL     1       7.596  22.734  54.976  1.00  0.00     0.005 A 
HETATM    8  C   UNL     1       8.084  21.647  55.765  1.00  0.00    -0.049 A 
HETATM    9  C   UNL     1       7.565  22.548  53.584  1.00  0.00     0.043 A 
HETATM   10  C   UNL     1       8.208  21.645  57.263  1.00  0.00     0.049 C 
HETATM   11  C   UNL     1       8.534  20.479  55.101  1.00  0.00     0.007 A 
HETATM   12  C   UNL     1       8.475  20.343  53.721  1.00  0.00     0.003 A 
HETATM   13  C   UNL     1       7.982  21.377  52.939  1.00  0.00     0.030 A 
HETATM   14  N   UNL     1       7.062  23.689  53.014  1.00  0.00    -0.365 N 
HETATM   15  H   UNL     1       6.926  23.819  52.021  1.00  0.00     0.165 HD
HETATM   16  C   UNL     1       6.757  24.600  53.975  1.00  0.00     0.097 A 
ENDBRANCH   5   6
ENDBRANCH   1   5
BRANCH   2  17
HETATM   17  C   UNL     1       8.371  28.134  57.218  1.00  0.00     0.035 A 
HETATM   18  C   UNL     1       7.925  28.886  58.307  1.00  0.00     0.042 A 
HETATM   19  C   UNL     1       8.606  30.050  58.711  1.00  0.00    -0.021 A 
HETATM   20  C   UNL     1       9.758  30.434  58.010  1.00  0.00     0.012 A 
HETATM   21  C   UNL     1      10.215  29.683  56.928  1.00  0.00     0.003 A 
HETATM   22  C   UNL     1       9.521  28.541  56.533  1.00  0.00     0.029 A 
BRANCH  19  23
HETATM   23  C   UNL     1       8.122  30.868  59.815  1.00  0.00     0.010 A 
HETATM   24  C   UNL     1       7.094  31.845  59.863  1.00  0.00     0.152 A 
HETATM   25  N   UNL     1       6.940  32.383  61.076  1.00  0.00    -0.187 NA
HETATM   26  N   UNL     1       7.865  31.752  61.815  1.00  0.00    -0.289 N 
HETATM   27  H   UNL     1       7.943  31.992  62.797  1.00  0.00     0.188 HD
HETATM   28  C   UNL     1       8.597  30.841  61.109  1.00  0.00     0.123 A 
ENDBRANCH  19  23
ENDBRANCH   2  17
TORSDOF 4
ENDMDL
MODEL 2
REMARK VINA RESULT:      -9.7      1.233      1.992
REMARK  4 active torsions:
REMARK  status: ('A' for Active; 'I' for Inactive)
REMARK    1  A    between atoms: C_8  and  C_9 
REMARK    2  A    between atoms: C_9  and  C_10 
REMARK       I    between atoms: C_10  and  N_11 
REMARK    3  A    between atoms: N_11  and  C_12 
REMARK    4  A    between atoms: C_14  and  C_15 
ROOT
HETATM    1  C   UNL     1       7.982  26.481  57.064  1.00  0.00     0.226 C 
HETATM    2  N   UNL     1       8.544  27.657  56.573  1.00  0.00    -0.327 N 
HETATM    3  O   UNL     1       7.935  26.143  58.242  1.00  0.00    -0.273 OA
HETATM    4  H   UNL     1       8.656  27.720  55.570  1.00  0.00     0.169 HD
ENDROOT
BRANCH   1   5
HETATM    5  C   UNL     1       7.470  25.604  55.936  1.00  0.00     0.144 C 
BRANCH   5   6
HETATM    6  C   UNL     1       7.775  24.133  55.978  1.00  0.00    -0.021 A 
HETATM    7  C   UNL     1       7.871  23.119  54.942  1.00  0.00     0.005 A 
HETATM    8  C   UNL     1       7.656  23.045  53.532  1.00  0.00    -0.049 A 
HETATM    9  C   UNL     1       8.313  21.948  55.581  1.00  0.00     0.043 A 
HETATM   10  C   UNL     1       7.177  24.174  52.664  1.00  0.00     0.049 C 
HETATM   11  C   UNL     1       7.866  21.804  52.880  1.00  0.00     0.007 A 
HETATM   12  C   UNL     1       8.312  20.678  53.557  1.00  0.00     0.003 A 
HETATM   13  C   UNL     1       8.549  20.735  54.923  1.00  0.00     0.030 A 
HETATM   14  N   UNL     1       8.466  22.225  56.916  1.00  0.00    -0.365 N 
HETATM   15  H   UNL     1       8.784  21.556  57.604  1.00  0.00     0.165 HD
HETATM   16  C   UNL     1       8.153  23.523  57.166  1.00  0.00     0.097 A 
ENDBRANCH   5   6
ENDBRANCH   1   5
BRANCH   2  17
HETATM   17  C   UNL     1       8.941  28.802  57.292  1.00  0.00     0.035 A 
HETATM   18  C   UNL     1       8.160  29.426  58.267  1.00  0.00     0.042 A 
HETATM   19  C   UNL     1       8.588  30.615  58.887  1.00  0.00    -0.021 A 
HETATM   20  C   UNL     1       9.829  31.156  58.520  1.00  0.00     0.012 A 
HETATM   21  C   UNL     1      10.618  30.534  57.554  1.00  0.00     0.003 A 
HETATM   22  C   UNL     1      10.173  29.365  56.941  1.00  0.00     0.029 A 
BRANCH  19  23
HETATM   23  C   UNL     1       7.760  31.299  59.870  1.00  0.00     0.010 A 
HETATM   24  C   UNL     1       6.624  32.134  59.705  1.00  0.00     0.152 A 
HETATM   25  N   UNL     1       6.128  32.577  60.864  1.00  0.00    -0.187 NA
HETATM   26  N   UNL     1       6.939  32.026  61.779  1.00  0.00    -0.289 N 
HETATM   27  H   UNL     1       6.760  32.217  62.760  1.00  0.00     0.188 HD
HETATM   28  C   UNL     1       7.929  31.258  61.238  1.00  0.00     0.123 A 
ENDBRANCH  19  23
ENDBRANCH   2  17
TORSDOF 4
ENDMDL
MODEL 3
REMARK VINA RESULT:      -9.6      4.969      8.521
REMARK  4 active torsions:
REMARK  status: ('A' for Active; 'I' for Inactive)
REMARK    1  A    between atoms: C_8  and  C_9 
REMARK    2  A    between atoms: C_9  and  C_10 
REMARK       I    between atoms: C_10  and  N_11 
REMARK    3  A    between atoms: N_11  and  C_12 
REMARK    4  A    between atoms: C_14  and  C_15 
ROOT
HETATM    1  C   UNL     1       6.392  25.180  52.916  1.00  0.00     0.226 C 
HETATM    2  N   UNL     1       6.550  26.204  51.984  1.00  0.00    -0.327 N 
HETATM    3  O   UNL     1       5.339  24.853  53.454  1.00  0.00    -0.273 OA
HETATM    4  H   UNL     1       7.500  26.465  51.755  1.00  0.00     0.169 HD
ENDROOT
BRANCH   1   5
HETATM    5  C   UNL     1       7.723  24.532  53.250  1.00  0.00     0.144 C 
BRANCH   5   6
HETATM    6  C   UNL     1       7.867  23.834  54.573  1.00  0.00    -0.021 A 
HETATM    7  C   UNL     1       8.079  22.442  54.932  1.00  0.00     0.005 A 
HETATM    8  C   UNL     1       8.160  21.189  54.250  1.00  0.00    -0.049 A 
HETATM    9  C   UNL     1       8.260  22.421  56.325  1.00  0.00     0.043 A 
HETATM   10  C   UNL     1       7.986  20.991  52.770  1.00  0.00     0.049 C 
HETATM   11  C   UNL     1       8.379  20.016  55.014  1.00  0.00     0.007 A 
HETATM   12  C   UNL     1       8.560  20.052  56.389  1.00  0.00     0.003 A 
HETATM   13  C   UNL     1       8.510  21.260  57.068  1.00  0.00     0.030 A 
HETATM   14  N   UNL     1       8.155  23.709  56.787  1.00  0.00    -0.365 N 
HETATM   15  H   UNL     1       8.254  23.977  57.756  1.00  0.00     0.165 HD
HETATM   16  C   UNL     1       7.925  24.561  55.753  1.00  0.00     0.097 A 
ENDBRANCH   5   6
ENDBRANCH   1   5
BRANCH   2  17
HETATM   17  C   UNL     1       5.552  26.902  51.277  1.00  0.00     0.035 A 
HETATM   18  C   UNL     1       4.880  26.397  50.161  1.00  0.00     0.042 A 
HETATM   19  C   UNL     1       3.952  27.184  49.456  1.00  0.00    -0.021 A 
HETATM   20  C   UNL     1       3.695  28.487  49.905  1.00  0.00     0.012 A 
HETATM   21  C   UNL     1       4.353  28.996  51.024  1.00  0.00     0.003 A 
HETATM   22  C   UNL     1       5.280  28.208  51.702  1.00  0.00     0.029 A 
BRANCH  19  23
HETATM   23  C   UNL     1       3.282  26.683  48.263  1.00  0.00     0.010 A 
HETATM   24  C   UNL     1       3.421  25.452  47.571  1.00  0.00     0.152 A 
HETATM   25  N   UNL     1       2.618  25.357  46.507  1.00  0.00    -0.187 NA
HETATM   26  N   UNL     1       1.955  26.523  46.514  1.00  0.00    -0.289 N 
HETATM   27  H   UNL     1       1.267  26.691  45.787  1.00  0.00     0.188 HD
HETATM   28  C   UNL     1       2.316  27.349  47.539  1.00  0.00     0.123 A 
ENDBRANCH  19  23
ENDBRANCH   2  17
TORSDOF 4
ENDMDL
MODEL 4
REMARK VINA RESULT:      -9.4      1.564      2.086
REMARK  4 active torsions:
REMARK  status: ('A' for Active; 'I' for Inactive)
REMARK    1  A    between atoms: C_8  and  C_9 
REMARK    2  A    between atoms: C_9  and  C_10 
REMARK       I    between atoms: C_10  and  N_11 
REMARK    3  A    between atoms: N_11  and  C_12 
REMARK    4  A    between atoms: C_14  and  C_15 
ROOT
HETATM    1  C   UNL     1       7.411  26.015  57.145  1.00  0.00     0.226 C 
HETATM    2  N   UNL     1       6.331  26.860  56.894  1.00  0.00    -0.327 N 
HETATM    3  O   UNL     1       8.538  26.366  57.477  1.00  0.00    -0.273 OA
HETATM    4  H   UNL     1       5.516  26.439  56.470  1.00  0.00     0.169 HD
ENDROOT
BRANCH   1   5
HETATM    5  C   UNL     1       7.041  24.564  56.893  1.00  0.00     0.144 C 
BRANCH   5   6
HETATM    6  C   UNL     1       7.271  23.995  55.521  1.00  0.00    -0.021 A 
HETATM    7  C   UNL     1       7.679  22.680  55.058  1.00  0.00     0.005 A 
HETATM    8  C   UNL     1       8.094  21.448  55.651  1.00  0.00    -0.049 A 
HETATM    9  C   UNL     1       7.595  22.716  53.656  1.00  0.00     0.043 A 
HETATM   10  C   UNL     1       8.258  21.202  57.125  1.00  0.00     0.049 C 
HETATM   11  C   UNL     1       8.425  20.365  54.798  1.00  0.00     0.007 A 
HETATM   12  C   UNL     1       8.317  20.450  53.418  1.00  0.00     0.003 A 
HETATM   13  C   UNL     1       7.893  21.630  52.823  1.00  0.00     0.030 A 
HETATM   14  N   UNL     1       7.176  23.969  53.288  1.00  0.00    -0.365 N 
HETATM   15  H   UNL     1       7.025  24.262  52.332  1.00  0.00     0.165 HD
HETATM   16  C   UNL     1       6.976  24.740  54.389  1.00  0.00     0.097 A 
ENDBRANCH   5   6
ENDBRANCH   1   5
BRANCH   2  17
HETATM   17  C   UNL     1       6.207  28.230  57.198  1.00  0.00     0.035 A 
HETATM   18  C   UNL     1       7.203  28.991  57.815  1.00  0.00     0.042 A 
HETATM   19  C   UNL     1       6.977  30.336  58.161  1.00  0.00    -0.021 A 
HETATM   20  C   UNL     1       5.734  30.910  57.857  1.00  0.00     0.012 A 
HETATM   21  C   UNL     1       4.739  30.161  57.232  1.00  0.00     0.003 A 
HETATM   22  C   UNL     1       4.974  28.826  56.909  1.00  0.00     0.029 A 
BRANCH  19  23
HETATM   23  C   UNL     1       7.991  31.125  58.847  1.00  0.00     0.010 A 
HETATM   24  C   UNL     1       9.369  31.311  58.562  1.00  0.00     0.152 A 
HETATM   25  N   UNL     1       9.977  32.124  59.431  1.00  0.00    -0.187 NA
HETATM   26  N   UNL     1       8.993  32.468  60.275  1.00  0.00    -0.289 N 
HETATM   27  H   UNL     1       9.211  33.098  61.040  1.00  0.00     0.188 HD
HETATM   28  C   UNL     1       7.791  31.897  59.971  1.00  0.00     0.123 A 
ENDBRANCH  19  23
ENDBRANCH   2  17
TORSDOF 4
ENDMDL
MODEL 5
REMARK VINA RESULT:      -9.4      2.281      9.249
REMARK  4 active torsions:
REMARK  status: ('A' for Active; 'I' for Inactive)
REMARK    1  A    between atoms: C_8  and  C_9 
REMARK    2  A    between atoms: C_9  and  C_10 
REMARK       I    between atoms: C_10  and  N_11 
REMARK    3  A    between atoms: N_11  and  C_12 
REMARK    4  A    between atoms: C_14  and  C_15 
ROOT
HETATM    1  C   UNL     1       7.679  28.003  54.973  1.00  0.00     0.226 C 
HETATM    2  N   UNL     1       7.418  26.657  55.220  1.00  0.00    -0.327 N 
HETATM    3  O   UNL     1       8.278  28.453  54.003  1.00  0.00    -0.273 OA
HETATM    4  H   UNL     1       7.062  26.425  56.137  1.00  0.00     0.169 HD
ENDROOT
BRANCH   1   5
HETATM    5  C   UNL     1       7.175  28.876  56.108  1.00  0.00     0.144 C 
BRANCH   5   6
HETATM    6  C   UNL     1       8.184  29.585  56.967  1.00  0.00    -0.021 A 
HETATM    7  C   UNL     1       8.053  30.565  58.032  1.00  0.00     0.005 A 
HETATM    8  C   UNL     1       6.995  31.303  58.646  1.00  0.00    -0.049 A 
HETATM    9  C   UNL     1       9.346  30.760  58.544  1.00  0.00     0.043 A 
HETATM   10  C   UNL     1       5.547  31.247  58.245  1.00  0.00     0.049 C 
HETATM   11  C   UNL     1       7.317  32.200  59.694  1.00  0.00     0.007 A 
HETATM   12  C   UNL     1       8.612  32.350  60.169  1.00  0.00     0.003 A 
HETATM   13  C   UNL     1       9.650  31.625  59.603  1.00  0.00     0.030 A 
HETATM   14  N   UNL     1      10.209  29.965  57.834  1.00  0.00    -0.365 N 
HETATM   15  H   UNL     1      11.204  29.907  58.004  1.00  0.00     0.165 HD
HETATM   16  C   UNL     1       9.530  29.257  56.894  1.00  0.00     0.097 A 
ENDBRANCH   5   6
ENDBRANCH   1   5
BRANCH   2  17
HETATM   17  C   UNL     1       7.543  25.567  54.335  1.00  0.00     0.035 A 
HETATM   18  C   UNL     1       7.842  24.262  54.734  1.00  0.00     0.042 A 
HETATM   19  C   UNL     1       8.032  23.240  53.786  1.00  0.00    -0.021 A 
HETATM   20  C   UNL     1       7.897  23.550  52.425  1.00  0.00     0.012 A 
HETATM   21  C   UNL     1       7.589  24.848  52.019  1.00  0.00     0.003 A 
HETATM   22  C   UNL     1       7.417  25.851  52.970  1.00  0.00     0.029 A 
BRANCH  19  23
HETATM   23  C   UNL     1       8.391  21.887  54.189  1.00  0.00     0.010 A 
HETATM   24  C   UNL     1       8.536  20.700  53.424  1.00  0.00     0.152 A 
HETATM   25  N   UNL     1       8.887  19.643  54.161  1.00  0.00    -0.187 NA
HETATM   26  N   UNL     1       8.974  20.145  55.402  1.00  0.00    -0.289 N 
HETATM   27  H   UNL     1       9.236  19.520  56.158  1.00  0.00     0.188 HD
HETATM   28  C   UNL     1       8.686  21.477  55.472  1.00  0.00     0.123 A 
ENDBRANCH  19  23
ENDBRANCH   2  17
TORSDOF 4
ENDMDL
MODEL 6
REMARK VINA RESULT:      -9.4      4.495      7.370
REMARK  4 active torsions:
REMARK  status: ('A' for Active; 'I' for Inactive)
REMARK    1  A    between atoms: C_8  and  C_9 
REMARK    2  A    between atoms: C_9  and  C_10 
REMARK       I    between atoms: C_10  and  N_11 
REMARK    3  A    between atoms: N_11  and  C_12 
REMARK    4  A    between atoms: C_14  and  C_15 
ROOT
HETATM    1  C   UNL     1       6.495  25.950  55.005  1.00  0.00     0.226 C 
HETATM    2  N   UNL     1       6.764  26.961  54.085  1.00  0.00    -0.327 N 
HETATM    3  O   UNL     1       5.383  25.537  55.315  1.00  0.00    -0.273 OA
HETATM    4  H   UNL     1       7.714  27.306  54.055  1.00  0.00     0.169 HD
ENDROOT
BRANCH   1   5
HETATM    5  C   UNL     1       7.772  25.439  55.647  1.00  0.00     0.144 C 
BRANCH   5   6
HETATM    6  C   UNL     1       7.951  23.956  55.803  1.00  0.00    -0.021 A 
HETATM    7  C   UNL     1       8.039  22.869  54.843  1.00  0.00     0.005 A 
HETATM    8  C   UNL     1       7.925  22.717  53.427  1.00  0.00    -0.049 A 
HETATM    9  C   UNL     1       8.335  21.714  55.586  1.00  0.00     0.043 A 
HETATM   10  C   UNL     1       7.606  23.818  52.456  1.00  0.00     0.049 C 
HETATM   11  C   UNL     1       8.079  21.422  52.872  1.00  0.00     0.007 A 
HETATM   12  C   UNL     1       8.379  20.314  53.651  1.00  0.00     0.003 A 
HETATM   13  C   UNL     1       8.518  20.444  55.025  1.00  0.00     0.030 A 
HETATM   14  N   UNL     1       8.410  22.067  56.909  1.00  0.00    -0.365 N 
HETATM   15  H   UNL     1       8.619  21.425  57.661  1.00  0.00     0.165 HD
HETATM   16  C   UNL     1       8.187  23.400  57.053  1.00  0.00     0.097 A 
ENDBRANCH   5   6
ENDBRANCH   1   5
BRANCH   2  17
HETATM   17  C   UNL     1       5.888  27.545  53.148  1.00  0.00     0.035 A 
HETATM   18  C   UNL     1       5.739  27.103  51.832  1.00  0.00     0.042 A 
HETATM   19  C   UNL     1       4.904  27.786  50.928  1.00  0.00    -0.021 A 
HETATM   20  C   UNL     1       4.204  28.915  51.379  1.00  0.00     0.012 A 
HETATM   21  C   UNL     1       4.340  29.357  52.694  1.00  0.00     0.003 A 
HETATM   22  C   UNL     1       5.182  28.676  53.572  1.00  0.00     0.029 A 
BRANCH  19  23
HETATM   23  C   UNL     1       4.778  27.362  49.540  1.00  0.00     0.010 A 
HETATM   24  C   UNL     1       5.229  27.972  48.341  1.00  0.00     0.152 A 
HETATM   25  N   UNL     1       4.923  27.266  47.248  1.00  0.00    -0.187 NA
HETATM   26  N   UNL     1       4.279  26.197  47.740  1.00  0.00    -0.289 N 
HETATM   27  H   UNL     1       3.942  25.496  47.089  1.00  0.00     0.188 HD
HETATM   28  C   UNL     1       4.164  26.209  49.100  1.00  0.00     0.123 A 
ENDBRANCH  19  23
ENDBRANCH   2  17
TORSDOF 4
ENDMDL
MODEL 7
REMARK VINA RESULT:      -9.1      1.698      2.508
REMARK  4 active torsions:
REMARK  status: ('A' for Active; 'I' for Inactive)
REMARK    1  A    between atoms: C_8  and  C_9 
REMARK    2  A    between atoms: C_9  and  C_10 
REMARK       I    between atoms: C_10  and  N_11 
REMARK    3  A    between atoms: N_11  and  C_12 
REMARK    4  A    between atoms: C_14  and  C_15 
ROOT
HETATM    1  C   UNL     1       6.905  26.689  56.263  1.00  0.00     0.226 C 
HETATM    2  N   UNL     1       7.701  27.816  56.459  1.00  0.00    -0.327 N 
HETATM    3  O   UNL     1       5.821  26.474  56.794  1.00  0.00    -0.273 OA
HETATM    4  H   UNL     1       8.640  27.778  56.085  1.00  0.00     0.169 HD
ENDROOT
BRANCH   1   5
HETATM    5  C   UNL     1       7.580  25.696  55.335  1.00  0.00     0.144 C 
BRANCH   5   6
HETATM    6  C   UNL     1       7.812  24.296  55.831  1.00  0.00    -0.021 A 
HETATM    7  C   UNL     1       7.949  23.021  55.149  1.00  0.00     0.005 A 
HETATM    8  C   UNL     1       7.853  22.541  53.806  1.00  0.00    -0.049 A 
HETATM    9  C   UNL     1       8.281  22.082  56.139  1.00  0.00     0.043 A 
HETATM   10  C   UNL     1       7.502  23.375  52.606  1.00  0.00     0.049 C 
HETATM   11  C   UNL     1       8.060  21.160  53.566  1.00  0.00     0.007 A 
HETATM   12  C   UNL     1       8.394  20.274  54.581  1.00  0.00     0.003 A 
HETATM   13  C   UNL     1       8.516  20.724  55.887  1.00  0.00     0.030 A 
HETATM   14  N   UNL     1       8.332  22.735  57.344  1.00  0.00    -0.365 N 
HETATM   15  H   UNL     1       8.558  22.292  58.224  1.00  0.00     0.165 HD
HETATM   16  C   UNL     1       8.058  24.055  57.175  1.00  0.00     0.097 A 
ENDBRANCH   5   6
ENDBRANCH   1   5
BRANCH   2  17
HETATM   17  C   UNL     1       7.354  29.033  57.079  1.00  0.00     0.035 A 
HETATM   18  C   UNL     1       7.892  29.480  58.288  1.00  0.00     0.042 A 
HETATM   19  C   UNL     1       7.437  30.668  58.888  1.00  0.00    -0.021 A 
HETATM   20  C   UNL     1       6.441  31.412  58.238  1.00  0.00     0.012 A 
HETATM   21  C   UNL     1       5.906  30.978  57.027  1.00  0.00     0.003 A 
HETATM   22  C   UNL     1       6.358  29.792  56.453  1.00  0.00     0.029 A 
BRANCH  19  23
HETATM   23  C   UNL     1       7.957  31.119  60.172  1.00  0.00     0.010 A 
HETATM   24  C   UNL     1       7.395  31.984  61.147  1.00  0.00     0.152 A 
HETATM   25  N   UNL     1       8.184  32.154  62.211  1.00  0.00    -0.187 NA
HETATM   26  N   UNL     1       9.254  31.396  61.929  1.00  0.00    -0.289 N 
HETATM   27  H   UNL     1      10.010  31.358  62.605  1.00  0.00     0.188 HD
HETATM   28  C   UNL     1       9.168  30.760  60.724  1.00  0.00     0.123 A 
ENDBRANCH  19  23
ENDBRANCH   2  17
TORSDOF 4
ENDMDL
MODEL 8
REMARK VINA RESULT:      -9.0      2.112      2.993
REMARK  4 active torsions:
REMARK  status: ('A' for Active; 'I' for Inactive)
REMARK    1  A    between atoms: C_8  and  C_9 
REMARK    2  A    between atoms: C_9  and  C_10 
REMARK       I    between atoms: C_10  and  N_11 
REMARK    3  A    between atoms: N_11  and  C_12 
REMARK    4  A    between atoms: C_14  and  C_15 
ROOT
HETATM    1  C   UNL     1       7.277  28.165  57.603  1.00  0.00     0.226 C 
HETATM    2  N   UNL     1       7.354  29.556  57.614  1.00  0.00    -0.327 N 
HETATM    3  O   UNL     1       8.008  27.399  58.222  1.00  0.00    -0.273 OA
HETATM    4  H   UNL     1       6.795  30.046  56.929  1.00  0.00     0.169 HD
ENDROOT
BRANCH   1   5
HETATM    5  C   UNL     1       6.189  27.683  56.661  1.00  0.00     0.144 C 
BRANCH   5   6
HETATM    6  C   UNL     1       6.574  27.297  55.261  1.00  0.00    -0.021 A 
HETATM    7  C   UNL     1       7.042  26.051  54.678  1.00  0.00     0.005 A 
HETATM    8  C   UNL     1       7.399  24.749  55.148  1.00  0.00    -0.049 A 
HETATM    9  C   UNL     1       7.113  26.270  53.293  1.00  0.00     0.043 A 
HETATM   10  C   UNL     1       7.401  24.312  56.586  1.00  0.00     0.049 C 
HETATM   11  C   UNL     1       7.831  23.785  54.203  1.00  0.00     0.007 A 
HETATM   12  C   UNL     1       7.876  24.051  52.842  1.00  0.00     0.003 A 
HETATM   13  C   UNL     1       7.510  25.300  52.363  1.00  0.00     0.030 A 
HETATM   14  N   UNL     1       6.727  27.563  53.046  1.00  0.00    -0.365 N 
HETATM   15  H   UNL     1       6.680  27.979  52.127  1.00  0.00     0.165 HD
HETATM   16  C   UNL     1       6.399  28.185  54.210  1.00  0.00     0.097 A 
ENDBRANCH   5   6
ENDBRANCH   1   5
BRANCH   2  17
HETATM   17  C   UNL     1       8.083  30.383  58.491  1.00  0.00     0.035 A 
HETATM   18  C   UNL     1       7.565  30.930  59.667  1.00  0.00     0.042 A 
HETATM   19  C   UNL     1       8.327  31.814  60.453  1.00  0.00    -0.021 A 
HETATM   20  C   UNL     1       9.632  32.125  60.043  1.00  0.00     0.012 A 
HETATM   21  C   UNL     1      10.160  31.575  58.877  1.00  0.00     0.003 A 
HETATM   22  C   UNL     1       9.387  30.713  58.103  1.00  0.00     0.029 A 
BRANCH  19  23
HETATM   23  C   UNL     1       7.779  32.427  61.655  1.00  0.00     0.010 A 
HETATM   24  C   UNL     1       6.687  33.318  61.826  1.00  0.00     0.152 A 
HETATM   25  N   UNL     1       6.486  33.660  63.102  1.00  0.00    -0.187 NA
HETATM   26  N   UNL     1       7.444  32.988  63.758  1.00  0.00    -0.289 N 
HETATM   27  H   UNL     1       7.497  33.085  64.766  1.00  0.00     0.188 HD
HETATM   28  C   UNL     1       8.242  32.241  62.941  1.00  0.00     0.123 A 
ENDBRANCH  19  23
ENDBRANCH   2  17
TORSDOF 4
ENDMDL
MODEL 9
REMARK VINA RESULT:      -9.0      5.731      9.714
REMARK  4 active torsions:
REMARK  status: ('A' for Active; 'I' for Inactive)
REMARK    1  A    between atoms: C_8  and  C_9 
REMARK    2  A    between atoms: C_9  and  C_10 
REMARK       I    between atoms: C_10  and  N_11 
REMARK    3  A    between atoms: N_11  and  C_12 
REMARK    4  A    between atoms: C_14  and  C_15 
ROOT
HETATM    1  C   UNL     1       5.368  26.407  51.075  1.00  0.00     0.226 C 
HETATM    2  N   UNL     1       6.491  25.593  51.213  1.00  0.00    -0.327 N 
HETATM    3  O   UNL     1       4.545  26.651  51.950  1.00  0.00    -0.273 OA
HETATM    4  H   UNL     1       6.984  25.354  50.363  1.00  0.00     0.169 HD
ENDROOT
BRANCH   1   5
HETATM    5  C   UNL     1       5.240  26.929  49.655  1.00  0.00     0.144 C 
BRANCH   5   6
HETATM    6  C   UNL     1       3.947  26.704  48.924  1.00  0.00    -0.021 A 
HETATM    7  C   UNL     1       2.954  27.614  48.380  1.00  0.00     0.005 A 
HETATM    8  C   UNL     1       2.731  29.025  48.362  1.00  0.00    -0.049 A 
HETATM    9  C   UNL     1       2.025  26.813  47.694  1.00  0.00     0.043 A 
HETATM   10  C   UNL     1       3.595  30.052  49.038  1.00  0.00     0.049 C 
HETATM   11  C   UNL     1       1.583  29.519  47.695  1.00  0.00     0.007 A 
HETATM   12  C   UNL     1       0.699  28.685  47.025  1.00  0.00     0.003 A 
HETATM   13  C   UNL     1       0.911  27.315  47.009  1.00  0.00     0.030 A 
HETATM   14  N   UNL     1       2.416  25.505  47.821  1.00  0.00    -0.365 N 
HETATM   15  H   UNL     1       1.925  24.721  47.414  1.00  0.00     0.165 HD
HETATM   16  C   UNL     1       3.561  25.425  48.548  1.00  0.00     0.097 A 
ENDBRANCH   5   6
ENDBRANCH   1   5
BRANCH   2  17
HETATM   17  C   UNL     1       7.063  25.089  52.398  1.00  0.00     0.035 A 
HETATM   18  C   UNL     1       7.483  23.768  52.566  1.00  0.00     0.042 A 
HETATM   19  C   UNL     1       7.971  23.315  53.806  1.00  0.00    -0.021 A 
HETATM   20  C   UNL     1       8.046  24.223  54.873  1.00  0.00     0.012 A 
HETATM   21  C   UNL     1       7.637  25.545  54.710  1.00  0.00     0.003 A 
HETATM   22  C   UNL     1       7.144  25.974  53.479  1.00  0.00     0.029 A 
BRANCH  19  23
HETATM   23  C   UNL     1       8.368  21.928  54.006  1.00  0.00     0.010 A 
HETATM   24  C   UNL     1       8.383  20.830  53.106  1.00  0.00     0.152 A 
HETATM   25  N   UNL     1       8.824  19.701  53.667  1.00  0.00    -0.187 NA
HETATM   26  N   UNL     1       9.100  20.067  54.928  1.00  0.00    -0.289 N 
HETATM   27  H   UNL     1       9.462  19.366  55.565  1.00  0.00     0.188 HD
HETATM   28  C   UNL     1       8.843  21.384  55.180  1.00  0.00     0.123 A 
ENDBRANCH  19  23
ENDBRANCH   2  17
TORSDOF 4
ENDMDL
MODEL 10
REMARK VINA RESULT:      -9.0      2.133      8.827
REMARK  4 active torsions:
REMARK  status: ('A' for Active; 'I' for Inactive)
REMARK    1  A    between atoms: C_8  and  C_9 
REMARK    2  A    between atoms: C_9  and  C_10 
REMARK       I    between atoms: C_10  and  N_11 
REMARK    3  A    between atoms: N_11  and  C_12 
REMARK    4  A    between atoms: C_14  and  C_15 
ROOT
HETATM    1  C   UNL     1       6.324  27.113  55.251  1.00  0.00     0.226 C 
HETATM    2  N   UNL     1       7.580  26.593  55.558  1.00  0.00    -0.327 N 
HETATM    3  O   UNL     1       5.324  26.460  54.973  1.00  0.00    -0.273 OA
HETATM    4  H   UNL     1       8.345  27.253  55.602  1.00  0.00     0.169 HD
ENDROOT
BRANCH   1   5
HETATM    5  C   UNL     1       6.347  28.631  55.239  1.00  0.00     0.144 C 
BRANCH   5   6
HETATM    6  C   UNL     1       6.503  29.354  56.547  1.00  0.00    -0.021 A 
HETATM    7  C   UNL     1       7.656  29.918  57.227  1.00  0.00     0.005 A 
HETATM    8  C   UNL     1       9.069  29.968  57.018  1.00  0.00    -0.049 A 
HETATM    9  C   UNL     1       7.156  30.583  58.359  1.00  0.00     0.043 A 
HETATM   10  C   UNL     1       9.805  29.318  55.880  1.00  0.00     0.049 C 
HETATM   11  C   UNL     1       9.869  30.645  57.972  1.00  0.00     0.007 A 
HETATM   12  C   UNL     1       9.323  31.294  59.070  1.00  0.00     0.003 A 
HETATM   13  C   UNL     1       7.952  31.278  59.278  1.00  0.00     0.030 A 
HETATM   14  N   UNL     1       5.793  30.427  58.376  1.00  0.00    -0.365 N 
HETATM   15  H   UNL     1       5.183  30.815  59.082  1.00  0.00     0.165 HD
HETATM   16  C   UNL     1       5.390  29.700  57.300  1.00  0.00     0.097 A 
ENDBRANCH   5   6
ENDBRANCH   1   5
BRANCH   2  17
HETATM   17  C   UNL     1       7.923  25.261  55.861  1.00  0.00     0.035 A 
HETATM   18  C   UNL     1       7.996  24.234  54.916  1.00  0.00     0.042 A 
HETATM   19  C   UNL     1       8.265  22.909  55.305  1.00  0.00    -0.021 A 
HETATM   20  C   UNL     1       8.480  22.636  56.664  1.00  0.00     0.012 A 
HETATM   21  C   UNL     1       8.418  23.657  57.612  1.00  0.00     0.003 A 
HETATM   22  C   UNL     1       8.137  24.961  57.211  1.00  0.00     0.029 A 
BRANCH  19  23
HETATM   23  C   UNL     1       8.297  21.824  54.334  1.00  0.00     0.010 A 
HETATM   24  C   UNL     1       8.754  20.485  54.456  1.00  0.00     0.152 A 
HETATM   25  N   UNL     1       8.611  19.780  53.330  1.00  0.00    -0.187 NA
HETATM   26  N   UNL     1       8.057  20.659  52.481  1.00  0.00    -0.289 N 
HETATM   27  H   UNL     1       7.844  20.351  51.539  1.00  0.00     0.188 HD
HETATM   28  C   UNL     1       7.851  21.891  53.031  1.00  0.00     0.123 A 
ENDBRANCH  19  23
ENDBRANCH   2  17
TORSDOF 4
ENDMDL
