MODEL 1
REMARK VINA RESULT:     -10.6      0.000      0.000
REMARK  9 active torsions:
REMARK  status: ('A' for Active; 'I' for Inactive)
REMARK    1  A    between atoms: C_2  and  C_3 
REMARK    2  A    between atoms: C_3  and  C_4 
REMARK    3  A    between atoms: C_4  and  O_5 
REMARK    4  A    between atoms: O_5  and  C_6 
REMARK    5  A    between atoms: C_8  and  C_9 
REMARK       I    between atoms: C_9  and  N_10 
REMARK    6  A    between atoms: N_10  and  C_11 
REMARK    7  A    between atoms: N_12  and  C_13 
REMARK    8  A    between atoms: C_15  and  C_16 
REMARK    9  A    between atoms: C_25  and  O_26 
ROOT
HETATM    1  C   UNL     1       4.556  29.456  56.068  1.00  0.00     0.179 C 
HETATM    2  N   UNL     1       4.225  28.308  55.430  1.00  0.00    -0.333 N 
HETATM    3  S   UNL     1       3.348  30.527  56.504  1.00  0.00    -0.040 SA
HETATM    4  H   UNL     1       3.263  28.020  55.569  1.00  0.00     0.168 HD
ENDROOT
BRANCH   2   5
HETATM    5  C   UNL     1       4.950  27.552  54.486  1.00  0.00     0.035 A 
HETATM    6  C   UNL     1       5.466  26.277  54.757  1.00  0.00     0.046 A 
HETATM    7  C   UNL     1       6.187  25.561  53.783  1.00  0.00     0.035 A 
HETATM    8  C   UNL     1       6.361  26.160  52.523  1.00  0.00     0.078 A 
HETATM    9  C   UNL     1       5.897  27.447  52.262  1.00  0.00     0.040 A 
HETATM   10  C   UNL     1       5.207  28.147  53.248  1.00  0.00     0.032 A 
BRANCH   7  11
HETATM   11  C   UNL     1       6.758  24.228  54.049  1.00  0.00     0.112 A 
HETATM   12  S   UNL     1       7.184  23.719  55.636  1.00  0.00    -0.067 SA
HETATM   13  C   UNL     1       7.827  22.252  55.007  1.00  0.00     0.035 A 
HETATM   14  C   UNL     1       7.653  22.240  53.623  1.00  0.00     0.075 A 
HETATM   15  C   UNL     1       8.444  21.190  55.688  1.00  0.00     0.021 A 
HETATM   16  N   UNL     1       7.068  23.376  53.089  1.00  0.00    -0.239 NA
HETATM   17  C   UNL     1       8.087  21.114  52.894  1.00  0.00     0.033 A 
HETATM   18  C   UNL     1       8.696  20.046  53.562  1.00  0.00     0.002 A 
HETATM   19  C   UNL     1       8.877  20.089  54.941  1.00  0.00     0.002 A 
ENDBRANCH   7  11
BRANCH   8  20
HETATM   20  O   UNL     1       7.004  25.531  51.487  1.00  0.00    -0.360 OA
HETATM   21  H   UNL     1       6.925  24.564  51.631  1.00  0.00     0.217 HD
ENDBRANCH   8  20
ENDBRANCH   2   5
BRANCH   1  22
HETATM   22  N   UNL     1       5.842  29.759  56.409  1.00  0.00    -0.299 N 
HETATM   23  C   UNL     1       6.758  28.980  57.112  1.00  0.00     0.257 C 
HETATM   24  O   UNL     1       6.507  27.914  57.662  1.00  0.00    -0.267 OA
HETATM   25  H   UNL     1       6.012  30.756  56.438  1.00  0.00     0.171 HD
BRANCH  23  26
HETATM   26  C   UNL     1       8.118  29.574  57.263  1.00  0.00     0.035 A 
HETATM   27  C   UNL     1       8.299  30.589  58.217  1.00  0.00     0.053 A 
HETATM   28  C   UNL     1       9.552  31.176  58.385  1.00  0.00     0.069 A 
HETATM   29  C   UNL     1      10.622  30.751  57.594  1.00  0.00     0.037 A 
HETATM   30  C   UNL     1      10.458  29.723  56.665  1.00  0.00     0.004 A 
HETATM   31  C   UNL     1       9.208  29.127  56.503  1.00  0.00     0.017 A 
BRANCH  28  32
HETATM   32  O   UNL     1       9.852  32.183  59.260  1.00  0.00    -0.351 OA
BRANCH  32  33
HETATM   33  C   UNL     1       8.924  32.410  60.323  1.00  0.00     0.175 C 
BRANCH  33  34
HETATM   34  C   UNL     1       9.469  31.704  61.563  1.00  0.00     0.026 C 
BRANCH  34  35
HETATM   35  C   UNL     1       8.367  31.368  62.562  1.00  0.00    -0.002 C 
HETATM   36  C   UNL     1       8.010  32.573  63.418  1.00  0.00     0.005 C 
ENDBRANCH  34  35
ENDBRANCH  33  34
ENDBRANCH  32  33
ENDBRANCH  28  32
ENDBRANCH  23  26
ENDBRANCH   1  22
TORSDOF 9
ENDMDL
MODEL 2
REMARK VINA RESULT:      -9.6      1.173      1.343
REMARK  9 active torsions:
REMARK  status: ('A' for Active; 'I' for Inactive)
REMARK    1  A    between atoms: C_2  and  C_3 
REMARK    2  A    between atoms: C_3  and  C_4 
REMARK    3  A    between atoms: C_4  and  O_5 
REMARK    4  A    between atoms: O_5  and  C_6 
REMARK    5  A    between atoms: C_8  and  C_9 
REMARK       I    between atoms: C_9  and  N_10 
REMARK    6  A    between atoms: N_10  and  C_11 
REMARK    7  A    between atoms: N_12  and  C_13 
REMARK    8  A    between atoms: C_15  and  C_16 
REMARK    9  A    between atoms: C_25  and  O_26 
ROOT
HETATM    1  C   UNL     1       4.250  30.518  55.000  1.00  0.00     0.179 C 
HETATM    2  N   UNL     1       3.741  29.501  54.265  1.00  0.00    -0.333 N 
HETATM    3  S   UNL     1       3.313  31.874  55.281  1.00  0.00    -0.040 SA
HETATM    4  H   UNL     1       2.728  29.482  54.231  1.00  0.00     0.168 HD
ENDROOT
BRANCH   2   5
HETATM    5  C   UNL     1       4.389  28.578  53.419  1.00  0.00     0.035 A 
HETATM    6  C   UNL     1       5.100  27.468  53.896  1.00  0.00     0.046 A 
HETATM    7  C   UNL     1       5.735  26.575  53.013  1.00  0.00     0.035 A 
HETATM    8  C   UNL     1       5.620  26.823  51.633  1.00  0.00     0.078 A 
HETATM    9  C   UNL     1       4.959  27.950  51.153  1.00  0.00     0.040 A 
HETATM   10  C   UNL     1       4.359  28.834  52.046  1.00  0.00     0.032 A 
BRANCH   7  11
HETATM   11  C   UNL     1       6.507  25.413  53.489  1.00  0.00     0.112 A 
HETATM   12  S   UNL     1       7.445  25.470  54.930  1.00  0.00    -0.067 SA
HETATM   13  C   UNL     1       8.032  23.881  54.626  1.00  0.00     0.035 A 
HETATM   14  C   UNL     1       7.453  23.403  53.451  1.00  0.00     0.075 A 
HETATM   15  C   UNL     1       8.942  23.114  55.372  1.00  0.00     0.021 A 
HETATM   16  N   UNL     1       6.609  24.289  52.802  1.00  0.00    -0.239 NA
HETATM   17  C   UNL     1       7.773  22.100  53.018  1.00  0.00     0.033 A 
HETATM   18  C   UNL     1       8.671  21.323  53.756  1.00  0.00     0.002 A 
HETATM   19  C   UNL     1       9.252  21.828  54.916  1.00  0.00     0.002 A 
ENDBRANCH   7  11
BRANCH   8  20
HETATM   20  O   UNL     1       6.156  25.991  50.684  1.00  0.00    -0.360 OA
HETATM   21  H   UNL     1       5.853  26.307  49.806  1.00  0.00     0.217 HD
ENDBRANCH   8  20
ENDBRANCH   2   5
BRANCH   1  22
HETATM   22  N   UNL     1       5.493  30.464  55.561  1.00  0.00    -0.299 N 
HETATM   23  C   UNL     1       5.941  29.647  56.596  1.00  0.00     0.257 C 
HETATM   24  O   UNL     1       5.234  28.911  57.275  1.00  0.00    -0.267 OA
HETATM   25  H   UNL     1       6.016  31.319  55.429  1.00  0.00     0.171 HD
BRANCH  23  26
HETATM   26  C   UNL     1       7.388  29.782  56.936  1.00  0.00     0.035 A 
HETATM   27  C   UNL     1       7.733  30.425  58.136  1.00  0.00     0.053 A 
HETATM   28  C   UNL     1       9.074  30.579  58.487  1.00  0.00     0.069 A 
HETATM   29  C   UNL     1      10.067  30.094  57.634  1.00  0.00     0.037 A 
HETATM   30  C   UNL     1       9.732  29.429  56.454  1.00  0.00     0.004 A 
HETATM   31  C   UNL     1       8.392  29.264  56.106  1.00  0.00     0.017 A 
BRANCH  28  32
HETATM   32  O   UNL     1       9.538  31.201  59.611  1.00  0.00    -0.351 OA
BRANCH  32  33
HETATM   33  C   UNL     1       9.110  30.668  60.866  1.00  0.00     0.175 C 
BRANCH  33  34
HETATM   34  C   UNL     1       9.123  31.814  61.877  1.00  0.00     0.026 C 
BRANCH  34  35
HETATM   35  C   UNL     1       7.803  31.927  62.632  1.00  0.00    -0.002 C 
HETATM   36  C   UNL     1       7.926  32.866  63.823  1.00  0.00     0.005 C 
ENDBRANCH  34  35
ENDBRANCH  33  34
ENDBRANCH  32  33
ENDBRANCH  28  32
ENDBRANCH  23  26
ENDBRANCH   1  22
TORSDOF 9
ENDMDL
MODEL 3
REMARK VINA RESULT:      -9.4      2.410      9.975
REMARK  9 active torsions:
REMARK  status: ('A' for Active; 'I' for Inactive)
REMARK    1  A    between atoms: C_2  and  C_3 
REMARK    2  A    between atoms: C_3  and  C_4 
REMARK    3  A    between atoms: C_4  and  O_5 
REMARK    4  A    between atoms: O_5  and  C_6 
REMARK    5  A    between atoms: C_8  and  C_9 
REMARK       I    between atoms: C_9  and  N_10 
REMARK    6  A    between atoms: N_10  and  C_11 
REMARK    7  A    between atoms: N_12  and  C_13 
REMARK    8  A    between atoms: C_15  and  C_16 
REMARK    9  A    between atoms: C_25  and  O_26 
ROOT
HETATM    1  C   UNL     1       5.169  29.703  54.857  1.00  0.00     0.179 C 
HETATM    2  N   UNL     1       5.672  30.641  55.693  1.00  0.00    -0.333 N 
HETATM    3  S   UNL     1       3.721  29.997  54.073  1.00  0.00    -0.040 SA
HETATM    4  H   UNL     1       5.324  31.578  55.521  1.00  0.00     0.168 HD
ENDROOT
BRANCH   2   5
HETATM    5  C   UNL     1       6.464  30.496  56.850  1.00  0.00     0.035 A 
HETATM    6  C   UNL     1       6.241  31.222  58.029  1.00  0.00     0.046 A 
HETATM    7  C   UNL     1       7.063  31.046  59.159  1.00  0.00     0.035 A 
HETATM    8  C   UNL     1       8.107  30.107  59.072  1.00  0.00     0.078 A 
HETATM    9  C   UNL     1       8.366  29.420  57.889  1.00  0.00     0.040 A 
HETATM   10  C   UNL     1       7.556  29.628  56.775  1.00  0.00     0.032 A 
BRANCH   7  11
HETATM   11  C   UNL     1       6.863  31.811  60.403  1.00  0.00     0.112 A 
HETATM   12  S   UNL     1       5.656  33.028  60.542  1.00  0.00    -0.067 SA
HETATM   13  C   UNL     1       6.213  33.419  62.122  1.00  0.00     0.035 A 
HETATM   14  C   UNL     1       7.275  32.576  62.448  1.00  0.00     0.075 A 
HETATM   15  C   UNL     1       5.747  34.403  63.009  1.00  0.00     0.021 A 
HETATM   16  N   UNL     1       7.650  31.684  61.457  1.00  0.00    -0.239 NA
HETATM   17  C   UNL     1       7.877  32.701  63.716  1.00  0.00     0.033 A 
HETATM   18  C   UNL     1       7.416  33.672  64.611  1.00  0.00     0.002 A 
HETATM   19  C   UNL     1       6.368  34.516  64.257  1.00  0.00     0.002 A 
ENDBRANCH   7  11
BRANCH   8  20
HETATM   20  O   UNL     1       8.934  29.820  60.127  1.00  0.00    -0.360 OA
HETATM   21  H   UNL     1       8.522  29.092  60.639  1.00  0.00     0.217 HD
ENDBRANCH   8  20
ENDBRANCH   2   5
BRANCH   1  22
HETATM   22  N   UNL     1       5.820  28.533  54.594  1.00  0.00    -0.299 N 
HETATM   23  C   UNL     1       5.626  27.284  55.178  1.00  0.00     0.257 C 
HETATM   24  O   UNL     1       4.901  27.055  56.139  1.00  0.00    -0.267 OA
HETATM   25  H   UNL     1       6.734  28.680  54.185  1.00  0.00     0.171 HD
BRANCH  23  26
HETATM   26  C   UNL     1       6.458  26.180  54.616  1.00  0.00     0.035 A 
HETATM   27  C   UNL     1       6.626  25.016  55.384  1.00  0.00     0.053 A 
HETATM   28  C   UNL     1       7.403  23.964  54.900  1.00  0.00     0.069 A 
HETATM   29  C   UNL     1       8.016  24.081  53.651  1.00  0.00     0.037 A 
HETATM   30  C   UNL     1       7.831  25.222  52.870  1.00  0.00     0.004 A 
HETATM   31  C   UNL     1       7.046  26.270  53.347  1.00  0.00     0.017 A 
BRANCH  28  32
HETATM   32  O   UNL     1       7.659  22.793  55.556  1.00  0.00    -0.351 OA
BRANCH  32  33
HETATM   33  C   UNL     1       8.978  22.257  55.427  1.00  0.00     0.175 C 
BRANCH  33  34
HETATM   34  C   UNL     1       8.845  20.739  55.323  1.00  0.00     0.026 C 
BRANCH  34  35
HETATM   35  C   UNL     1       7.883  20.322  54.215  1.00  0.00    -0.002 C 
HETATM   36  C   UNL     1       8.522  20.471  52.843  1.00  0.00     0.005 C 
ENDBRANCH  34  35
ENDBRANCH  33  34
ENDBRANCH  32  33
ENDBRANCH  28  32
ENDBRANCH  23  26
ENDBRANCH   1  22
TORSDOF 9
ENDMDL
MODEL 4
REMARK VINA RESULT:      -9.2      3.130      4.747
REMARK  9 active torsions:
REMARK  status: ('A' for Active; 'I' for Inactive)
REMARK    1  A    between atoms: C_2  and  C_3 
REMARK    2  A    between atoms: C_3  and  C_4 
REMARK    3  A    between atoms: C_4  and  O_5 
REMARK    4  A    between atoms: O_5  and  C_6 
REMARK    5  A    between atoms: C_8  and  C_9 
REMARK       I    between atoms: C_9  and  N_10 
REMARK    6  A    between atoms: N_10  and  C_11 
REMARK    7  A    between atoms: N_12  and  C_13 
REMARK    8  A    between atoms: C_15  and  C_16 
REMARK    9  A    between atoms: C_25  and  O_26 
ROOT
HETATM    1  C   UNL     1       8.662  30.469  57.973  1.00  0.00     0.179 C 
HETATM    2  N   UNL     1       8.450  29.634  56.929  1.00  0.00    -0.333 N 
HETATM    3  S   UNL     1      10.192  31.094  58.224  1.00  0.00    -0.040 SA
HETATM    4  H   UNL     1       9.134  29.720  56.185  1.00  0.00     0.168 HD
ENDROOT
BRANCH   2   5
HETATM    5  C   UNL     1       7.539  28.567  56.788  1.00  0.00     0.035 A 
HETATM    6  C   UNL     1       7.882  27.334  56.216  1.00  0.00     0.046 A 
HETATM    7  C   UNL     1       6.935  26.300  56.093  1.00  0.00     0.035 A 
HETATM    8  C   UNL     1       5.636  26.538  56.577  1.00  0.00     0.078 A 
HETATM    9  C   UNL     1       5.274  27.776  57.100  1.00  0.00     0.040 A 
HETATM   10  C   UNL     1       6.220  28.794  57.190  1.00  0.00     0.032 A 
BRANCH   7  11
HETATM   11  C   UNL     1       7.264  25.002  55.476  1.00  0.00     0.112 A 
HETATM   12  S   UNL     1       7.492  24.831  53.779  1.00  0.00    -0.067 SA
HETATM   13  C   UNL     1       7.674  23.130  53.962  1.00  0.00     0.035 A 
HETATM   14  C   UNL     1       7.569  22.807  55.315  1.00  0.00     0.075 A 
HETATM   15  C   UNL     1       7.890  22.150  52.980  1.00  0.00     0.021 A 
HETATM   16  N   UNL     1       7.313  23.874  56.161  1.00  0.00    -0.239 NA
HETATM   17  C   UNL     1       7.712  21.461  55.705  1.00  0.00     0.033 A 
HETATM   18  C   UNL     1       7.936  20.476  54.736  1.00  0.00     0.002 A 
HETATM   19  C   UNL     1       8.017  20.819  53.390  1.00  0.00     0.002 A 
ENDBRANCH   7  11
BRANCH   8  20
HETATM   20  O   UNL     1       4.651  25.583  56.554  1.00  0.00    -0.360 OA
HETATM   21  H   UNL     1       4.810  24.974  57.306  1.00  0.00     0.217 HD
ENDBRANCH   8  20
ENDBRANCH   2   5
BRANCH   1  22
HETATM   22  N   UNL     1       7.659  30.858  58.813  1.00  0.00    -0.299 N 
HETATM   23  C   UNL     1       7.603  31.984  59.631  1.00  0.00     0.257 C 
HETATM   24  O   UNL     1       8.526  32.766  59.825  1.00  0.00    -0.267 OA
HETATM   25  H   UNL     1       7.073  30.085  59.102  1.00  0.00     0.171 HD
BRANCH  23  26
HETATM   26  C   UNL     1       6.327  32.162  60.385  1.00  0.00     0.035 A 
HETATM   27  C   UNL     1       6.373  32.131  61.788  1.00  0.00     0.053 A 
HETATM   28  C   UNL     1       5.203  32.285  62.530  1.00  0.00     0.069 A 
HETATM   29  C   UNL     1       3.987  32.466  61.867  1.00  0.00     0.037 A 
HETATM   30  C   UNL     1       3.937  32.527  60.474  1.00  0.00     0.004 A 
HETATM   31  C   UNL     1       5.107  32.384  59.730  1.00  0.00     0.017 A 
BRANCH  28  32
HETATM   32  O   UNL     1       5.112  32.252  63.893  1.00  0.00    -0.351 OA
BRANCH  32  33
HETATM   33  C   UNL     1       5.700  33.344  64.605  1.00  0.00     0.175 C 
BRANCH  33  34
HETATM   34  C   UNL     1       4.686  33.805  65.650  1.00  0.00     0.026 C 
BRANCH  34  35
HETATM   35  C   UNL     1       3.475  34.480  65.015  1.00  0.00    -0.002 C 
HETATM   36  C   UNL     1       3.878  35.724  64.239  1.00  0.00     0.005 C 
ENDBRANCH  34  35
ENDBRANCH  33  34
ENDBRANCH  32  33
ENDBRANCH  28  32
ENDBRANCH  23  26
ENDBRANCH   1  22
TORSDOF 9
ENDMDL
MODEL 5
REMARK VINA RESULT:      -9.2      2.794     10.533
REMARK  9 active torsions:
REMARK  status: ('A' for Active; 'I' for Inactive)
REMARK    1  A    between atoms: C_2  and  C_3 
REMARK    2  A    between atoms: C_3  and  C_4 
REMARK    3  A    between atoms: C_4  and  O_5 
REMARK    4  A    between atoms: O_5  and  C_6 
REMARK    5  A    between atoms: C_8  and  C_9 
REMARK       I    between atoms: C_9  and  N_10 
REMARK    6  A    between atoms: N_10  and  C_11 
REMARK    7  A    between atoms: N_12  and  C_13 
REMARK    8  A    between atoms: C_15  and  C_16 
REMARK    9  A    between atoms: C_25  and  O_26 
ROOT
HETATM    1  C   UNL     1       5.645  30.039  56.609  1.00  0.00     0.179 C 
HETATM    2  N   UNL     1       6.233  31.070  57.260  1.00  0.00    -0.333 N 
HETATM    3  S   UNL     1       4.240  30.314  55.744  1.00  0.00    -0.040 SA
HETATM    4  H   UNL     1       5.983  31.984  56.900  1.00  0.00     0.168 HD
ENDROOT
BRANCH   2   5
HETATM    5  C   UNL     1       6.999  31.078  58.444  1.00  0.00     0.035 A 
HETATM    6  C   UNL     1       6.517  31.567  59.666  1.00  0.00     0.046 A 
HETATM    7  C   UNL     1       7.321  31.558  60.822  1.00  0.00     0.035 A 
HETATM    8  C   UNL     1       8.619  31.028  60.714  1.00  0.00     0.078 A 
HETATM    9  C   UNL     1       9.123  30.588  59.494  1.00  0.00     0.040 A 
HETATM   10  C   UNL     1       8.319  30.628  58.357  1.00  0.00     0.032 A 
BRANCH   7  11
HETATM   11  C   UNL     1       6.847  32.086  62.114  1.00  0.00     0.112 A 
HETATM   12  S   UNL     1       5.174  32.155  62.512  1.00  0.00    -0.067 SA
HETATM   13  C   UNL     1       5.546  32.959  63.988  1.00  0.00     0.035 A 
HETATM   14  C   UNL     1       6.929  33.102  64.088  1.00  0.00     0.075 A 
HETATM   15  C   UNL     1       4.676  33.432  64.984  1.00  0.00     0.021 A 
HETATM   16  N   UNL     1       7.655  32.625  63.009  1.00  0.00    -0.239 NA
HETATM   17  C   UNL     1       7.467  33.716  65.237  1.00  0.00     0.033 A 
HETATM   18  C   UNL     1       6.611  34.184  66.240  1.00  0.00     0.002 A 
HETATM   19  C   UNL     1       5.232  34.048  66.110  1.00  0.00     0.002 A 
ENDBRANCH   7  11
BRANCH   8  20
HETATM   20  O   UNL     1       9.468  30.925  61.787  1.00  0.00    -0.360 OA
HETATM   21  H   UNL     1       9.411  30.005  62.124  1.00  0.00     0.217 HD
ENDBRANCH   8  20
ENDBRANCH   2   5
BRANCH   1  22
HETATM   22  N   UNL     1       6.177  28.783  56.595  1.00  0.00    -0.299 N 
HETATM   23  C   UNL     1       7.143  28.262  55.738  1.00  0.00     0.257 C 
HETATM   24  O   UNL     1       7.593  28.828  54.749  1.00  0.00    -0.267 OA
HETATM   25  H   UNL     1       5.570  28.099  57.028  1.00  0.00     0.171 HD
BRANCH  23  26
HETATM   26  C   UNL     1       7.566  26.860  56.030  1.00  0.00     0.035 A 
HETATM   27  C   UNL     1       7.533  25.923  54.985  1.00  0.00     0.053 A 
HETATM   28  C   UNL     1       7.912  24.602  55.217  1.00  0.00     0.069 A 
HETATM   29  C   UNL     1       8.319  24.219  56.496  1.00  0.00     0.037 A 
HETATM   30  C   UNL     1       8.382  25.150  57.534  1.00  0.00     0.004 A 
HETATM   31  C   UNL     1       8.014  26.474  57.301  1.00  0.00     0.017 A 
BRANCH  28  32
HETATM   32  O   UNL     1       7.904  23.595  54.293  1.00  0.00    -0.351 OA
BRANCH  32  33
HETATM   33  C   UNL     1       7.541  22.294  54.761  1.00  0.00     0.175 C 
BRANCH  33  34
HETATM   34  C   UNL     1       8.214  21.275  53.844  1.00  0.00     0.026 C 
BRANCH  34  35
HETATM   35  C   UNL     1       8.743  20.070  54.616  1.00  0.00    -0.002 C 
HETATM   36  C   UNL     1       8.983  20.412  56.078  1.00  0.00     0.005 C 
ENDBRANCH  34  35
ENDBRANCH  33  34
ENDBRANCH  32  33
ENDBRANCH  28  32
ENDBRANCH  23  26
ENDBRANCH   1  22
TORSDOF 9
ENDMDL
MODEL 6
REMARK VINA RESULT:      -9.1      3.552     10.974
REMARK  9 active torsions:
REMARK  status: ('A' for Active; 'I' for Inactive)
REMARK    1  A    between atoms: C_2  and  C_3 
REMARK    2  A    between atoms: C_3  and  C_4 
REMARK    3  A    between atoms: C_4  and  O_5 
REMARK    4  A    between atoms: O_5  and  C_6 
REMARK    5  A    between atoms: C_8  and  C_9 
REMARK       I    between atoms: C_9  and  N_10 
REMARK    6  A    between atoms: N_10  and  C_11 
REMARK    7  A    between atoms: N_12  and  C_13 
REMARK    8  A    between atoms: C_15  and  C_16 
REMARK    9  A    between atoms: C_25  and  O_26 
ROOT
HETATM    1  C   UNL     1       9.518  29.771  57.899  1.00  0.00     0.179 C 
HETATM    2  N   UNL     1       9.302  30.694  58.866  1.00  0.00    -0.333 N 
HETATM    3  S   UNL     1      10.958  29.799  57.049  1.00  0.00    -0.040 SA
HETATM    4  H   UNL     1      10.148  31.109  59.239  1.00  0.00     0.168 HD
ENDROOT
BRANCH   2   5
HETATM    5  C   UNL     1       8.098  31.276  59.313  1.00  0.00     0.035 A 
HETATM    6  C   UNL     1       7.920  31.767  60.614  1.00  0.00     0.046 A 
HETATM    7  C   UNL     1       6.697  32.337  61.017  1.00  0.00     0.035 A 
HETATM    8  C   UNL     1       5.663  32.411  60.066  1.00  0.00     0.078 A 
HETATM    9  C   UNL     1       5.815  31.880  58.788  1.00  0.00     0.040 A 
HETATM   10  C   UNL     1       7.025  31.299  58.419  1.00  0.00     0.032 A 
BRANCH   7  11
HETATM   11  C   UNL     1       6.477  32.841  62.385  1.00  0.00     0.112 A 
HETATM   12  S   UNL     1       7.758  32.977  63.524  1.00  0.00    -0.067 SA
HETATM   13  C   UNL     1       6.642  33.461  64.740  1.00  0.00     0.035 A 
HETATM   14  C   UNL     1       5.363  33.508  64.187  1.00  0.00     0.075 A 
HETATM   15  C   UNL     1       6.880  33.775  66.089  1.00  0.00     0.021 A 
HETATM   16  N   UNL     1       5.278  33.131  62.857  1.00  0.00    -0.239 NA
HETATM   17  C   UNL     1       4.285  33.908  65.002  1.00  0.00     0.033 A 
HETATM   18  C   UNL     1       4.511  34.230  66.345  1.00  0.00     0.002 A 
HETATM   19  C   UNL     1       5.793  34.158  66.881  1.00  0.00     0.002 A 
ENDBRANCH   7  11
BRANCH   8  20
HETATM   20  O   UNL     1       4.450  32.991  60.336  1.00  0.00    -0.360 OA
HETATM   21  H   UNL     1       4.304  33.698  59.672  1.00  0.00     0.217 HD
ENDBRANCH   8  20
ENDBRANCH   2   5
BRANCH   1  22
HETATM   22  N   UNL     1       8.619  28.786  57.613  1.00  0.00    -0.299 N 
HETATM   23  C   UNL     1       8.041  28.470  56.387  1.00  0.00     0.257 C 
HETATM   24  O   UNL     1       8.157  29.126  55.358  1.00  0.00    -0.267 OA
HETATM   25  H   UNL     1       8.092  28.493  58.426  1.00  0.00     0.171 HD
BRANCH  23  26
HETATM   26  C   UNL     1       7.139  27.281  56.392  1.00  0.00     0.035 A 
HETATM   27  C   UNL     1       7.582  26.106  55.762  1.00  0.00     0.053 A 
HETATM   28  C   UNL     1       6.767  24.975  55.738  1.00  0.00     0.069 A 
HETATM   29  C   UNL     1       5.508  25.023  56.339  1.00  0.00     0.037 A 
HETATM   30  C   UNL     1       5.072  26.176  56.992  1.00  0.00     0.004 A 
HETATM   31  C   UNL     1       5.890  27.305  57.027  1.00  0.00     0.017 A 
BRANCH  28  32
HETATM   32  O   UNL     1       7.073  23.784  55.141  1.00  0.00    -0.351 OA
BRANCH  32  33
HETATM   33  C   UNL     1       6.850  23.693  53.732  1.00  0.00     0.175 C 
BRANCH  33  34
HETATM   34  C   UNL     1       8.131  23.149  53.102  1.00  0.00     0.026 C 
BRANCH  34  35
HETATM   35  C   UNL     1       8.579  21.844  53.751  1.00  0.00    -0.002 C 
HETATM   36  C   UNL     1       8.116  20.639  52.946  1.00  0.00     0.005 C 
ENDBRANCH  34  35
ENDBRANCH  33  34
ENDBRANCH  32  33
ENDBRANCH  28  32
ENDBRANCH  23  26
ENDBRANCH   1  22
TORSDOF 9
ENDMDL
MODEL 7
REMARK VINA RESULT:      -9.0      3.084      9.725
REMARK  9 active torsions:
REMARK  status: ('A' for Active; 'I' for Inactive)
REMARK    1  A    between atoms: C_2  and  C_3 
REMARK    2  A    between atoms: C_3  and  C_4 
REMARK    3  A    between atoms: C_4  and  O_5 
REMARK    4  A    between atoms: O_5  and  C_6 
REMARK    5  A    between atoms: C_8  and  C_9 
REMARK       I    between atoms: C_9  and  N_10 
REMARK    6  A    between atoms: N_10  and  C_11 
REMARK    7  A    between atoms: N_12  and  C_13 
REMARK    8  A    between atoms: C_15  and  C_16 
REMARK    9  A    between atoms: C_25  and  O_26 
ROOT
HETATM    1  C   UNL     1       7.463  26.664  56.012  1.00  0.00     0.179 C 
HETATM    2  N   UNL     1       8.115  27.069  57.128  1.00  0.00    -0.333 N 
HETATM    3  S   UNL     1       7.677  25.099  55.463  1.00  0.00    -0.040 SA
HETATM    4  H   UNL     1       8.405  26.311  57.736  1.00  0.00     0.168 HD
ENDROOT
BRANCH   2   5
HETATM    5  C   UNL     1       8.588  28.347  57.490  1.00  0.00     0.035 A 
HETATM    6  C   UNL     1       8.049  29.094  58.547  1.00  0.00     0.046 A 
HETATM    7  C   UNL     1       8.553  30.368  58.869  1.00  0.00     0.035 A 
HETATM    8  C   UNL     1       9.626  30.862  58.106  1.00  0.00     0.078 A 
HETATM    9  C   UNL     1      10.134  30.149  57.024  1.00  0.00     0.040 A 
HETATM   10  C   UNL     1       9.604  28.900  56.707  1.00  0.00     0.032 A 
BRANCH   7  11
HETATM   11  C   UNL     1       7.990  31.184  59.961  1.00  0.00     0.112 A 
HETATM   12  S   UNL     1       6.644  32.227  59.719  1.00  0.00    -0.067 SA
HETATM   13  C   UNL     1       6.783  32.802  61.335  1.00  0.00     0.035 A 
HETATM   14  C   UNL     1       7.839  32.140  61.960  1.00  0.00     0.075 A 
HETATM   15  C   UNL     1       6.015  33.772  62.001  1.00  0.00     0.021 A 
HETATM   16  N   UNL     1       8.531  31.242  61.165  1.00  0.00    -0.239 NA
HETATM   17  C   UNL     1       8.122  32.437  63.309  1.00  0.00     0.033 A 
HETATM   18  C   UNL     1       7.360  33.395  63.985  1.00  0.00     0.002 A 
HETATM   19  C   UNL     1       6.323  34.057  63.335  1.00  0.00     0.002 A 
ENDBRANCH   7  11
BRANCH   8  20
HETATM   20  O   UNL     1      10.226  32.068  58.366  1.00  0.00    -0.360 OA
HETATM   21  H   UNL     1      11.052  32.109  57.838  1.00  0.00     0.217 HD
ENDBRANCH   8  20
ENDBRANCH   2   5
BRANCH   1  22
HETATM   22  N   UNL     1       6.600  27.475  55.334  1.00  0.00    -0.299 N 
HETATM   23  C   UNL     1       5.505  28.179  55.828  1.00  0.00     0.257 C 
HETATM   24  O   UNL     1       5.053  28.082  56.963  1.00  0.00    -0.267 OA
HETATM   25  H   UNL     1       6.569  27.268  54.344  1.00  0.00     0.171 HD
BRANCH  23  26
HETATM   26  C   UNL     1       4.797  29.039  54.835  1.00  0.00     0.035 A 
HETATM   27  C   UNL     1       4.686  28.575  53.514  1.00  0.00     0.053 A 
HETATM   28  C   UNL     1       4.039  29.351  52.552  1.00  0.00     0.069 A 
HETATM   29  C   UNL     1       3.510  30.592  52.913  1.00  0.00     0.037 A 
HETATM   30  C   UNL     1       3.592  31.047  54.229  1.00  0.00     0.004 A 
HETATM   31  C   UNL     1       4.228  30.268  55.195  1.00  0.00     0.017 A 
BRANCH  28  32
HETATM   32  O   UNL     1       3.884  29.024  51.234  1.00  0.00    -0.351 OA
BRANCH  32  33
HETATM   33  C   UNL     1       5.011  28.438  50.579  1.00  0.00     0.175 C 
BRANCH  33  34
HETATM   34  C   UNL     1       4.689  26.963  50.349  1.00  0.00     0.026 C 
BRANCH  34  35
HETATM   35  C   UNL     1       5.684  26.043  51.050  1.00  0.00    -0.002 C 
HETATM   36  C   UNL     1       4.993  25.162  52.080  1.00  0.00     0.005 C 
ENDBRANCH  34  35
ENDBRANCH  33  34
ENDBRANCH  32  33
ENDBRANCH  28  32
ENDBRANCH  23  26
ENDBRANCH   1  22
TORSDOF 9
ENDMDL
MODEL 8
REMARK VINA RESULT:      -8.9      3.636      8.834
REMARK  9 active torsions:
REMARK  status: ('A' for Active; 'I' for Inactive)
REMARK    1  A    between atoms: C_2  and  C_3 
REMARK    2  A    between atoms: C_3  and  C_4 
REMARK    3  A    between atoms: C_4  and  O_5 
REMARK    4  A    between atoms: O_5  and  C_6 
REMARK    5  A    between atoms: C_8  and  C_9 
REMARK       I    between atoms: C_9  and  N_10 
REMARK    6  A    between atoms: N_10  and  C_11 
REMARK    7  A    between atoms: N_12  and  C_13 
REMARK    8  A    between atoms: C_15  and  C_16 
REMARK    9  A    between atoms: C_25  and  O_26 
ROOT
HETATM    1  C   UNL     1       7.314  27.257  55.671  1.00  0.00     0.179 C 
HETATM    2  N   UNL     1       8.159  27.428  56.715  1.00  0.00    -0.333 N 
HETATM    3  S   UNL     1       7.410  25.857  54.762  1.00  0.00    -0.040 SA
HETATM    4  H   UNL     1       8.546  26.565  57.080  1.00  0.00     0.168 HD
ENDROOT
BRANCH   2   5
HETATM    5  C   UNL     1       8.702  28.610  57.260  1.00  0.00     0.035 A 
HETATM    6  C   UNL     1       8.122  29.297  58.336  1.00  0.00     0.046 A 
HETATM    7  C   UNL     1       8.700  30.476  58.844  1.00  0.00     0.035 A 
HETATM    8  C   UNL     1       9.887  30.935  58.246  1.00  0.00     0.078 A 
HETATM    9  C   UNL     1      10.442  30.287  57.146  1.00  0.00     0.040 A 
HETATM   10  C   UNL     1       9.840  29.136  56.644  1.00  0.00     0.032 A 
BRANCH   7  11
HETATM   11  C   UNL     1       8.099  31.229  59.959  1.00  0.00     0.112 A 
HETATM   12  S   UNL     1       6.700  32.208  59.749  1.00  0.00    -0.067 SA
HETATM   13  C   UNL     1       6.813  32.742  61.381  1.00  0.00     0.035 A 
HETATM   14  C   UNL     1       7.904  32.118  61.986  1.00  0.00     0.075 A 
HETATM   15  C   UNL     1       5.998  33.651  62.075  1.00  0.00     0.021 A 
HETATM   16  N   UNL     1       8.640  31.281  61.163  1.00  0.00    -0.239 NA
HETATM   17  C   UNL     1       8.176  32.390  63.342  1.00  0.00     0.033 A 
HETATM   18  C   UNL     1       7.366  33.288  64.046  1.00  0.00     0.002 A 
HETATM   19  C   UNL     1       6.295  33.914  63.417  1.00  0.00     0.002 A 
ENDBRANCH   7  11
BRANCH   8  20
HETATM   20  O   UNL     1      10.561  32.043  58.694  1.00  0.00    -0.360 OA
HETATM   21  H   UNL     1      10.027  32.831  58.456  1.00  0.00     0.217 HD
ENDBRANCH   8  20
ENDBRANCH   2   5
BRANCH   1  22
HETATM   22  N   UNL     1       6.352  28.170  55.352  1.00  0.00    -0.299 N 
HETATM   23  C   UNL     1       5.273  28.597  56.123  1.00  0.00     0.257 C 
HETATM   24  O   UNL     1       4.934  28.114  57.197  1.00  0.00    -0.267 OA
HETATM   25  H   UNL     1       6.238  28.282  54.353  1.00  0.00     0.171 HD
BRANCH  23  26
HETATM   26  C   UNL     1       4.433  29.668  55.509  1.00  0.00     0.035 A 
HETATM   27  C   UNL     1       3.863  30.633  56.355  1.00  0.00     0.053 A 
HETATM   28  C   UNL     1       3.066  31.645  55.824  1.00  0.00     0.069 A 
HETATM   29  C   UNL     1       2.835  31.687  54.447  1.00  0.00     0.037 A 
HETATM   30  C   UNL     1       3.421  30.749  53.597  1.00  0.00     0.004 A 
HETATM   31  C   UNL     1       4.228  29.742  54.125  1.00  0.00     0.017 A 
BRANCH  28  32
HETATM   32  O   UNL     1       2.439  32.627  56.539  1.00  0.00    -0.351 OA
BRANCH  32  33
HETATM   33  C   UNL     1       2.981  33.946  56.434  1.00  0.00     0.175 C 
BRANCH  33  34
HETATM   34  C   UNL     1       4.079  34.073  57.489  1.00  0.00     0.026 C 
BRANCH  34  35
HETATM   35  C   UNL     1       3.579  34.761  58.755  1.00  0.00    -0.002 C 
HETATM   36  C   UNL     1       3.123  33.747  59.793  1.00  0.00     0.005 C 
ENDBRANCH  34  35
ENDBRANCH  33  34
ENDBRANCH  32  33
ENDBRANCH  28  32
ENDBRANCH  23  26
ENDBRANCH   1  22
TORSDOF 9
ENDMDL
MODEL 9
REMARK VINA RESULT:      -8.7      3.543      4.975
REMARK  9 active torsions:
REMARK  status: ('A' for Active; 'I' for Inactive)
REMARK    1  A    between atoms: C_2  and  C_3 
REMARK    2  A    between atoms: C_3  and  C_4 
REMARK    3  A    between atoms: C_4  and  O_5 
REMARK    4  A    between atoms: O_5  and  C_6 
REMARK    5  A    between atoms: C_8  and  C_9 
REMARK       I    between atoms: C_9  and  N_10 
REMARK    6  A    between atoms: N_10  and  C_11 
REMARK    7  A    between atoms: N_12  and  C_13 
REMARK    8  A    between atoms: C_15  and  C_16 
REMARK    9  A    between atoms: C_25  and  O_26 
ROOT
HETATM    1  C   UNL     1       9.012  30.369  57.801  1.00  0.00     0.179 C 
HETATM    2  N   UNL     1       8.635  29.613  56.743  1.00  0.00    -0.333 N 
HETATM    3  S   UNL     1      10.571  30.972  57.861  1.00  0.00    -0.040 SA
HETATM    4  H   UNL     1       9.199  29.752  55.913  1.00  0.00     0.168 HD
ENDROOT
BRANCH   2   5
HETATM    5  C   UNL     1       7.699  28.561  56.667  1.00  0.00     0.035 A 
HETATM    6  C   UNL     1       7.997  27.307  56.113  1.00  0.00     0.046 A 
HETATM    7  C   UNL     1       7.028  26.288  56.055  1.00  0.00     0.035 A 
HETATM    8  C   UNL     1       5.754  26.563  56.584  1.00  0.00     0.078 A 
HETATM    9  C   UNL     1       5.434  27.820  57.089  1.00  0.00     0.040 A 
HETATM   10  C   UNL     1       6.402  28.822  57.115  1.00  0.00     0.032 A 
BRANCH   7  11
HETATM   11  C   UNL     1       7.308  24.969  55.458  1.00  0.00     0.112 A 
HETATM   12  S   UNL     1       7.469  24.752  53.760  1.00  0.00    -0.067 SA
HETATM   13  C   UNL     1       7.624  23.053  53.979  1.00  0.00     0.035 A 
HETATM   14  C   UNL     1       7.564  22.766  55.342  1.00  0.00     0.075 A 
HETATM   15  C   UNL     1       7.785  22.045  53.014  1.00  0.00     0.021 A 
HETATM   16  N   UNL     1       7.361  23.857  56.170  1.00  0.00    -0.239 NA
HETATM   17  C   UNL     1       7.696  21.426  55.760  1.00  0.00     0.033 A 
HETATM   18  C   UNL     1       7.864  20.414  54.809  1.00  0.00     0.002 A 
HETATM   19  C   UNL     1       7.901  20.722  53.452  1.00  0.00     0.002 A 
ENDBRANCH   7  11
BRANCH   8  20
HETATM   20  O   UNL     1       4.752  25.627  56.624  1.00  0.00    -0.360 OA
HETATM   21  H   UNL     1       4.318  25.693  57.502  1.00  0.00     0.217 HD
ENDBRANCH   8  20
ENDBRANCH   2   5
BRANCH   1  22
HETATM   22  N   UNL     1       8.154  30.696  58.810  1.00  0.00    -0.299 N 
HETATM   23  C   UNL     1       8.129  31.853  59.584  1.00  0.00     0.257 C 
HETATM   24  O   UNL     1       8.978  32.737  59.566  1.00  0.00    -0.267 OA
HETATM   25  H   UNL     1       7.725  29.884  59.234  1.00  0.00     0.171 HD
BRANCH  23  26
HETATM   26  C   UNL     1       7.011  31.939  60.569  1.00  0.00     0.035 A 
HETATM   27  C   UNL     1       5.742  32.322  60.105  1.00  0.00     0.053 A 
HETATM   28  C   UNL     1       4.673  32.422  60.993  1.00  0.00     0.069 A 
HETATM   29  C   UNL     1       4.876  32.144  62.347  1.00  0.00     0.037 A 
HETATM   30  C   UNL     1       6.126  31.736  62.812  1.00  0.00     0.004 A 
HETATM   31  C   UNL     1       7.195  31.625  61.923  1.00  0.00     0.017 A 
BRANCH  28  32
HETATM   32  O   UNL     1       3.400  32.803  60.672  1.00  0.00    -0.351 OA
BRANCH  32  33
HETATM   33  C   UNL     1       3.257  33.714  59.580  1.00  0.00     0.175 C 
BRANCH  33  34
HETATM   34  C   UNL     1       2.545  34.956  60.113  1.00  0.00     0.026 C 
BRANCH  34  35
HETATM   35  C   UNL     1       1.577  34.621  61.243  1.00  0.00    -0.002 C 
HETATM   36  C   UNL     1       0.133  34.664  60.767  1.00  0.00     0.005 C 
ENDBRANCH  34  35
ENDBRANCH  33  34
ENDBRANCH  32  33
ENDBRANCH  28  32
ENDBRANCH  23  26
ENDBRANCH   1  22
TORSDOF 9
ENDMDL
MODEL 10
REMARK VINA RESULT:      -8.7      2.472      3.679
REMARK  9 active torsions:
REMARK  status: ('A' for Active; 'I' for Inactive)
REMARK    1  A    between atoms: C_2  and  C_3 
REMARK    2  A    between atoms: C_3  and  C_4 
REMARK    3  A    between atoms: C_4  and  O_5 
REMARK    4  A    between atoms: O_5  and  C_6 
REMARK    5  A    between atoms: C_8  and  C_9 
REMARK       I    between atoms: C_9  and  N_10 
REMARK    6  A    between atoms: N_10  and  C_11 
REMARK    7  A    between atoms: N_12  and  C_13 
REMARK    8  A    between atoms: C_15  and  C_16 
REMARK    9  A    between atoms: C_25  and  O_26 
ROOT
HETATM    1  C   UNL     1       4.555  30.579  55.006  1.00  0.00     0.179 C 
HETATM    2  N   UNL     1       4.735  29.242  54.887  1.00  0.00    -0.333 N 
HETATM    3  S   UNL     1       4.025  31.453  53.682  1.00  0.00    -0.040 SA
HETATM    4  H   UNL     1       4.214  28.820  54.126  1.00  0.00     0.168 HD
ENDROOT
BRANCH   2   5
HETATM    5  C   UNL     1       5.644  28.386  55.543  1.00  0.00     0.035 A 
HETATM    6  C   UNL     1       5.992  27.118  55.055  1.00  0.00     0.046 A 
HETATM    7  C   UNL     1       6.902  26.297  55.747  1.00  0.00     0.035 A 
HETATM    8  C   UNL     1       7.463  26.795  56.937  1.00  0.00     0.078 A 
HETATM    9  C   UNL     1       7.084  28.031  57.454  1.00  0.00     0.040 A 
HETATM   10  C   UNL     1       6.164  28.817  56.765  1.00  0.00     0.032 A 
BRANCH   7  11
HETATM   11  C   UNL     1       7.269  24.952  55.268  1.00  0.00     0.112 A 
HETATM   12  S   UNL     1       7.570  24.627  53.606  1.00  0.00    -0.067 SA
HETATM   13  C   UNL     1       7.759  22.953  53.955  1.00  0.00     0.035 A 
HETATM   14  C   UNL     1       7.600  22.756  55.326  1.00  0.00     0.075 A 
HETATM   15  C   UNL     1       8.026  21.888  53.078  1.00  0.00     0.021 A 
HETATM   16  N   UNL     1       7.299  23.893  56.058  1.00  0.00    -0.239 NA
HETATM   17  C   UNL     1       7.739  21.453  55.846  1.00  0.00     0.033 A 
HETATM   18  C   UNL     1       8.012  20.386  54.984  1.00  0.00     0.002 A 
HETATM   19  C   UNL     1       8.148  20.602  53.616  1.00  0.00     0.002 A 
ENDBRANCH   7  11
BRANCH   8  20
HETATM   20  O   UNL     1       8.396  26.101  57.663  1.00  0.00    -0.360 OA
HETATM   21  H   UNL     1       8.393  26.462  58.575  1.00  0.00     0.217 HD
ENDBRANCH   8  20
ENDBRANCH   2   5
BRANCH   1  22
HETATM   22  N   UNL     1       4.752  31.242  56.182  1.00  0.00    -0.299 N 
HETATM   23  C   UNL     1       3.884  31.360  57.264  1.00  0.00     0.257 C 
HETATM   24  O   UNL     1       2.720  30.978  57.285  1.00  0.00    -0.267 OA
HETATM   25  H   UNL     1       5.446  31.974  56.104  1.00  0.00     0.171 HD
BRANCH  23  26
HETATM   26  C   UNL     1       4.427  32.101  58.441  1.00  0.00     0.035 A 
HETATM   27  C   UNL     1       5.622  31.644  59.022  1.00  0.00     0.053 A 
HETATM   28  C   UNL     1       6.159  32.302  60.127  1.00  0.00     0.069 A 
HETATM   29  C   UNL     1       5.497  33.414  60.653  1.00  0.00     0.037 A 
HETATM   30  C   UNL     1       4.326  33.891  60.064  1.00  0.00     0.004 A 
HETATM   31  C   UNL     1       3.793  33.241  58.952  1.00  0.00     0.017 A 
BRANCH  28  32
HETATM   32  O   UNL     1       7.298  31.946  60.793  1.00  0.00    -0.351 OA
BRANCH  32  33
HETATM   33  C   UNL     1       7.154  31.589  62.170  1.00  0.00     0.175 C 
BRANCH  33  34
HETATM   34  C   UNL     1       8.269  32.292  62.942  1.00  0.00     0.026 C 
BRANCH  34  35
HETATM   35  C   UNL     1       7.734  33.074  64.137  1.00  0.00    -0.002 C 
HETATM   36  C   UNL     1       6.214  33.085  64.155  1.00  0.00     0.005 C 
ENDBRANCH  34  35
ENDBRANCH  33  34
ENDBRANCH  32  33
ENDBRANCH  28  32
ENDBRANCH  23  26
ENDBRANCH   1  22
TORSDOF 9
ENDMDL
