MODEL 1
REMARK VINA RESULT:      -7.1      0.000      0.000
REMARK  9 active torsions:
REMARK  status: ('A' for Active; 'I' for Inactive)
REMARK    1  A    between atoms: C_2  and  O_3 
REMARK    2  A    between atoms: O_3  and  C_4 
REMARK    3  A    between atoms: C_4  and  C_5 
REMARK    4  A    between atoms: C_11  and  O_12 
REMARK    5  A    between atoms: C_13  and  C_14 
REMARK    6  A    between atoms: C_14  and  N_15 
REMARK    7  A    between atoms: N_19  and  C_20 
REMARK    8  A    between atoms: C_26  and  C_27 
REMARK    9  A    between atoms: C_27  and  N_28 
ROOT
HETATM    1  C   UNL     1       4.910  27.218  52.823  1.00  0.00     0.077 A 
HETATM    2  C   UNL     1       4.687  27.980  54.055  1.00  0.00     0.020 A 
HETATM    3  C   UNL     1       4.285  29.260  53.648  1.00  0.00     0.053 A 
HETATM    4  C   UNL     1       4.052  30.310  54.557  1.00  0.00     0.053 A 
HETATM    5  C   UNL     1       4.310  30.097  55.901  1.00  0.00     0.047 A 
HETATM    6 BR   UNL     1       4.095  31.539  57.110  1.00  0.00    -0.048 Br
HETATM    7  C   UNL     1       4.711  28.843  56.345  1.00  0.00     0.092 A 
HETATM    8  C   UNL     1       4.839  27.728  55.475  1.00  0.00     0.016 A 
HETATM    9  N   UNL     1       4.141  29.263  52.267  1.00  0.00    -0.312 N 
HETATM   10  C   UNL     1       4.554  28.045  51.742  1.00  0.00     0.060 A 
ENDROOT
BRANCH  10  11
HETATM   11  C   UNL     1       4.751  27.879  50.257  1.00  0.00     0.293 C 
BRANCH  11  12
HETATM   12  N   UNL     1       3.641  27.158  49.545  1.00  0.00    -0.062 N 
HETATM   13  H   UNL     1       3.082  26.706  50.280  1.00  0.00     0.280 HD
HETATM   14  C   UNL     1       2.726  28.048  48.723  1.00  0.00     0.261 C 
HETATM   15  C   UNL     1       1.625  27.195  48.083  1.00  0.00     0.195 C 
HETATM   16  O   UNL     1       2.189  26.164  47.268  1.00  0.00    -0.388 OA
HETATM   17  C   UNL     1       3.020  25.275  48.020  1.00  0.00     0.195 C 
HETATM   18  C   UNL     1       4.188  26.032  48.662  1.00  0.00     0.261 C 
ENDBRANCH  11  12
ENDBRANCH  10  11
BRANCH   1  19
HETATM   19  C   UNL     1       5.505  25.874  52.721  1.00  0.00     0.296 C 
HETATM   20  O   UNL     1       4.848  24.869  52.498  1.00  0.00    -0.259 OA
BRANCH  19  21
HETATM   21  O   UNL     1       6.863  25.855  52.900  1.00  0.00    -0.318 OA
BRANCH  21  22
HETATM   22  C   UNL     1       7.586  24.953  52.033  1.00  0.00     0.174 C 
HETATM   23  C   UNL     1       8.004  23.697  52.777  1.00  0.00     0.034 C 
ENDBRANCH  21  22
ENDBRANCH  19  21
ENDBRANCH   1  19
BRANCH   9  24
HETATM   24  C   UNL     1       3.722  30.389  51.514  1.00  0.00     0.040 A 
HETATM   25  C   UNL     1       4.671  31.325  51.088  1.00  0.00     0.030 A 
HETATM   26  C   UNL     1       4.255  32.427  50.341  1.00  0.00     0.002 A 
HETATM   27  C   UNL     1       2.905  32.593  50.030  1.00  0.00     0.000 A 
HETATM   28  C   UNL     1       1.962  31.664  50.471  1.00  0.00     0.002 A 
HETATM   29  C   UNL     1       2.366  30.556  51.217  1.00  0.00     0.030 A 
ENDBRANCH   9  24
BRANCH   8  30
HETATM   30  C   UNL     1       5.203  26.363  56.048  1.00  0.00     0.276 C 
BRANCH  30  31
HETATM   31  N   UNL     1       6.620  25.866  55.846  1.00  0.00    -0.075 N 
HETATM   32  H   UNL     1       6.759  25.900  54.821  1.00  0.00     0.279 HD
HETATM   33  C   UNL     1       7.662  26.761  56.442  1.00  0.00     0.269 C 
HETATM   34  C   UNL     1       6.791  24.441  56.270  1.00  0.00     0.269 C 
ENDBRANCH  30  31
ENDBRANCH   8  30
BRANCH   7  35
HETATM   35  O   UNL     1       5.003  28.670  57.683  1.00  0.00    -0.359 OA
HETATM   36  H   UNL     1       5.286  29.547  58.030  1.00  0.00     0.218 HD
ENDBRANCH   7  35
TORSDOF 9
ENDMDL
MODEL 2
REMARK VINA RESULT:      -7.1      9.167     13.464
REMARK  9 active torsions:
REMARK  status: ('A' for Active; 'I' for Inactive)
REMARK    1  A    between atoms: C_2  and  O_3 
REMARK    2  A    between atoms: O_3  and  C_4 
REMARK    3  A    between atoms: C_4  and  C_5 
REMARK    4  A    between atoms: C_11  and  O_12 
REMARK    5  A    between atoms: C_13  and  C_14 
REMARK    6  A    between atoms: C_14  and  N_15 
REMARK    7  A    between atoms: N_19  and  C_20 
REMARK    8  A    between atoms: C_26  and  C_27 
REMARK    9  A    between atoms: C_27  and  N_28 
ROOT
HETATM    1  C   UNL     1       5.474  33.544  62.447  1.00  0.00     0.077 A 
HETATM    2  C   UNL     1       4.642  34.159  61.410  1.00  0.00     0.020 A 
HETATM    3  C   UNL     1       4.641  35.534  61.684  1.00  0.00     0.053 A 
HETATM    4  C   UNL     1       3.878  36.457  60.942  1.00  0.00     0.053 A 
HETATM    5  C   UNL     1       3.030  35.982  59.957  1.00  0.00     0.047 A 
HETATM    6 BR   UNL     1       1.928  37.213  59.030  1.00  0.00    -0.048 Br
HETATM    7  C   UNL     1       3.001  34.625  59.655  1.00  0.00     0.092 A 
HETATM    8  C   UNL     1       3.844  33.680  60.297  1.00  0.00     0.016 A 
HETATM    9  N   UNL     1       5.512  35.779  62.736  1.00  0.00    -0.312 N 
HETATM   10  C   UNL     1       5.999  34.580  63.241  1.00  0.00     0.060 A 
ENDROOT
BRANCH  10  11
HETATM   11  C   UNL     1       6.749  34.547  64.548  1.00  0.00     0.293 C 
BRANCH  11  12
HETATM   12  N   UNL     1       5.896  34.712  65.774  1.00  0.00    -0.062 N 
HETATM   13  H   UNL     1       5.760  35.725  65.890  1.00  0.00     0.280 HD
HETATM   14  C   UNL     1       4.532  34.050  65.697  1.00  0.00     0.261 C 
HETATM   15  C   UNL     1       3.758  34.325  66.991  1.00  0.00     0.195 C 
HETATM   16  O   UNL     1       4.483  33.850  68.129  1.00  0.00    -0.388 OA
HETATM   17  C   UNL     1       5.756  34.489  68.262  1.00  0.00     0.195 C 
HETATM   18  C   UNL     1       6.629  34.228  67.029  1.00  0.00     0.261 C 
ENDBRANCH  11  12
ENDBRANCH  10  11
BRANCH   1  19
HETATM   19  C   UNL     1       5.645  32.100  62.690  1.00  0.00     0.296 C 
HETATM   20  O   UNL     1       4.912  31.456  63.423  1.00  0.00    -0.259 OA
BRANCH  19  21
HETATM   21  O   UNL     1       6.703  31.548  62.018  1.00  0.00    -0.318 OA
BRANCH  21  22
HETATM   22  C   UNL     1       7.952  31.530  62.743  1.00  0.00     0.174 C 
HETATM   23  C   UNL     1       9.125  31.818  61.822  1.00  0.00     0.034 C 
ENDBRANCH  21  22
ENDBRANCH  19  21
ENDBRANCH   1  19
BRANCH   9  24
HETATM   24  C   UNL     1       5.777  37.067  63.266  1.00  0.00     0.040 A 
HETATM   25  C   UNL     1       5.222  37.436  64.496  1.00  0.00     0.030 A 
HETATM   26  C   UNL     1       5.492  38.702  65.015  1.00  0.00     0.002 A 
HETATM   27  C   UNL     1       6.303  39.590  64.309  1.00  0.00     0.000 A 
HETATM   28  C   UNL     1       6.843  39.222  63.075  1.00  0.00     0.002 A 
HETATM   29  C   UNL     1       6.581  37.958  62.546  1.00  0.00     0.030 A 
ENDBRANCH   9  24
BRANCH   8  30
HETATM   30  C   UNL     1       3.816  32.222  59.855  1.00  0.00     0.276 C 
BRANCH  30  31
HETATM   31  N   UNL     1       4.307  31.899  58.458  1.00  0.00    -0.075 N 
HETATM   32  H   UNL     1       4.098  32.751  57.910  1.00  0.00     0.279 HD
HETATM   33  C   UNL     1       5.788  31.694  58.372  1.00  0.00     0.269 C 
HETATM   34  C   UNL     1       3.545  30.772  57.832  1.00  0.00     0.269 C 
ENDBRANCH  30  31
ENDBRANCH   8  30
BRANCH   7  35
HETATM   35  O   UNL     1       2.115  34.173  58.698  1.00  0.00    -0.359 OA
HETATM   36  H   UNL     1       2.028  34.889  58.028  1.00  0.00     0.218 HD
ENDBRANCH   7  35
TORSDOF 9
ENDMDL
MODEL 3
REMARK VINA RESULT:      -7.0      2.905      5.342
REMARK  9 active torsions:
REMARK  status: ('A' for Active; 'I' for Inactive)
REMARK    1  A    between atoms: C_2  and  O_3 
REMARK    2  A    between atoms: O_3  and  C_4 
REMARK    3  A    between atoms: C_4  and  C_5 
REMARK    4  A    between atoms: C_11  and  O_12 
REMARK    5  A    between atoms: C_13  and  C_14 
REMARK    6  A    between atoms: C_14  and  N_15 
REMARK    7  A    between atoms: N_19  and  C_20 
REMARK    8  A    between atoms: C_26  and  C_27 
REMARK    9  A    between atoms: C_27  and  N_28 
ROOT
HETATM    1  C   UNL     1       6.038  28.805  55.500  1.00  0.00     0.077 A 
HETATM    2  C   UNL     1       4.903  29.725  55.391  1.00  0.00     0.020 A 
HETATM    3  C   UNL     1       4.577  29.776  54.029  1.00  0.00     0.053 A 
HETATM    4  C   UNL     1       3.576  30.623  53.516  1.00  0.00     0.053 A 
HETATM    5  C   UNL     1       2.945  31.505  54.376  1.00  0.00     0.047 A 
HETATM    6 BR   UNL     1       1.673  32.717  53.668  1.00  0.00    -0.048 Br
HETATM    7  C   UNL     1       3.240  31.489  55.734  1.00  0.00     0.092 A 
HETATM    8  C   UNL     1       4.154  30.565  56.307  1.00  0.00     0.016 A 
HETATM    9  N   UNL     1       5.364  28.856  53.349  1.00  0.00    -0.312 N 
HETATM   10  C   UNL     1       6.285  28.284  54.217  1.00  0.00     0.060 A 
ENDROOT
BRANCH  10  11
HETATM   11  C   UNL     1       7.428  27.457  53.684  1.00  0.00     0.293 C 
BRANCH  11  12
HETATM   12  N   UNL     1       7.181  25.974  53.659  1.00  0.00    -0.062 N 
HETATM   13  H   UNL     1       6.174  25.859  53.490  1.00  0.00     0.280 HD
HETATM   14  C   UNL     1       7.940  25.219  52.582  1.00  0.00     0.261 C 
HETATM   15  C   UNL     1       7.572  23.732  52.647  1.00  0.00     0.195 C 
HETATM   16  O   UNL     1       7.862  23.192  53.939  1.00  0.00    -0.388 OA
HETATM   17  C   UNL     1       7.126  23.848  54.976  1.00  0.00     0.195 C 
HETATM   18  C   UNL     1       7.466  25.342  55.025  1.00  0.00     0.261 C 
ENDBRANCH  11  12
ENDBRANCH  10  11
BRANCH   1  19
HETATM   19  C   UNL     1       6.848  28.552  56.705  1.00  0.00     0.296 C 
HETATM   20  O   UNL     1       6.603  27.656  57.496  1.00  0.00    -0.259 OA
BRANCH  19  21
HETATM   21  O   UNL     1       7.900  29.415  56.854  1.00  0.00    -0.318 OA
BRANCH  21  22
HETATM   22  C   UNL     1       9.195  28.791  56.991  1.00  0.00     0.174 C 
HETATM   23  C   UNL     1      10.277  29.622  56.323  1.00  0.00     0.034 C 
ENDBRANCH  21  22
ENDBRANCH  19  21
ENDBRANCH   1  19
BRANCH   9  24
HETATM   24  C   UNL     1       5.286  28.620  51.953  1.00  0.00     0.040 A 
HETATM   25  C   UNL     1       4.798  27.395  51.486  1.00  0.00     0.030 A 
HETATM   26  C   UNL     1       4.716  27.171  50.112  1.00  0.00     0.002 A 
HETATM   27  C   UNL     1       5.125  28.159  49.216  1.00  0.00     0.000 A 
HETATM   28  C   UNL     1       5.624  29.375  49.688  1.00  0.00     0.002 A 
HETATM   29  C   UNL     1       5.708  29.611  51.060  1.00  0.00     0.030 A 
ENDBRANCH   9  24
BRANCH   8  30
HETATM   30  C   UNL     1       4.364  30.550  57.816  1.00  0.00     0.276 C 
BRANCH  30  31
HETATM   31  N   UNL     1       4.757  31.851  58.487  1.00  0.00    -0.075 N 
HETATM   32  H   UNL     1       4.492  32.581  57.804  1.00  0.00     0.279 HD
HETATM   33  C   UNL     1       3.985  32.142  59.737  1.00  0.00     0.269 C 
HETATM   34  C   UNL     1       6.235  31.960  58.700  1.00  0.00     0.269 C 
ENDBRANCH  30  31
ENDBRANCH   8  30
BRANCH   7  35
HETATM   35  O   UNL     1       2.628  32.407  56.562  1.00  0.00    -0.359 OA
HETATM   36  H   UNL     1       1.773  32.010  56.847  1.00  0.00     0.218 HD
ENDBRANCH   7  35
TORSDOF 9
ENDMDL
MODEL 4
REMARK VINA RESULT:      -7.0      3.018      7.902
REMARK  9 active torsions:
REMARK  status: ('A' for Active; 'I' for Inactive)
REMARK    1  A    between atoms: C_2  and  O_3 
REMARK    2  A    between atoms: O_3  and  C_4 
REMARK    3  A    between atoms: C_4  and  C_5 
REMARK    4  A    between atoms: C_11  and  O_12 
REMARK    5  A    between atoms: C_13  and  C_14 
REMARK    6  A    between atoms: C_14  and  N_15 
REMARK    7  A    between atoms: N_19  and  C_20 
REMARK    8  A    between atoms: C_26  and  C_27 
REMARK    9  A    between atoms: C_27  and  N_28 
ROOT
HETATM    1  C   UNL     1       5.026  29.174  51.373  1.00  0.00     0.077 A 
HETATM    2  C   UNL     1       4.343  28.343  50.378  1.00  0.00     0.020 A 
HETATM    3  C   UNL     1       4.746  27.026  50.637  1.00  0.00     0.053 A 
HETATM    4  C   UNL     1       4.355  25.938  49.831  1.00  0.00     0.053 A 
HETATM    5  C   UNL     1       3.612  26.188  48.690  1.00  0.00     0.047 A 
HETATM    6 BR   UNL     1       3.174  24.738  47.551  1.00  0.00    -0.048 Br
HETATM    7  C   UNL     1       3.194  27.480  48.397  1.00  0.00     0.092 A 
HETATM    8  C   UNL     1       3.465  28.584  49.249  1.00  0.00     0.016 A 
HETATM    9  N   UNL     1       5.521  27.014  51.788  1.00  0.00    -0.312 N 
HETATM   10  C   UNL     1       5.737  28.314  52.229  1.00  0.00     0.060 A 
ENDROOT
BRANCH  10  11
HETATM   11  C   UNL     1       6.762  28.599  53.297  1.00  0.00     0.293 C 
BRANCH  11  12
HETATM   12  N   UNL     1       6.204  29.131  54.587  1.00  0.00    -0.062 N 
HETATM   13  H   UNL     1       6.099  30.145  54.452  1.00  0.00     0.280 HD
HETATM   14  C   UNL     1       4.856  28.556  54.985  1.00  0.00     0.261 C 
HETATM   15  C   UNL     1       4.390  29.207  56.292  1.00  0.00     0.195 C 
HETATM   16  O   UNL     1       5.350  29.003  57.333  1.00  0.00    -0.388 OA
HETATM   17  C   UNL     1       6.621  29.576  57.013  1.00  0.00     0.195 C 
HETATM   18  C   UNL     1       7.198  28.949  55.739  1.00  0.00     0.261 C 
ENDBRANCH  11  12
ENDBRANCH  10  11
BRANCH   1  19
HETATM   19  C   UNL     1       5.060  30.648  51.409  1.00  0.00     0.296 C 
HETATM   20  O   UNL     1       4.289  31.316  52.079  1.00  0.00    -0.259 OA
BRANCH  19  21
HETATM   21  O   UNL     1       6.035  31.197  50.620  1.00  0.00    -0.318 OA
BRANCH  21  22
HETATM   22  C   UNL     1       5.729  32.503  50.082  1.00  0.00     0.174 C 
HETATM   23  C   UNL     1       5.757  32.489  48.563  1.00  0.00     0.034 C 
ENDBRANCH  21  22
ENDBRANCH  19  21
ENDBRANCH   1  19
BRANCH   9  24
HETATM   24  C   UNL     1       6.081  25.843  52.359  1.00  0.00     0.040 A 
HETATM   25  C   UNL     1       7.235  25.286  51.798  1.00  0.00     0.030 A 
HETATM   26  C   UNL     1       7.786  24.139  52.368  1.00  0.00     0.002 A 
HETATM   27  C   UNL     1       7.184  23.552  53.481  1.00  0.00     0.000 A 
HETATM   28  C   UNL     1       6.024  24.104  54.027  1.00  0.00     0.002 A 
HETATM   29  C   UNL     1       5.465  25.253  53.467  1.00  0.00     0.030 A 
ENDBRANCH   9  24
BRANCH   8  30
HETATM   30  C   UNL     1       2.902  29.957  48.906  1.00  0.00     0.276 C 
BRANCH  30  31
HETATM   31  N   UNL     1       1.403  30.154  49.014  1.00  0.00    -0.075 N 
HETATM   32  H   UNL     1       1.032  29.202  49.179  1.00  0.00     0.279 HD
HETATM   33  C   UNL     1       0.988  30.978  50.193  1.00  0.00     0.269 C 
HETATM   34  C   UNL     1       0.798  30.650  47.738  1.00  0.00     0.269 C 
ENDBRANCH  30  31
ENDBRANCH   8  30
BRANCH   7  35
HETATM   35  O   UNL     1       2.492  27.708  47.230  1.00  0.00    -0.359 OA
HETATM   36  H   UNL     1       2.036  26.865  47.003  1.00  0.00     0.218 HD
ENDBRANCH   7  35
TORSDOF 9
ENDMDL
MODEL 5
REMARK VINA RESULT:      -7.0      2.999      6.485
REMARK  9 active torsions:
REMARK  status: ('A' for Active; 'I' for Inactive)
REMARK    1  A    between atoms: C_2  and  O_3 
REMARK    2  A    between atoms: O_3  and  C_4 
REMARK    3  A    between atoms: C_4  and  C_5 
REMARK    4  A    between atoms: C_11  and  O_12 
REMARK    5  A    between atoms: C_13  and  C_14 
REMARK    6  A    between atoms: C_14  and  N_15 
REMARK    7  A    between atoms: N_19  and  C_20 
REMARK    8  A    between atoms: C_26  and  C_27 
REMARK    9  A    between atoms: C_27  and  N_28 
ROOT
HETATM    1  C   UNL     1       5.221  27.513  55.659  1.00  0.00     0.077 A 
HETATM    2  C   UNL     1       5.027  27.507  54.207  1.00  0.00     0.020 A 
HETATM    3  C   UNL     1       4.530  28.776  53.880  1.00  0.00     0.053 A 
HETATM    4  C   UNL     1       4.143  29.129  52.573  1.00  0.00     0.053 A 
HETATM    5  C   UNL     1       4.174  28.160  51.584  1.00  0.00     0.047 A 
HETATM    6 BR   UNL     1       3.556  28.606  49.850  1.00  0.00    -0.048 Br
HETATM    7  C   UNL     1       4.659  26.888  51.867  1.00  0.00     0.092 A 
HETATM    8  C   UNL     1       5.172  26.532  53.143  1.00  0.00     0.016 A 
HETATM    9  N   UNL     1       4.535  29.564  55.023  1.00  0.00    -0.312 N 
HETATM   10  C   UNL     1       4.913  28.805  56.123  1.00  0.00     0.060 A 
ENDROOT
BRANCH  10  11
HETATM   11  C   UNL     1       4.743  29.344  57.521  1.00  0.00     0.293 C 
BRANCH  11  12
HETATM   12  N   UNL     1       6.001  29.865  58.158  1.00  0.00    -0.062 N 
HETATM   13  H   UNL     1       6.108  29.345  59.038  1.00  0.00     0.280 HD
HETATM   14  C   UNL     1       7.261  29.677  57.331  1.00  0.00     0.261 C 
HETATM   15  C   UNL     1       8.466  30.217  58.109  1.00  0.00     0.195 C 
HETATM   16  O   UNL     1       8.283  31.596  58.438  1.00  0.00    -0.388 OA
HETATM   17  C   UNL     1       7.130  31.807  59.259  1.00  0.00     0.195 C 
HETATM   18  C   UNL     1       5.858  31.341  58.543  1.00  0.00     0.261 C 
ENDBRANCH  11  12
ENDBRANCH  10  11
BRANCH   1  19
HETATM   19  C   UNL     1       5.566  26.353  56.502  1.00  0.00     0.296 C 
HETATM   20  O   UNL     1       4.746  25.754  57.178  1.00  0.00    -0.259 OA
BRANCH  19  21
HETATM   21  O   UNL     1       6.891  26.012  56.456  1.00  0.00    -0.318 OA
BRANCH  21  22
HETATM   22  C   UNL     1       7.532  25.855  57.741  1.00  0.00     0.174 C 
HETATM   23  C   UNL     1       8.692  24.877  57.659  1.00  0.00     0.034 C 
ENDBRANCH  21  22
ENDBRANCH  19  21
ENDBRANCH   1  19
BRANCH   9  24
HETATM   24  C   UNL     1       4.118  30.919  55.057  1.00  0.00     0.040 A 
HETATM   25  C   UNL     1       5.075  31.937  54.994  1.00  0.00     0.030 A 
HETATM   26  C   UNL     1       4.660  33.268  55.020  1.00  0.00     0.002 A 
HETATM   27  C   UNL     1       3.303  33.576  55.116  1.00  0.00     0.000 A 
HETATM   28  C   UNL     1       2.353  32.556  55.194  1.00  0.00     0.002 A 
HETATM   29  C   UNL     1       2.756  31.221  55.166  1.00  0.00     0.030 A 
ENDBRANCH   9  24
BRANCH   8  30
HETATM   30  C   UNL     1       5.764  25.144  53.356  1.00  0.00     0.276 C 
BRANCH  30  31
HETATM   31  N   UNL     1       7.267  25.033  53.507  1.00  0.00    -0.075 N 
HETATM   32  H   UNL     1       7.516  25.803  54.152  1.00  0.00     0.279 HD
HETATM   33  C   UNL     1       7.714  23.766  54.170  1.00  0.00     0.269 C 
HETATM   34  C   UNL     1       7.991  25.281  52.221  1.00  0.00     0.269 C 
ENDBRANCH  30  31
ENDBRANCH   8  30
BRANCH   7  35
HETATM   35  O   UNL     1       4.638  25.929  50.875  1.00  0.00    -0.359 OA
HETATM   36  H   UNL     1       3.790  26.040  50.388  1.00  0.00     0.218 HD
ENDBRANCH   7  35
TORSDOF 9
ENDMDL
MODEL 6
REMARK VINA RESULT:      -6.9      2.087      3.082
REMARK  9 active torsions:
REMARK  status: ('A' for Active; 'I' for Inactive)
REMARK    1  A    between atoms: C_2  and  O_3 
REMARK    2  A    between atoms: O_3  and  C_4 
REMARK    3  A    between atoms: C_4  and  C_5 
REMARK    4  A    between atoms: C_11  and  O_12 
REMARK    5  A    between atoms: C_13  and  C_14 
REMARK    6  A    between atoms: C_14  and  N_15 
REMARK    7  A    between atoms: N_19  and  C_20 
REMARK    8  A    between atoms: C_26  and  C_27 
REMARK    9  A    between atoms: C_27  and  N_28 
ROOT
HETATM    1  C   UNL     1       5.078  27.886  53.995  1.00  0.00     0.077 A 
HETATM    2  C   UNL     1       5.811  28.296  55.196  1.00  0.00     0.020 A 
HETATM    3  C   UNL     1       5.394  29.606  55.472  1.00  0.00     0.053 A 
HETATM    4  C   UNL     1       5.942  30.374  56.518  1.00  0.00     0.053 A 
HETATM    5  C   UNL     1       6.992  29.849  57.251  1.00  0.00     0.047 A 
HETATM    6 BR   UNL     1       7.797  30.922  58.589  1.00  0.00    -0.048 Br
HETATM    7  C   UNL     1       7.437  28.555  57.007  1.00  0.00     0.092 A 
HETATM    8  C   UNL     1       6.829  27.706  56.044  1.00  0.00     0.016 A 
HETATM    9  N   UNL     1       4.379  29.946  54.589  1.00  0.00    -0.312 N 
HETATM   10  C   UNL     1       4.198  28.931  53.658  1.00  0.00     0.060 A 
ENDROOT
BRANCH  10  11
HETATM   11  C   UNL     1       3.349  29.158  52.433  1.00  0.00     0.293 C 
BRANCH  11  12
HETATM   12  N   UNL     1       4.043  28.910  51.124  1.00  0.00    -0.062 N 
HETATM   13  H   UNL     1       4.585  28.045  51.251  1.00  0.00     0.280 HD
HETATM   14  C   UNL     1       3.116  28.727  49.935  1.00  0.00     0.261 C 
HETATM   15  C   UNL     1       3.949  28.448  48.678  1.00  0.00     0.195 C 
HETATM   16  O   UNL     1       4.875  29.510  48.434  1.00  0.00    -0.388 OA
HETATM   17  C   UNL     1       5.797  29.680  49.515  1.00  0.00     0.195 C 
HETATM   18  C   UNL     1       5.059  30.015  50.815  1.00  0.00     0.261 C 
ENDBRANCH  11  12
ENDBRANCH  10  11
BRANCH   1  19
HETATM   19  C   UNL     1       5.296  26.656  53.214  1.00  0.00     0.296 C 
HETATM   20  O   UNL     1       4.692  25.616  53.425  1.00  0.00    -0.259 OA
BRANCH  19  21
HETATM   21  O   UNL     1       6.238  26.786  52.229  1.00  0.00    -0.318 OA
BRANCH  21  22
HETATM   22  C   UNL     1       6.715  25.545  51.664  1.00  0.00     0.174 C 
HETATM   23  C   UNL     1       8.002  25.097  52.335  1.00  0.00     0.034 C 
ENDBRANCH  21  22
ENDBRANCH  19  21
ENDBRANCH   1  19
BRANCH   9  24
HETATM   24  C   UNL     1       3.705  31.193  54.595  1.00  0.00     0.040 A 
HETATM   25  C   UNL     1       2.547  31.347  55.365  1.00  0.00     0.030 A 
HETATM   26  C   UNL     1       1.891  32.578  55.373  1.00  0.00     0.002 A 
HETATM   27  C   UNL     1       2.384  33.639  54.614  1.00  0.00     0.000 A 
HETATM   28  C   UNL     1       3.531  33.475  53.836  1.00  0.00     0.002 A 
HETATM   29  C   UNL     1       4.197  32.249  53.821  1.00  0.00     0.030 A 
ENDBRANCH   9  24
BRANCH   8  30
HETATM   30  C   UNL     1       7.316  26.270  55.891  1.00  0.00     0.276 C 
BRANCH  30  31
HETATM   31  N   UNL     1       6.282  25.164  55.949  1.00  0.00    -0.075 N 
HETATM   32  H   UNL     1       5.686  25.327  55.119  1.00  0.00     0.279 HD
HETATM   33  C   UNL     1       6.860  23.792  55.790  1.00  0.00     0.269 C 
HETATM   34  C   UNL     1       5.401  25.267  57.155  1.00  0.00     0.269 C 
ENDBRANCH  30  31
ENDBRANCH   8  30
BRANCH   7  35
HETATM   35  O   UNL     1       8.514  28.072  57.723  1.00  0.00    -0.359 OA
HETATM   36  H   UNL     1       8.340  27.117  57.891  1.00  0.00     0.218 HD
ENDBRANCH   7  35
TORSDOF 9
ENDMDL
MODEL 7
REMARK VINA RESULT:      -6.9      6.860     10.825
REMARK  9 active torsions:
REMARK  status: ('A' for Active; 'I' for Inactive)
REMARK    1  A    between atoms: C_2  and  O_3 
REMARK    2  A    between atoms: O_3  and  C_4 
REMARK    3  A    between atoms: C_4  and  C_5 
REMARK    4  A    between atoms: C_11  and  O_12 
REMARK    5  A    between atoms: C_13  and  C_14 
REMARK    6  A    between atoms: C_14  and  N_15 
REMARK    7  A    between atoms: N_19  and  C_20 
REMARK    8  A    between atoms: C_26  and  C_27 
REMARK    9  A    between atoms: C_27  and  N_28 
ROOT
HETATM    1  C   UNL     1       4.888  33.233  58.850  1.00  0.00     0.077 A 
HETATM    2  C   UNL     1       5.925  32.330  59.357  1.00  0.00     0.020 A 
HETATM    3  C   UNL     1       6.121  32.686  60.698  1.00  0.00     0.053 A 
HETATM    4  C   UNL     1       7.106  32.087  61.508  1.00  0.00     0.053 A 
HETATM    5  C   UNL     1       7.972  31.171  60.936  1.00  0.00     0.047 A 
HETATM    6 BR   UNL     1       9.362  30.443  61.998  1.00  0.00    -0.048 Br
HETATM    7  C   UNL     1       7.813  30.793  59.608  1.00  0.00     0.092 A 
HETATM    8  C   UNL     1       6.756  31.283  58.795  1.00  0.00     0.016 A 
HETATM    9  N   UNL     1       5.187  33.652  61.045  1.00  0.00    -0.312 N 
HETATM   10  C   UNL     1       4.453  34.027  59.927  1.00  0.00     0.060 A 
ENDROOT
BRANCH  10  11
HETATM   11  C   UNL     1       3.562  35.243  59.968  1.00  0.00     0.293 C 
BRANCH  11  12
HETATM   12  N   UNL     1       4.240  36.540  59.630  1.00  0.00    -0.062 N 
HETATM   13  H   UNL     1       5.243  36.387  59.799  1.00  0.00     0.280 HD
HETATM   14  C   UNL     1       4.059  37.000  58.195  1.00  0.00     0.261 C 
HETATM   15  C   UNL     1       4.826  38.310  57.978  1.00  0.00     0.195 C 
HETATM   16  O   UNL     1       4.381  39.318  58.889  1.00  0.00    -0.388 OA
HETATM   17  C   UNL     1       4.581  38.938  60.254  1.00  0.00     0.195 C 
HETATM   18  C   UNL     1       3.807  37.658  60.584  1.00  0.00     0.261 C 
ENDBRANCH  11  12
ENDBRANCH  10  11
BRANCH   1  19
HETATM   19  C   UNL     1       4.454  33.369  57.448  1.00  0.00     0.296 C 
HETATM   20  O   UNL     1       5.150  33.872  56.580  1.00  0.00    -0.259 OA
BRANCH  19  21
HETATM   21  O   UNL     1       3.198  32.880  57.208  1.00  0.00    -0.318 OA
BRANCH  21  22
HETATM   22  C   UNL     1       2.935  32.502  55.839  1.00  0.00     0.174 C 
HETATM   23  C   UNL     1       3.154  31.013  55.630  1.00  0.00     0.034 C 
ENDBRANCH  21  22
ENDBRANCH  19  21
ENDBRANCH   1  19
BRANCH   9  24
HETATM   24  C   UNL     1       5.078  34.226  62.337  1.00  0.00     0.040 A 
HETATM   25  C   UNL     1       5.866  35.333  62.668  1.00  0.00     0.030 A 
HETATM   26  C   UNL     1       5.749  35.899  63.937  1.00  0.00     0.002 A 
HETATM   27  C   UNL     1       4.860  35.359  64.866  1.00  0.00     0.000 A 
HETATM   28  C   UNL     1       4.086  34.245  64.534  1.00  0.00     0.002 A 
HETATM   29  C   UNL     1       4.192  33.671  63.267  1.00  0.00     0.030 A 
ENDBRANCH   9  24
BRANCH   8  30
HETATM   30  C   UNL     1       6.594  30.759  57.374  1.00  0.00     0.276 C 
BRANCH  30  31
HETATM   31  N   UNL     1       6.744  29.268  57.149  1.00  0.00    -0.075 N 
HETATM   32  H   UNL     1       7.354  28.953  57.924  1.00  0.00     0.279 HD
HETATM   33  C   UNL     1       5.462  28.506  57.286  1.00  0.00     0.269 C 
HETATM   34  C   UNL     1       7.454  28.951  55.870  1.00  0.00     0.269 C 
ENDBRANCH  30  31
ENDBRANCH   8  30
BRANCH   7  35
HETATM   35  O   UNL     1       8.716  29.911  59.051  1.00  0.00    -0.359 OA
HETATM   36  H   UNL     1       8.615  29.057  59.531  1.00  0.00     0.218 HD
ENDBRANCH   7  35
TORSDOF 9
ENDMDL
MODEL 8
REMARK VINA RESULT:      -6.3      2.247      6.498
REMARK  9 active torsions:
REMARK  status: ('A' for Active; 'I' for Inactive)
REMARK    1  A    between atoms: C_2  and  O_3 
REMARK    2  A    between atoms: O_3  and  C_4 
REMARK    3  A    between atoms: C_4  and  C_5 
REMARK    4  A    between atoms: C_11  and  O_12 
REMARK    5  A    between atoms: C_13  and  C_14 
REMARK    6  A    between atoms: C_14  and  N_15 
REMARK    7  A    between atoms: N_19  and  C_20 
REMARK    8  A    between atoms: C_26  and  C_27 
REMARK    9  A    between atoms: C_27  and  N_28 
ROOT
HETATM    1  C   UNL     1       5.073  27.503  53.322  1.00  0.00     0.077 A 
HETATM    2  C   UNL     1       4.379  28.428  52.422  1.00  0.00     0.020 A 
HETATM    3  C   UNL     1       4.000  29.522  53.212  1.00  0.00     0.053 A 
HETATM    4  C   UNL     1       3.234  30.593  52.712  1.00  0.00     0.053 A 
HETATM    5  C   UNL     1       2.764  30.526  51.412  1.00  0.00     0.047 A 
HETATM    6 BR   UNL     1       1.648  31.917  50.772  1.00  0.00    -0.048 Br
HETATM    7  C   UNL     1       3.115  29.457  50.596  1.00  0.00     0.092 A 
HETATM    8  C   UNL     1       3.985  28.420  51.026  1.00  0.00     0.016 A 
HETATM    9  N   UNL     1       4.530  29.357  54.484  1.00  0.00    -0.312 N 
HETATM   10  C   UNL     1       5.152  28.119  54.584  1.00  0.00     0.060 A 
ENDROOT
BRANCH  10  11
HETATM   11  C   UNL     1       5.574  27.581  55.928  1.00  0.00     0.293 C 
BRANCH  11  12
HETATM   12  N   UNL     1       6.934  28.022  56.391  1.00  0.00    -0.062 N 
HETATM   13  H   UNL     1       7.431  27.164  56.663  1.00  0.00     0.280 HD
HETATM   14  C   UNL     1       7.761  28.746  55.344  1.00  0.00     0.261 C 
HETATM   15  C   UNL     1       9.129  29.106  55.935  1.00  0.00     0.195 C 
HETATM   16  O   UNL     1       8.982  29.914  57.106  1.00  0.00    -0.388 OA
HETATM   17  C   UNL     1       8.247  29.243  58.134  1.00  0.00     0.195 C 
HETATM   18  C   UNL     1       6.837  28.884  57.653  1.00  0.00     0.261 C 
ENDBRANCH  11  12
ENDBRANCH  10  11
BRANCH   1  19
HETATM   19  C   UNL     1       5.511  26.133  53.002  1.00  0.00     0.296 C 
HETATM   20  O   UNL     1       4.736  25.199  52.869  1.00  0.00    -0.259 OA
BRANCH  19  21
HETATM   21  O   UNL     1       6.868  26.003  52.869  1.00  0.00    -0.318 OA
BRANCH  21  22
HETATM   22  C   UNL     1       7.460  24.920  53.620  1.00  0.00     0.174 C 
HETATM   23  C   UNL     1       8.019  23.853  52.693  1.00  0.00     0.034 C 
ENDBRANCH  21  22
ENDBRANCH  19  21
ENDBRANCH   1  19
BRANCH   9  24
HETATM   24  C   UNL     1       4.366  30.288  55.541  1.00  0.00     0.040 A 
HETATM   25  C   UNL     1       3.425  30.034  56.545  1.00  0.00     0.030 A 
HETATM   26  C   UNL     1       3.274  30.950  57.586  1.00  0.00     0.002 A 
HETATM   27  C   UNL     1       4.049  32.109  57.617  1.00  0.00     0.000 A 
HETATM   28  C   UNL     1       4.976  32.364  56.606  1.00  0.00     0.002 A 
HETATM   29  C   UNL     1       5.138  31.455  55.560  1.00  0.00     0.030 A 
ENDBRANCH   9  24
BRANCH   8  30
HETATM   30  C   UNL     1       4.393  27.325  50.048  1.00  0.00     0.276 C 
BRANCH  30  31
HETATM   31  N   UNL     1       5.433  27.666  48.999  1.00  0.00    -0.075 N 
HETATM   32  H   UNL     1       6.197  26.989  49.168  1.00  0.00     0.279 HD
HETATM   33  C   UNL     1       4.969  27.435  47.594  1.00  0.00     0.269 C 
HETATM   34  C   UNL     1       6.005  29.036  49.186  1.00  0.00     0.269 C 
ENDBRANCH  30  31
ENDBRANCH   8  30
BRANCH   7  35
HETATM   35  O   UNL     1       2.597  29.393  49.318  1.00  0.00    -0.359 OA
HETATM   36  H   UNL     1       3.170  28.776  48.808  1.00  0.00     0.218 HD
ENDBRANCH   7  35
TORSDOF 9
ENDMDL
MODEL 9
REMARK VINA RESULT:      -6.2      3.078      6.161
REMARK  9 active torsions:
REMARK  status: ('A' for Active; 'I' for Inactive)
REMARK    1  A    between atoms: C_2  and  O_3 
REMARK    2  A    between atoms: O_3  and  C_4 
REMARK    3  A    between atoms: C_4  and  C_5 
REMARK    4  A    between atoms: C_11  and  O_12 
REMARK    5  A    between atoms: C_13  and  C_14 
REMARK    6  A    between atoms: C_14  and  N_15 
REMARK    7  A    between atoms: N_19  and  C_20 
REMARK    8  A    between atoms: C_26  and  C_27 
REMARK    9  A    between atoms: C_27  and  N_28 
ROOT
HETATM    1  C   UNL     1       4.138  29.100  53.869  1.00  0.00     0.077 A 
HETATM    2  C   UNL     1       4.818  28.038  54.615  1.00  0.00     0.020 A 
HETATM    3  C   UNL     1       5.117  28.583  55.872  1.00  0.00     0.053 A 
HETATM    4  C   UNL     1       5.847  27.882  56.852  1.00  0.00     0.053 A 
HETATM    5  C   UNL     1       6.364  26.638  56.534  1.00  0.00     0.047 A 
HETATM    6 BR   UNL     1       7.434  25.741  57.814  1.00  0.00    -0.048 Br
HETATM    7  C   UNL     1       6.093  26.063  55.297  1.00  0.00     0.092 A 
HETATM    8  C   UNL     1       5.259  26.687  54.331  1.00  0.00     0.016 A 
HETATM    9  N   UNL     1       4.551  29.848  55.955  1.00  0.00    -0.312 N 
HETATM   10  C   UNL     1       3.986  30.198  54.735  1.00  0.00     0.060 A 
ENDROOT
BRANCH  10  11
HETATM   11  C   UNL     1       3.545  31.616  54.474  1.00  0.00     0.293 C 
BRANCH  11  12
HETATM   12  N   UNL     1       4.531  32.459  53.716  1.00  0.00    -0.062 N 
HETATM   13  H   UNL     1       5.410  31.926  53.708  1.00  0.00     0.280 HD
HETATM   14  C   UNL     1       4.139  32.763  52.280  1.00  0.00     0.261 C 
HETATM   15  C   UNL     1       5.242  33.595  51.617  1.00  0.00     0.195 C 
HETATM   16  O   UNL     1       5.473  34.806  52.342  1.00  0.00    -0.388 OA
HETATM   17  C   UNL     1       5.892  34.557  53.687  1.00  0.00     0.195 C 
HETATM   18  C   UNL     1       4.825  33.768  54.454  1.00  0.00     0.261 C 
ENDBRANCH  11  12
ENDBRANCH  10  11
BRANCH   1  19
HETATM   19  C   UNL     1       3.777  29.073  52.440  1.00  0.00     0.296 C 
HETATM   20  O   UNL     1       2.655  28.805  52.041  1.00  0.00    -0.259 OA
BRANCH  19  21
HETATM   21  O   UNL     1       4.817  29.375  51.602  1.00  0.00    -0.318 OA
BRANCH  21  22
HETATM   22  C   UNL     1       4.439  29.713  50.249  1.00  0.00     0.174 C 
HETATM   23  C   UNL     1       5.632  29.632  49.311  1.00  0.00     0.034 C 
ENDBRANCH  21  22
ENDBRANCH  19  21
ENDBRANCH   1  19
BRANCH   9  24
HETATM   24  C   UNL     1       4.634  30.683  57.098  1.00  0.00     0.040 A 
HETATM   25  C   UNL     1       5.795  31.430  57.324  1.00  0.00     0.030 A 
HETATM   26  C   UNL     1       5.869  32.255  58.446  1.00  0.00     0.002 A 
HETATM   27  C   UNL     1       4.796  32.327  59.334  1.00  0.00     0.000 A 
HETATM   28  C   UNL     1       3.645  31.568  59.111  1.00  0.00     0.002 A 
HETATM   29  C   UNL     1       3.559  30.741  57.991  1.00  0.00     0.030 A 
ENDBRANCH   9  24
BRANCH   8  30
HETATM   30  C   UNL     1       4.938  25.958  53.032  1.00  0.00     0.276 C 
BRANCH  30  31
HETATM   31  N   UNL     1       5.819  26.234  51.830  1.00  0.00    -0.075 N 
HETATM   32  H   UNL     1       6.082  27.230  51.930  1.00  0.00     0.279 HD
HETATM   33  C   UNL     1       7.099  25.457  51.830  1.00  0.00     0.269 C 
HETATM   34  C   UNL     1       5.078  26.100  50.536  1.00  0.00     0.269 C 
ENDBRANCH  30  31
ENDBRANCH   8  30
BRANCH   7  35
HETATM   35  O   UNL     1       6.657  24.842  54.990  1.00  0.00    -0.359 OA
HETATM   36  H   UNL     1       7.592  24.874  55.295  1.00  0.00     0.218 HD
ENDBRANCH   7  35
TORSDOF 9
ENDMDL
MODEL 10
REMARK VINA RESULT:      -6.1      2.549      5.737
REMARK  9 active torsions:
REMARK  status: ('A' for Active; 'I' for Inactive)
REMARK    1  A    between atoms: C_2  and  O_3 
REMARK    2  A    between atoms: O_3  and  C_4 
REMARK    3  A    between atoms: C_4  and  C_5 
REMARK    4  A    between atoms: C_11  and  O_12 
REMARK    5  A    between atoms: C_13  and  C_14 
REMARK    6  A    between atoms: C_14  and  N_15 
REMARK    7  A    between atoms: N_19  and  C_20 
REMARK    8  A    between atoms: C_26  and  C_27 
REMARK    9  A    between atoms: C_27  and  N_28 
ROOT
HETATM    1  C   UNL     1       4.528  30.201  50.957  1.00  0.00     0.077 A 
HETATM    2  C   UNL     1       4.220  30.562  52.343  1.00  0.00     0.020 A 
HETATM    3  C   UNL     1       4.551  29.439  53.115  1.00  0.00     0.053 A 
HETATM    4  C   UNL     1       4.319  29.375  54.503  1.00  0.00     0.053 A 
HETATM    5  C   UNL     1       3.662  30.426  55.119  1.00  0.00     0.047 A 
HETATM    6 BR   UNL     1       3.258  30.294  56.965  1.00  0.00    -0.048 Br
HETATM    7  C   UNL     1       3.315  31.557  54.388  1.00  0.00     0.092 A 
HETATM    8  C   UNL     1       3.642  31.710  53.014  1.00  0.00     0.016 A 
HETATM    9  N   UNL     1       5.144  28.492  52.292  1.00  0.00    -0.312 N 
HETATM   10  C   UNL     1       5.104  28.917  50.971  1.00  0.00     0.060 A 
ENDROOT
BRANCH  10  11
HETATM   11  C   UNL     1       5.437  27.966  49.850  1.00  0.00     0.293 C 
BRANCH  11  12
HETATM   12  N   UNL     1       4.255  27.470  49.065  1.00  0.00    -0.062 N 
HETATM   13  H   UNL     1       3.429  27.662  49.647  1.00  0.00     0.280 HD
HETATM   14  C   UNL     1       4.059  28.137  47.716  1.00  0.00     0.261 C 
HETATM   15  C   UNL     1       2.806  27.566  47.042  1.00  0.00     0.195 C 
HETATM   16  O   UNL     1       2.911  26.148  46.890  1.00  0.00    -0.388 OA
HETATM   17  C   UNL     1       3.048  25.480  48.148  1.00  0.00     0.195 C 
HETATM   18  C   UNL     1       4.309  25.950  48.881  1.00  0.00     0.261 C 
ENDBRANCH  11  12
ENDBRANCH  10  11
BRANCH   1  19
HETATM   19  C   UNL     1       4.196  30.984  49.754  1.00  0.00     0.296 C 
HETATM   20  O   UNL     1       3.050  31.193  49.390  1.00  0.00    -0.259 OA
BRANCH  19  21
HETATM   21  O   UNL     1       5.292  31.455  49.081  1.00  0.00    -0.318 OA
BRANCH  21  22
HETATM   22  C   UNL     1       6.029  32.497  49.758  1.00  0.00     0.174 C 
HETATM   23  C   UNL     1       5.506  33.872  49.380  1.00  0.00     0.034 C 
ENDBRANCH  21  22
ENDBRANCH  19  21
ENDBRANCH   1  19
BRANCH   9  24
HETATM   24  C   UNL     1       5.627  27.237  52.743  1.00  0.00     0.040 A 
HETATM   25  C   UNL     1       6.957  27.119  53.159  1.00  0.00     0.030 A 
HETATM   26  C   UNL     1       7.425  25.884  53.609  1.00  0.00     0.002 A 
HETATM   27  C   UNL     1       6.573  24.780  53.634  1.00  0.00     0.000 A 
HETATM   28  C   UNL     1       5.251  24.901  53.205  1.00  0.00     0.002 A 
HETATM   29  C   UNL     1       4.770  26.130  52.755  1.00  0.00     0.030 A 
ENDBRANCH   9  24
BRANCH   8  30
HETATM   30  C   UNL     1       3.304  33.013  52.301  1.00  0.00     0.276 C 
BRANCH  30  31
HETATM   31  N   UNL     1       3.852  34.300  52.883  1.00  0.00    -0.075 N 
HETATM   32  H   UNL     1       3.467  34.331  53.843  1.00  0.00     0.279 HD
HETATM   33  C   UNL     1       5.343  34.309  53.026  1.00  0.00     0.269 C 
HETATM   34  C   UNL     1       3.347  35.513  52.165  1.00  0.00     0.269 C 
ENDBRANCH  30  31
ENDBRANCH   8  30
BRANCH   7  35
HETATM   35  O   UNL     1       2.622  32.572  55.017  1.00  0.00    -0.359 OA
HETATM   36  H   UNL     1       3.124  33.404  54.853  1.00  0.00     0.218 HD
ENDBRANCH   7  35
TORSDOF 9
ENDMDL
