MODEL 1
REMARK VINA RESULT:     -10.4      0.000      0.000
REMARK  8 active torsions:
REMARK  status: ('A' for Active; 'I' for Inactive)
REMARK    1  A    between atoms: C_2  and  N_3 
REMARK       I    between atoms: N_3  and  C_4 
REMARK       I    between atoms: C_4  and  N_5 
REMARK    2  A    between atoms: N_5  and  C_6 
REMARK    3  A    between atoms: N_5  and  C_21 
REMARK    4  A    between atoms: C_6  and  C_7 
REMARK    5  A    between atoms: C_8  and  O_9 
REMARK    6  A    between atoms: C_21  and  C_22 
REMARK    7  A    between atoms: C_22  and  C_23 
REMARK    8  A    between atoms: C_23  and  N_24 
ROOT
HETATM    1  N   UNL     1       7.594  25.303  54.222  1.00  0.00    -0.309 N 
HETATM    2  C   UNL     1       6.655  25.873  55.047  1.00  0.00     0.323 C 
HETATM    3  N   UNL     1       6.338  27.209  54.760  1.00  0.00    -0.330 N 
HETATM    4  O   UNL     1       6.097  25.299  55.981  1.00  0.00    -0.247 OA
HETATM    5  H   UNL     1       8.257  25.933  53.796  1.00  0.00     0.170 HD
ENDROOT
BRANCH   3   6
HETATM    6  C   UNL     1       6.835  27.908  53.565  1.00  0.00     0.170 C 
BRANCH   6   7
HETATM    7  C   UNL     1       5.851  28.096  52.445  1.00  0.00     0.013 A 
HETATM    8  C   UNL     1       4.954  29.154  52.364  1.00  0.00     0.170 A 
HETATM    9  N   UNL     1       4.055  29.321  51.377  1.00  0.00    -0.224 NA
HETATM   10  C   UNL     1       3.939  28.354  50.450  1.00  0.00     0.072 A 
HETATM   11  C   UNL     1       4.776  27.206  50.456  1.00  0.00    -0.004 A 
HETATM   12  C   UNL     1       2.961  28.456  49.466  1.00  0.00     0.072 A 
HETATM   13  C   UNL     1       5.743  27.107  51.461  1.00  0.00     0.027 A 
HETATM   14  C   UNL     1       4.628  26.191  49.494  1.00  0.00     0.053 A 
HETATM   15  C   UNL     1       3.635  26.337  48.556  1.00  0.00     0.106 A 
HETATM   16  C   UNL     1       2.823  27.440  48.541  1.00  0.00     0.107 A 
HETATM   17  O   UNL     1       3.331  25.449  47.574  1.00  0.00    -0.323 OA
HETATM   18  O   UNL     1       1.901  27.388  47.543  1.00  0.00    -0.323 OA
HETATM   19  C   UNL     1       2.203  26.105  46.954  1.00  0.00     0.352 A 
BRANCH   8  20
HETATM   20  O   UNL     1       4.936  30.159  53.290  1.00  0.00    -0.344 OA
HETATM   21  H   UNL     1       5.201  29.765  54.138  1.00  0.00     0.219 HD
ENDBRANCH   8  20
ENDBRANCH   6   7
ENDBRANCH   3   6
BRANCH   3  22
HETATM   22  C   UNL     1       5.865  28.020  55.896  1.00  0.00     0.129 C 
BRANCH  22  23
HETATM   23  C   UNL     1       6.868  29.032  56.474  1.00  0.00     0.048 C 
BRANCH  23  24
HETATM   24  C   UNL     1       7.469  28.604  57.809  1.00  0.00     0.236 C 
BRANCH  24  25
HETATM   25  N   UNL     1       8.750  29.359  58.111  1.00  0.00    -0.067 N 
HETATM   26  H   UNL     1       9.195  28.917  58.925  1.00  0.00     0.280 HD
HETATM   27  C   UNL     1       9.755  29.349  56.959  1.00  0.00     0.261 C 
HETATM   28  C   UNL     1      10.988  30.174  57.355  1.00  0.00     0.195 C 
HETATM   29  O   UNL     1      10.627  31.516  57.701  1.00  0.00    -0.388 OA
HETATM   30  C   UNL     1       9.729  31.554  58.814  1.00  0.00     0.195 C 
HETATM   31  C   UNL     1       8.432  30.807  58.496  1.00  0.00     0.261 C 
ENDBRANCH  24  25
ENDBRANCH  23  24
ENDBRANCH  22  23
ENDBRANCH   3  22
BRANCH   1  32
HETATM   32  C   UNL     1       7.991  23.947  54.188  1.00  0.00     0.036 A 
HETATM   33  C   UNL     1       8.775  23.340  55.173  1.00  0.00     0.032 A 
HETATM   34  C   UNL     1       9.124  21.990  55.064  1.00  0.00     0.044 A 
HETATM   35  C   UNL     1       8.682  21.248  53.976  1.00  0.00     0.116 A 
HETATM   36  C   UNL     1       7.892  21.830  52.995  1.00  0.00     0.044 A 
HETATM   37  F   UNL     1       9.021  19.957  53.873  1.00  0.00    -0.206 F 
HETATM   38  C   UNL     1       7.542  23.178  53.103  1.00  0.00     0.032 A 
ENDBRANCH   1  32
TORSDOF 8
ENDMDL
MODEL 2
REMARK VINA RESULT:     -10.2      3.611      8.466
REMARK  8 active torsions:
REMARK  status: ('A' for Active; 'I' for Inactive)
REMARK    1  A    between atoms: C_2  and  N_3 
REMARK       I    between atoms: N_3  and  C_4 
REMARK       I    between atoms: C_4  and  N_5 
REMARK    2  A    between atoms: N_5  and  C_6 
REMARK    3  A    between atoms: N_5  and  C_21 
REMARK    4  A    between atoms: C_6  and  C_7 
REMARK    5  A    between atoms: C_8  and  O_9 
REMARK    6  A    between atoms: C_21  and  C_22 
REMARK    7  A    between atoms: C_22  and  C_23 
REMARK    8  A    between atoms: C_23  and  N_24 
ROOT
HETATM    1  N   UNL     1       7.519  30.314  57.920  1.00  0.00    -0.309 N 
HETATM    2  C   UNL     1       6.302  30.122  57.311  1.00  0.00     0.323 C 
HETATM    3  N   UNL     1       6.336  29.359  56.134  1.00  0.00    -0.330 N 
HETATM    4  O   UNL     1       5.231  30.560  57.725  1.00  0.00    -0.247 OA
HETATM    5  H   UNL     1       8.329  30.287  57.320  1.00  0.00     0.170 HD
ENDROOT
BRANCH   3   6
HETATM    6  C   UNL     1       7.546  28.665  55.668  1.00  0.00     0.170 C 
BRANCH   6   7
HETATM    7  C   UNL     1       7.583  27.177  55.877  1.00  0.00     0.013 A 
HETATM    8  C   UNL     1       7.791  26.567  57.108  1.00  0.00     0.170 A 
HETATM    9  N   UNL     1       7.846  25.237  57.304  1.00  0.00    -0.224 NA
HETATM   10  C   UNL     1       7.797  24.432  56.228  1.00  0.00     0.072 A 
HETATM   11  C   UNL     1       7.628  24.946  54.915  1.00  0.00    -0.004 A 
HETATM   12  C   UNL     1       7.939  23.058  56.389  1.00  0.00     0.072 A 
HETATM   13  C   UNL     1       7.505  26.332  54.765  1.00  0.00     0.027 A 
HETATM   14  C   UNL     1       7.602  24.094  53.796  1.00  0.00     0.053 A 
HETATM   15  C   UNL     1       7.763  22.747  54.013  1.00  0.00     0.106 A 
HETATM   16  C   UNL     1       7.926  22.241  55.276  1.00  0.00     0.107 A 
HETATM   17  O   UNL     1       7.792  21.785  53.055  1.00  0.00    -0.323 OA
HETATM   18  O   UNL     1       8.078  20.890  55.274  1.00  0.00    -0.323 OA
HETATM   19  C   UNL     1       8.029  20.608  53.859  1.00  0.00     0.352 A 
BRANCH   8  20
HETATM   20  O   UNL     1       7.923  27.291  58.260  1.00  0.00    -0.344 OA
HETATM   21  H   UNL     1       7.188  27.926  58.279  1.00  0.00     0.219 HD
ENDBRANCH   8  20
ENDBRANCH   6   7
ENDBRANCH   3   6
BRANCH   3  22
HETATM   22  C   UNL     1       5.267  29.630  55.157  1.00  0.00     0.129 C 
BRANCH  22  23
HETATM   23  C   UNL     1       4.436  28.420  54.702  1.00  0.00     0.048 C 
BRANCH  23  24
HETATM   24  C   UNL     1       3.653  28.663  53.417  1.00  0.00     0.236 C 
BRANCH  24  25
HETATM   25  N   UNL     1       3.925  27.585  52.384  1.00  0.00    -0.067 N 
HETATM   26  H   UNL     1       3.022  27.244  52.034  1.00  0.00     0.280 HD
HETATM   27  C   UNL     1       4.742  28.075  51.187  1.00  0.00     0.261 C 
HETATM   28  C   UNL     1       4.996  26.900  50.233  1.00  0.00     0.195 C 
HETATM   29  O   UNL     1       5.667  25.823  50.897  1.00  0.00    -0.388 OA
HETATM   30  C   UNL     1       4.896  25.311  51.989  1.00  0.00     0.195 C 
HETATM   31  C   UNL     1       4.640  26.397  53.036  1.00  0.00     0.261 C 
ENDBRANCH  24  25
ENDBRANCH  23  24
ENDBRANCH  22  23
ENDBRANCH   3  22
BRANCH   1  32
HETATM   32  C   UNL     1       7.760  30.910  59.179  1.00  0.00     0.036 A 
HETATM   33  C   UNL     1       7.017  31.979  59.689  1.00  0.00     0.032 A 
HETATM   34  C   UNL     1       7.320  32.511  60.946  1.00  0.00     0.044 A 
HETATM   35  C   UNL     1       8.358  31.968  61.694  1.00  0.00     0.116 A 
HETATM   36  C   UNL     1       9.097  30.898  61.210  1.00  0.00     0.044 A 
HETATM   37  F   UNL     1       8.647  32.482  62.896  1.00  0.00    -0.206 F 
HETATM   38  C   UNL     1       8.795  30.366  59.954  1.00  0.00     0.032 A 
ENDBRANCH   1  32
TORSDOF 8
ENDMDL
MODEL 3
REMARK VINA RESULT:     -10.0      1.632      8.316
REMARK  8 active torsions:
REMARK  status: ('A' for Active; 'I' for Inactive)
REMARK    1  A    between atoms: C_2  and  N_3 
REMARK       I    between atoms: N_3  and  C_4 
REMARK       I    between atoms: C_4  and  N_5 
REMARK    2  A    between atoms: N_5  and  C_6 
REMARK    3  A    between atoms: N_5  and  C_21 
REMARK    4  A    between atoms: C_6  and  C_7 
REMARK    5  A    between atoms: C_8  and  O_9 
REMARK    6  A    between atoms: C_21  and  C_22 
REMARK    7  A    between atoms: C_22  and  C_23 
REMARK    8  A    between atoms: C_23  and  N_24 
ROOT
HETATM    1  N   UNL     1       6.730  24.275  53.909  1.00  0.00    -0.309 N 
HETATM    2  C   UNL     1       7.052  25.248  52.994  1.00  0.00     0.323 C 
HETATM    3  N   UNL     1       6.304  26.432  53.091  1.00  0.00    -0.330 N 
HETATM    4  O   UNL     1       7.925  25.145  52.135  1.00  0.00    -0.247 OA
HETATM    5  H   UNL     1       5.784  24.286  54.260  1.00  0.00     0.170 HD
ENDROOT
BRANCH   3   6
HETATM    6  C   UNL     1       5.363  26.693  54.191  1.00  0.00     0.170 C 
BRANCH   6   7
HETATM    7  C   UNL     1       5.877  27.542  55.319  1.00  0.00     0.013 A 
HETATM    8  C   UNL     1       5.082  28.043  56.343  1.00  0.00     0.170 A 
HETATM    9  N   UNL     1       5.527  28.820  57.347  1.00  0.00    -0.224 NA
HETATM   10  C   UNL     1       6.807  29.231  57.316  1.00  0.00     0.072 A 
HETATM   11  C   UNL     1       7.702  28.816  56.294  1.00  0.00    -0.004 A 
HETATM   12  C   UNL     1       7.273  30.105  58.292  1.00  0.00     0.072 A 
HETATM   13  C   UNL     1       7.214  27.951  55.309  1.00  0.00     0.027 A 
HETATM   14  C   UNL     1       9.032  29.273  56.261  1.00  0.00     0.053 A 
HETATM   15  C   UNL     1       9.434  30.147  57.241  1.00  0.00     0.106 A 
HETATM   16  C   UNL     1       8.578  30.553  58.231  1.00  0.00     0.107 A 
HETATM   17  O   UNL     1      10.666  30.709  57.350  1.00  0.00    -0.323 OA
HETATM   18  O   UNL     1       9.165  31.425  59.094  1.00  0.00    -0.323 OA
HETATM   19  C   UNL     1      10.479  31.549  58.510  1.00  0.00     0.352 A 
BRANCH   8  20
HETATM   20  O   UNL     1       3.751  27.746  56.435  1.00  0.00    -0.344 OA
HETATM   21  H   UNL     1       3.281  28.379  55.867  1.00  0.00     0.219 HD
ENDBRANCH   8  20
ENDBRANCH   6   7
ENDBRANCH   3   6
BRANCH   3  22
HETATM   22  C   UNL     1       6.154  27.204  51.845  1.00  0.00     0.129 C 
BRANCH  22  23
HETATM   23  C   UNL     1       4.715  27.422  51.348  1.00  0.00     0.048 C 
BRANCH  23  24
HETATM   24  C   UNL     1       4.627  27.792  49.872  1.00  0.00     0.236 C 
BRANCH  24  25
HETATM   25  N   UNL     1       3.510  27.040  49.173  1.00  0.00    -0.067 N 
HETATM   26  H   UNL     1       3.132  26.349  49.831  1.00  0.00     0.280 HD
HETATM   27  C   UNL     1       2.359  27.937  48.716  1.00  0.00     0.261 C 
HETATM   28  C   UNL     1       1.311  27.084  47.986  1.00  0.00     0.195 C 
HETATM   29  O   UNL     1       1.887  26.391  46.873  1.00  0.00    -0.388 OA
HETATM   30  C   UNL     1       2.932  25.503  47.283  1.00  0.00     0.195 C 
HETATM   31  C   UNL     1       4.063  26.270  47.971  1.00  0.00     0.261 C 
ENDBRANCH  24  25
ENDBRANCH  23  24
ENDBRANCH  22  23
ENDBRANCH   3  22
BRANCH   1  32
HETATM   32  C   UNL     1       7.409  23.056  54.135  1.00  0.00     0.036 A 
HETATM   33  C   UNL     1       7.972  22.694  55.362  1.00  0.00     0.032 A 
HETATM   34  C   UNL     1       8.627  21.467  55.502  1.00  0.00     0.044 A 
HETATM   35  C   UNL     1       8.712  20.601  54.420  1.00  0.00     0.116 A 
HETATM   36  C   UNL     1       8.147  20.937  53.197  1.00  0.00     0.044 A 
HETATM   37  F   UNL     1       9.343  19.429  54.557  1.00  0.00    -0.206 F 
HETATM   38  C   UNL     1       7.492  22.163  53.056  1.00  0.00     0.032 A 
ENDBRANCH   1  32
TORSDOF 8
ENDMDL
MODEL 4
REMARK VINA RESULT:      -9.6      1.697      2.279
REMARK  8 active torsions:
REMARK  status: ('A' for Active; 'I' for Inactive)
REMARK    1  A    between atoms: C_2  and  N_3 
REMARK       I    between atoms: N_3  and  C_4 
REMARK       I    between atoms: C_4  and  N_5 
REMARK    2  A    between atoms: N_5  and  C_6 
REMARK    3  A    between atoms: N_5  and  C_21 
REMARK    4  A    between atoms: C_6  and  C_7 
REMARK    5  A    between atoms: C_8  and  O_9 
REMARK    6  A    between atoms: C_21  and  C_22 
REMARK    7  A    between atoms: C_22  and  C_23 
REMARK    8  A    between atoms: C_23  and  N_24 
ROOT
HETATM    1  N   UNL     1       7.078  25.253  54.031  1.00  0.00    -0.309 N 
HETATM    2  C   UNL     1       6.003  25.764  54.716  1.00  0.00     0.323 C 
HETATM    3  N   UNL     1       5.552  27.018  54.275  1.00  0.00    -0.330 N 
HETATM    4  O   UNL     1       5.435  25.205  55.653  1.00  0.00    -0.247 OA
HETATM    5  H   UNL     1       7.696  25.926  53.601  1.00  0.00     0.170 HD
ENDROOT
BRANCH   3   6
HETATM    6  C   UNL     1       6.070  27.670  53.063  1.00  0.00     0.170 C 
BRANCH   6   7
HETATM    7  C   UNL     1       5.265  27.480  51.809  1.00  0.00     0.013 A 
HETATM    8  C   UNL     1       5.521  26.499  50.858  1.00  0.00     0.170 A 
HETATM    9  N   UNL     1       4.820  26.333  49.722  1.00  0.00    -0.224 NA
HETATM   10  C   UNL     1       3.864  27.231  49.425  1.00  0.00     0.072 A 
HETATM   11  C   UNL     1       3.541  28.299  50.304  1.00  0.00    -0.004 A 
HETATM   12  C   UNL     1       3.180  27.135  48.218  1.00  0.00     0.072 A 
HETATM   13  C   UNL     1       4.250  28.394  51.507  1.00  0.00     0.027 A 
HETATM   14  C   UNL     1       2.555  29.245  49.970  1.00  0.00     0.053 A 
HETATM   15  C   UNL     1       1.923  29.112  48.758  1.00  0.00     0.106 A 
HETATM   16  C   UNL     1       2.227  28.084  47.904  1.00  0.00     0.107 A 
HETATM   17  O   UNL     1       0.971  29.942  48.261  1.00  0.00    -0.323 OA
HETATM   18  O   UNL     1       1.500  28.136  46.756  1.00  0.00    -0.323 OA
HETATM   19  C   UNL     1       0.730  29.339  46.971  1.00  0.00     0.352 A 
BRANCH   8  20
HETATM   20  O   UNL     1       6.515  25.575  51.022  1.00  0.00    -0.344 OA
HETATM   21  H   UNL     1       6.082  24.711  51.116  1.00  0.00     0.219 HD
ENDBRANCH   8  20
ENDBRANCH   6   7
ENDBRANCH   3   6
BRANCH   3  22
HETATM   22  C   UNL     1       4.879  27.854  55.284  1.00  0.00     0.129 C 
BRANCH  22  23
HETATM   23  C   UNL     1       5.746  28.920  55.974  1.00  0.00     0.048 C 
BRANCH  23  24
HETATM   24  C   UNL     1       6.555  28.384  57.149  1.00  0.00     0.236 C 
BRANCH  24  25
HETATM   25  N   UNL     1       6.859  29.473  58.161  1.00  0.00    -0.067 N 
HETATM   26  H   UNL     1       6.441  29.200  59.058  1.00  0.00     0.280 HD
HETATM   27  C   UNL     1       8.354  29.701  58.387  1.00  0.00     0.261 C 
HETATM   28  C   UNL     1       8.546  30.848  59.389  1.00  0.00     0.195 C 
HETATM   29  O   UNL     1       7.913  32.049  58.935  1.00  0.00    -0.388 OA
HETATM   30  C   UNL     1       6.503  31.876  58.769  1.00  0.00     0.195 C 
HETATM   31  C   UNL     1       6.202  30.789  57.734  1.00  0.00     0.261 C 
ENDBRANCH  24  25
ENDBRANCH  23  24
ENDBRANCH  22  23
ENDBRANCH   3  22
BRANCH   1  32
HETATM   32  C   UNL     1       7.641  23.963  54.163  1.00  0.00     0.036 A 
HETATM   33  C   UNL     1       8.354  23.536  55.286  1.00  0.00     0.032 A 
HETATM   34  C   UNL     1       8.878  22.240  55.337  1.00  0.00     0.044 A 
HETATM   35  C   UNL     1       8.681  21.373  54.270  1.00  0.00     0.116 A 
HETATM   36  C   UNL     1       7.964  21.775  53.152  1.00  0.00     0.044 A 
HETATM   37  F   UNL     1       9.187  20.135  54.321  1.00  0.00    -0.206 F 
HETATM   38  C   UNL     1       7.439  23.069  53.100  1.00  0.00     0.032 A 
ENDBRANCH   1  32
TORSDOF 8
ENDMDL
MODEL 5
REMARK VINA RESULT:      -9.6      1.819      8.588
REMARK  8 active torsions:
REMARK  status: ('A' for Active; 'I' for Inactive)
REMARK    1  A    between atoms: C_2  and  N_3 
REMARK       I    between atoms: N_3  and  C_4 
REMARK       I    between atoms: C_4  and  N_5 
REMARK    2  A    between atoms: N_5  and  C_6 
REMARK    3  A    between atoms: N_5  and  C_21 
REMARK    4  A    between atoms: C_6  and  C_7 
REMARK    5  A    between atoms: C_8  and  O_9 
REMARK    6  A    between atoms: C_21  and  C_22 
REMARK    7  A    between atoms: C_22  and  C_23 
REMARK    8  A    between atoms: C_23  and  N_24 
ROOT
HETATM    1  N   UNL     1       6.718  24.596  54.412  1.00  0.00    -0.309 N 
HETATM    2  C   UNL     1       6.957  25.634  53.545  1.00  0.00     0.323 C 
HETATM    3  N   UNL     1       6.359  26.855  53.892  1.00  0.00    -0.330 N 
HETATM    4  O   UNL     1       7.641  25.557  52.526  1.00  0.00    -0.247 OA
HETATM    5  H   UNL     1       5.860  24.643  54.941  1.00  0.00     0.170 HD
ENDROOT
BRANCH   3   6
HETATM    6  C   UNL     1       5.669  27.069  55.173  1.00  0.00     0.170 C 
BRANCH   6   7
HETATM    7  C   UNL     1       6.420  27.850  56.213  1.00  0.00     0.013 A 
HETATM    8  C   UNL     1       7.544  27.379  56.881  1.00  0.00     0.170 A 
HETATM    9  N   UNL     1       8.214  28.062  57.828  1.00  0.00    -0.224 NA
HETATM   10  C   UNL     1       7.714  29.242  58.236  1.00  0.00     0.072 A 
HETATM   11  C   UNL     1       6.547  29.804  57.653  1.00  0.00    -0.004 A 
HETATM   12  C   UNL     1       8.335  29.931  59.273  1.00  0.00     0.072 A 
HETATM   13  C   UNL     1       5.923  29.091  56.623  1.00  0.00     0.027 A 
HETATM   14  C   UNL     1       6.023  31.028  58.105  1.00  0.00     0.053 A 
HETATM   15  C   UNL     1       6.667  31.657  59.143  1.00  0.00     0.106 A 
HETATM   16  C   UNL     1       7.794  31.123  59.712  1.00  0.00     0.107 A 
HETATM   17  O   UNL     1       6.289  32.824  59.723  1.00  0.00    -0.323 OA
HETATM   18  O   UNL     1       8.271  31.892  60.727  1.00  0.00    -0.323 OA
HETATM   19  C   UNL     1       7.292  32.952  60.755  1.00  0.00     0.352 A 
BRANCH   8  20
HETATM   20  O   UNL     1       8.098  26.163  56.596  1.00  0.00    -0.344 OA
HETATM   21  H   UNL     1       8.913  26.095  57.120  1.00  0.00     0.219 HD
ENDBRANCH   8  20
ENDBRANCH   6   7
ENDBRANCH   3   6
BRANCH   3  22
HETATM   22  C   UNL     1       6.055  27.767  52.775  1.00  0.00     0.129 C 
BRANCH  22  23
HETATM   23  C   UNL     1       4.635  27.681  52.193  1.00  0.00     0.048 C 
BRANCH  23  24
HETATM   24  C   UNL     1       4.525  28.209  50.767  1.00  0.00     0.236 C 
BRANCH  24  25
HETATM   25  N   UNL     1       3.537  27.400  49.947  1.00  0.00    -0.067 N 
HETATM   26  H   UNL     1       2.941  26.873  50.596  1.00  0.00     0.280 HD
HETATM   27  C   UNL     1       2.630  28.255  49.061  1.00  0.00     0.261 C 
HETATM   28  C   UNL     1       1.707  27.338  48.247  1.00  0.00     0.195 C 
HETATM   29  O   UNL     1       2.458  26.410  47.457  1.00  0.00    -0.388 OA
HETATM   30  C   UNL     1       3.275  25.560  48.268  1.00  0.00     0.195 C 
HETATM   31  C   UNL     1       4.281  26.380  49.079  1.00  0.00     0.261 C 
ENDBRANCH  24  25
ENDBRANCH  23  24
ENDBRANCH  22  23
ENDBRANCH   3  22
BRANCH   1  32
HETATM   32  C   UNL     1       7.306  23.311  54.390  1.00  0.00     0.036 A 
HETATM   33  C   UNL     1       7.651  22.593  55.539  1.00  0.00     0.032 A 
HETATM   34  C   UNL     1       8.230  21.324  55.429  1.00  0.00     0.044 A 
HETATM   35  C   UNL     1       8.454  20.773  54.174  1.00  0.00     0.116 A 
HETATM   36  C   UNL     1       8.105  21.465  53.023  1.00  0.00     0.044 A 
HETATM   37  F   UNL     1       9.010  19.560  54.073  1.00  0.00    -0.206 F 
HETATM   38  C   UNL     1       7.527  22.733  53.131  1.00  0.00     0.032 A 
ENDBRANCH   1  32
TORSDOF 8
ENDMDL
MODEL 6
REMARK VINA RESULT:      -9.4      3.290      7.368
REMARK  8 active torsions:
REMARK  status: ('A' for Active; 'I' for Inactive)
REMARK    1  A    between atoms: C_2  and  N_3 
REMARK       I    between atoms: N_3  and  C_4 
REMARK       I    between atoms: C_4  and  N_5 
REMARK    2  A    between atoms: N_5  and  C_6 
REMARK    3  A    between atoms: N_5  and  C_21 
REMARK    4  A    between atoms: C_6  and  C_7 
REMARK    5  A    between atoms: C_8  and  O_9 
REMARK    6  A    between atoms: C_21  and  C_22 
REMARK    7  A    between atoms: C_22  and  C_23 
REMARK    8  A    between atoms: C_23  and  N_24 
ROOT
HETATM    1  N   UNL     1       5.352  28.454  50.919  1.00  0.00    -0.309 N 
HETATM    2  C   UNL     1       4.680  28.559  52.112  1.00  0.00     0.323 C 
HETATM    3  N   UNL     1       5.393  28.127  53.242  1.00  0.00    -0.330 N 
HETATM    4  O   UNL     1       3.538  28.995  52.241  1.00  0.00    -0.247 OA
HETATM    5  H   UNL     1       6.061  27.737  50.866  1.00  0.00     0.170 HD
ENDROOT
BRANCH   3   6
HETATM    6  C   UNL     1       6.813  27.750  53.192  1.00  0.00     0.170 C 
BRANCH   6   7
HETATM    7  C   UNL     1       7.114  26.279  53.221  1.00  0.00     0.013 A 
HETATM    8  C   UNL     1       6.941  25.425  52.139  1.00  0.00     0.170 A 
HETATM    9  N   UNL     1       7.189  24.102  52.160  1.00  0.00    -0.224 NA
HETATM   10  C   UNL     1       7.533  23.537  53.330  1.00  0.00     0.072 A 
HETATM   11  C   UNL     1       7.700  24.305  54.513  1.00  0.00    -0.004 A 
HETATM   12  C   UNL     1       7.711  22.159  53.403  1.00  0.00     0.072 A 
HETATM   13  C   UNL     1       7.500  25.687  54.429  1.00  0.00     0.027 A 
HETATM   14  C   UNL     1       8.037  23.697  55.736  1.00  0.00     0.053 A 
HETATM   15  C   UNL     1       8.185  22.331  55.753  1.00  0.00     0.106 A 
HETATM   16  C   UNL     1       8.027  21.581  54.617  1.00  0.00     0.107 A 
HETATM   17  O   UNL     1       8.481  21.577  56.842  1.00  0.00    -0.323 OA
HETATM   18  O   UNL     1       8.204  20.254  54.848  1.00  0.00    -0.323 OA
HETATM   19  C   UNL     1       8.456  20.251  56.270  1.00  0.00     0.352 A 
BRANCH   8  20
HETATM   20  O   UNL     1       6.528  25.880  50.918  1.00  0.00    -0.344 OA
HETATM   21  H   UNL     1       6.731  26.830  50.889  1.00  0.00     0.219 HD
ENDBRANCH   8  20
ENDBRANCH   6   7
ENDBRANCH   3   6
BRANCH   3  22
HETATM   22  C   UNL     1       4.581  27.641  54.371  1.00  0.00     0.129 C 
BRANCH  22  23
HETATM   23  C   UNL     1       4.909  28.235  55.751  1.00  0.00     0.048 C 
BRANCH  23  24
HETATM   24  C   UNL     1       5.370  29.688  55.698  1.00  0.00     0.236 C 
BRANCH  24  25
HETATM   25  N   UNL     1       6.612  29.910  56.539  1.00  0.00    -0.067 N 
HETATM   26  H   UNL     1       7.237  30.542  56.023  1.00  0.00     0.280 HD
HETATM   27  C   UNL     1       6.325  30.539  57.903  1.00  0.00     0.261 C 
HETATM   28  C   UNL     1       7.640  30.678  58.683  1.00  0.00     0.195 C 
HETATM   29  O   UNL     1       8.291  29.412  58.836  1.00  0.00    -0.388 OA
HETATM   30  C   UNL     1       8.620  28.828  57.572  1.00  0.00     0.195 C 
HETATM   31  C   UNL     1       7.361  28.589  56.736  1.00  0.00     0.261 C 
ENDBRANCH  24  25
ENDBRANCH  23  24
ENDBRANCH  22  23
ENDBRANCH   3  22
BRANCH   1  32
HETATM   32  C   UNL     1       4.939  28.943  49.659  1.00  0.00     0.036 A 
HETATM   33  C   UNL     1       4.200  28.195  48.738  1.00  0.00     0.032 A 
HETATM   34  C   UNL     1       3.829  28.755  47.511  1.00  0.00     0.044 A 
HETATM   35  C   UNL     1       4.190  30.063  47.212  1.00  0.00     0.116 A 
HETATM   36  C   UNL     1       4.912  30.825  48.119  1.00  0.00     0.044 A 
HETATM   37  F   UNL     1       3.836  30.594  46.035  1.00  0.00    -0.206 F 
HETATM   38  C   UNL     1       5.283  30.267  49.345  1.00  0.00     0.032 A 
ENDBRANCH   1  32
TORSDOF 8
ENDMDL
MODEL 7
REMARK VINA RESULT:      -9.3      3.409      8.880
REMARK  8 active torsions:
REMARK  status: ('A' for Active; 'I' for Inactive)
REMARK    1  A    between atoms: C_2  and  N_3 
REMARK       I    between atoms: N_3  and  C_4 
REMARK       I    between atoms: C_4  and  N_5 
REMARK    2  A    between atoms: N_5  and  C_6 
REMARK    3  A    between atoms: N_5  and  C_21 
REMARK    4  A    between atoms: C_6  and  C_7 
REMARK    5  A    between atoms: C_8  and  O_9 
REMARK    6  A    between atoms: C_21  and  C_22 
REMARK    7  A    between atoms: C_22  and  C_23 
REMARK    8  A    between atoms: C_23  and  N_24 
ROOT
HETATM    1  N   UNL     1       6.212  29.927  55.684  1.00  0.00    -0.309 N 
HETATM    2  C   UNL     1       5.200  29.339  54.966  1.00  0.00     0.323 C 
HETATM    3  N   UNL     1       5.611  28.391  54.016  1.00  0.00    -0.330 N 
HETATM    4  O   UNL     1       4.003  29.583  55.106  1.00  0.00    -0.247 OA
HETATM    5  H   UNL     1       7.112  29.976  55.231  1.00  0.00     0.170 HD
ENDROOT
BRANCH   3   6
HETATM    6  C   UNL     1       7.002  27.925  53.906  1.00  0.00     0.170 C 
BRANCH   6   7
HETATM    7  C   UNL     1       7.292  26.556  54.453  1.00  0.00     0.013 A 
HETATM    8  C   UNL     1       7.572  26.293  55.789  1.00  0.00     0.170 A 
HETATM    9  N   UNL     1       7.852  25.075  56.286  1.00  0.00    -0.224 NA
HETATM   10  C   UNL     1       7.970  24.047  55.427  1.00  0.00     0.072 A 
HETATM   11  C   UNL     1       7.745  24.206  54.034  1.00  0.00    -0.004 A 
HETATM   12  C   UNL     1       8.343  22.793  55.901  1.00  0.00     0.072 A 
HETATM   13  C   UNL     1       7.388  25.476  53.569  1.00  0.00     0.027 A 
HETATM   14  C   UNL     1       7.895  23.127  53.143  1.00  0.00     0.053 A 
HETATM   15  C   UNL     1       8.281  21.916  53.664  1.00  0.00     0.106 A 
HETATM   16  C   UNL     1       8.499  21.752  55.007  1.00  0.00     0.107 A 
HETATM   17  O   UNL     1       8.500  20.779  52.955  1.00  0.00    -0.323 OA
HETATM   18  O   UNL     1       8.883  20.485  55.316  1.00  0.00    -0.323 OA
HETATM   19  C   UNL     1       8.918  19.880  54.005  1.00  0.00     0.352 A 
BRANCH   8  20
HETATM   20  O   UNL     1       7.549  27.275  56.739  1.00  0.00    -0.344 OA
HETATM   21  H   UNL     1       7.066  28.026  56.356  1.00  0.00     0.219 HD
ENDBRANCH   8  20
ENDBRANCH   6   7
ENDBRANCH   3   6
BRANCH   3  22
HETATM   22  C   UNL     1       4.720  28.208  52.858  1.00  0.00     0.129 C 
BRANCH  22  23
HETATM   23  C   UNL     1       5.404  27.993  51.498  1.00  0.00     0.048 C 
BRANCH  23  24
HETATM   24  C   UNL     1       5.251  26.578  50.952  1.00  0.00     0.236 C 
BRANCH  24  25
HETATM   25  N   UNL     1       5.093  26.576  49.443  1.00  0.00    -0.067 N 
HETATM   26  H   UNL     1       5.876  26.048  49.042  1.00  0.00     0.280 HD
HETATM   27  C   UNL     1       3.792  25.932  48.962  1.00  0.00     0.261 C 
HETATM   28  C   UNL     1       3.717  26.024  47.432  1.00  0.00     0.195 C 
HETATM   29  O   UNL     1       3.804  27.382  46.986  1.00  0.00    -0.388 OA
HETATM   30  C   UNL     1       5.038  27.991  47.377  1.00  0.00     0.195 C 
HETATM   31  C   UNL     1       5.183  28.006  48.900  1.00  0.00     0.261 C 
ENDBRANCH  24  25
ENDBRANCH  23  24
ENDBRANCH  22  23
ENDBRANCH   3  22
BRANCH   1  32
HETATM   32  C   UNL     1       6.082  30.796  56.791  1.00  0.00     0.036 A 
HETATM   33  C   UNL     1       5.197  31.878  56.831  1.00  0.00     0.032 A 
HETATM   34  C   UNL     1       5.129  32.690  57.968  1.00  0.00     0.044 A 
HETATM   35  C   UNL     1       5.937  32.415  59.064  1.00  0.00     0.116 A 
HETATM   36  C   UNL     1       6.811  31.337  59.047  1.00  0.00     0.044 A 
HETATM   37  F   UNL     1       5.871  33.196  60.148  1.00  0.00    -0.206 F 
HETATM   38  C   UNL     1       6.880  30.525  57.912  1.00  0.00     0.032 A 
ENDBRANCH   1  32
TORSDOF 8
ENDMDL
MODEL 8
REMARK VINA RESULT:      -9.3      3.719      8.596
REMARK  8 active torsions:
REMARK  status: ('A' for Active; 'I' for Inactive)
REMARK    1  A    between atoms: C_2  and  N_3 
REMARK       I    between atoms: N_3  and  C_4 
REMARK       I    between atoms: C_4  and  N_5 
REMARK    2  A    between atoms: N_5  and  C_6 
REMARK    3  A    between atoms: N_5  and  C_21 
REMARK    4  A    between atoms: C_6  and  C_7 
REMARK    5  A    between atoms: C_8  and  O_9 
REMARK    6  A    between atoms: C_21  and  C_22 
REMARK    7  A    between atoms: C_22  and  C_23 
REMARK    8  A    between atoms: C_23  and  N_24 
ROOT
HETATM    1  N   UNL     1       7.807  30.706  58.735  1.00  0.00    -0.309 N 
HETATM    2  C   UNL     1       6.621  30.496  58.074  1.00  0.00     0.323 C 
HETATM    3  N   UNL     1       6.737  29.893  56.812  1.00  0.00    -0.330 N 
HETATM    4  O   UNL     1       5.510  30.791  58.511  1.00  0.00    -0.247 OA
HETATM    5  H   UNL     1       8.627  30.820  58.158  1.00  0.00     0.170 HD
ENDROOT
BRANCH   3   6
HETATM    6  C   UNL     1       8.008  29.363  56.296  1.00  0.00     0.170 C 
BRANCH   6   7
HETATM    7  C   UNL     1       7.972  27.965  55.745  1.00  0.00     0.013 A 
HETATM    8  C   UNL     1       7.660  27.654  54.427  1.00  0.00     0.170 A 
HETATM    9  N   UNL     1       7.606  26.406  53.927  1.00  0.00    -0.224 NA
HETATM   10  C   UNL     1       7.765  25.373  54.774  1.00  0.00     0.072 A 
HETATM   11  C   UNL     1       8.047  25.571  56.152  1.00  0.00    -0.004 A 
HETATM   12  C   UNL     1       7.628  24.071  54.305  1.00  0.00     0.072 A 
HETATM   13  C   UNL     1       8.164  26.886  56.614  1.00  0.00     0.027 A 
HETATM   14  C   UNL     1       8.188  24.482  57.031  1.00  0.00     0.053 A 
HETATM   15  C   UNL     1       8.027  23.218  56.516  1.00  0.00     0.106 A 
HETATM   16  C   UNL     1       7.755  23.017  55.188  1.00  0.00     0.107 A 
HETATM   17  O   UNL     1       8.100  22.058  57.218  1.00  0.00    -0.323 OA
HETATM   18  O   UNL     1       7.622  21.699  54.884  1.00  0.00    -0.323 OA
HETATM   19  C   UNL     1       7.805  21.095  56.183  1.00  0.00     0.352 A 
BRANCH   8  20
HETATM   20  O   UNL     1       7.412  28.622  53.495  1.00  0.00    -0.344 OA
HETATM   21  H   UNL     1       6.552  28.414  53.095  1.00  0.00     0.219 HD
ENDBRANCH   8  20
ENDBRANCH   6   7
ENDBRANCH   3   6
BRANCH   3  22
HETATM   22  C   UNL     1       5.666  30.200  55.849  1.00  0.00     0.129 C 
BRANCH  22  23
HETATM   23  C   UNL     1       4.601  29.110  55.644  1.00  0.00     0.048 C 
BRANCH  23  24
HETATM   24  C   UNL     1       3.785  29.284  54.367  1.00  0.00     0.236 C 
BRANCH  24  25
HETATM   25  N   UNL     1       4.587  28.908  53.136  1.00  0.00    -0.067 N 
HETATM   26  H   UNL     1       5.582  28.923  53.388  1.00  0.00     0.280 HD
HETATM   27  C   UNL     1       4.259  27.517  52.590  1.00  0.00     0.261 C 
HETATM   28  C   UNL     1       5.090  27.260  51.326  1.00  0.00     0.195 C 
HETATM   29  O   UNL     1       4.853  28.263  50.332  1.00  0.00    -0.388 OA
HETATM   30  C   UNL     1       5.205  29.568  50.801  1.00  0.00     0.195 C 
HETATM   31  C   UNL     1       4.380  29.949  52.032  1.00  0.00     0.261 C 
ENDBRANCH  24  25
ENDBRANCH  23  24
ENDBRANCH  22  23
ENDBRANCH   3  22
BRANCH   1  32
HETATM   32  C   UNL     1       7.977  31.155  60.064  1.00  0.00     0.036 A 
HETATM   33  C   UNL     1       8.756  30.491  61.016  1.00  0.00     0.032 A 
HETATM   34  C   UNL     1       8.873  31.003  62.312  1.00  0.00     0.044 A 
HETATM   35  C   UNL     1       8.219  32.181  62.651  1.00  0.00     0.116 A 
HETATM   36  C   UNL     1       7.452  32.861  61.716  1.00  0.00     0.044 A 
HETATM   37  F   UNL     1       8.331  32.667  63.894  1.00  0.00    -0.206 F 
HETATM   38  C   UNL     1       7.334  32.350  60.421  1.00  0.00     0.032 A 
ENDBRANCH   1  32
TORSDOF 8
ENDMDL
MODEL 9
REMARK VINA RESULT:      -9.0      4.073      8.965
REMARK  8 active torsions:
REMARK  status: ('A' for Active; 'I' for Inactive)
REMARK    1  A    between atoms: C_2  and  N_3 
REMARK       I    between atoms: N_3  and  C_4 
REMARK       I    between atoms: C_4  and  N_5 
REMARK    2  A    between atoms: N_5  and  C_6 
REMARK    3  A    between atoms: N_5  and  C_21 
REMARK    4  A    between atoms: C_6  and  C_7 
REMARK    5  A    between atoms: C_8  and  O_9 
REMARK    6  A    between atoms: C_21  and  C_22 
REMARK    7  A    between atoms: C_22  and  C_23 
REMARK    8  A    between atoms: C_23  and  N_24 
ROOT
HETATM    1  N   UNL     1       6.157  31.562  58.886  1.00  0.00    -0.309 N 
HETATM    2  C   UNL     1       4.958  31.109  58.391  1.00  0.00     0.323 C 
HETATM    3  N   UNL     1       5.038  30.394  57.187  1.00  0.00    -0.330 N 
HETATM    4  O   UNL     1       3.865  31.286  58.926  1.00  0.00    -0.247 OA
HETATM    5  H   UNL     1       6.886  31.730  58.208  1.00  0.00     0.170 HD
ENDROOT
BRANCH   3   6
HETATM    6  C   UNL     1       6.317  30.000  56.577  1.00  0.00     0.170 C 
BRANCH   6   7
HETATM    7  C   UNL     1       6.737  28.571  56.774  1.00  0.00     0.013 A 
HETATM    8  C   UNL     1       7.489  28.120  57.853  1.00  0.00     0.170 A 
HETATM    9  N   UNL     1       7.887  26.847  58.029  1.00  0.00    -0.224 NA
HETATM   10  C   UNL     1       7.633  25.958  57.053  1.00  0.00     0.072 A 
HETATM   11  C   UNL     1       6.907  26.315  55.885  1.00  0.00    -0.004 A 
HETATM   12  C   UNL     1       8.107  24.656  57.167  1.00  0.00     0.072 A 
HETATM   13  C   UNL     1       6.451  27.634  55.776  1.00  0.00     0.027 A 
HETATM   14  C   UNL     1       6.668  25.381  54.861  1.00  0.00     0.053 A 
HETATM   15  C   UNL     1       7.174  24.114  55.019  1.00  0.00     0.106 A 
HETATM   16  C   UNL     1       7.874  23.759  56.142  1.00  0.00     0.107 A 
HETATM   17  O   UNL     1       7.064  23.097  54.127  1.00  0.00    -0.323 OA
HETATM   18  O   UNL     1       8.296  22.468  56.100  1.00  0.00    -0.323 OA
HETATM   19  C   UNL     1       7.812  22.061  54.802  1.00  0.00     0.352 A 
BRANCH   8  20
HETATM   20  O   UNL     1       7.864  28.952  58.870  1.00  0.00    -0.344 OA
HETATM   21  H   UNL     1       8.641  29.446  58.558  1.00  0.00     0.219 HD
ENDBRANCH   8  20
ENDBRANCH   6   7
ENDBRANCH   3   6
BRANCH   3  22
HETATM   22  C   UNL     1       3.839  30.433  56.331  1.00  0.00     0.129 C 
BRANCH  22  23
HETATM   23  C   UNL     1       4.083  30.627  54.826  1.00  0.00     0.048 C 
BRANCH  23  24
HETATM   24  C   UNL     1       3.585  29.467  53.970  1.00  0.00     0.236 C 
BRANCH  24  25
HETATM   25  N   UNL     1       4.610  29.062  52.928  1.00  0.00    -0.067 N 
HETATM   26  H   UNL     1       5.545  29.212  53.325  1.00  0.00     0.280 HD
HETATM   27  C   UNL     1       4.506  27.597  52.503  1.00  0.00     0.261 C 
HETATM   28  C   UNL     1       5.555  27.308  51.419  1.00  0.00     0.195 C 
HETATM   29  O   UNL     1       5.391  28.175  50.291  1.00  0.00    -0.388 OA
HETATM   30  C   UNL     1       5.538  29.551  50.654  1.00  0.00     0.195 C 
HETATM   31  C   UNL     1       4.491  29.959  51.692  1.00  0.00     0.261 C 
ENDBRANCH  24  25
ENDBRANCH  23  24
ENDBRANCH  22  23
ENDBRANCH   3  22
BRANCH   1  32
HETATM   32  C   UNL     1       6.389  32.175  60.138  1.00  0.00     0.036 A 
HETATM   33  C   UNL     1       5.569  33.168  60.682  1.00  0.00     0.032 A 
HETATM   34  C   UNL     1       5.869  33.724  61.929  1.00  0.00     0.044 A 
HETATM   35  C   UNL     1       6.981  33.281  62.634  1.00  0.00     0.116 A 
HETATM   36  C   UNL     1       7.799  32.286  62.116  1.00  0.00     0.044 A 
HETATM   37  F   UNL     1       7.267  33.818  63.826  1.00  0.00    -0.206 F 
HETATM   38  C   UNL     1       7.500  31.730  60.869  1.00  0.00     0.032 A 
ENDBRANCH   1  32
TORSDOF 8
ENDMDL
MODEL 10
REMARK VINA RESULT:      -8.8      3.363      8.550
REMARK  8 active torsions:
REMARK  status: ('A' for Active; 'I' for Inactive)
REMARK    1  A    between atoms: C_2  and  N_3 
REMARK       I    between atoms: N_3  and  C_4 
REMARK       I    between atoms: C_4  and  N_5 
REMARK    2  A    between atoms: N_5  and  C_6 
REMARK    3  A    between atoms: N_5  and  C_21 
REMARK    4  A    between atoms: C_6  and  C_7 
REMARK    5  A    between atoms: C_8  and  O_9 
REMARK    6  A    between atoms: C_21  and  C_22 
REMARK    7  A    between atoms: C_22  and  C_23 
REMARK    8  A    between atoms: C_23  and  N_24 
ROOT
HETATM    1  N   UNL     1       6.333  29.334  55.530  1.00  0.00    -0.309 N 
HETATM    2  C   UNL     1       5.218  28.657  55.098  1.00  0.00     0.323 C 
HETATM    3  N   UNL     1       5.418  27.815  53.993  1.00  0.00    -0.330 N 
HETATM    4  O   UNL     1       4.102  28.742  55.607  1.00  0.00    -0.247 OA
HETATM    5  H   UNL     1       7.042  29.517  54.835  1.00  0.00     0.170 HD
ENDROOT
BRANCH   3   6
HETATM    6  C   UNL     1       6.750  27.533  53.437  1.00  0.00     0.170 C 
BRANCH   6   7
HETATM    7  C   UNL     1       7.129  26.085  53.315  1.00  0.00     0.013 A 
HETATM    8  C   UNL     1       6.989  25.336  52.153  1.00  0.00     0.170 A 
HETATM    9  N   UNL     1       7.307  24.033  52.039  1.00  0.00    -0.224 NA
HETATM   10  C   UNL     1       7.694  23.372  53.143  1.00  0.00     0.072 A 
HETATM   11  C   UNL     1       7.834  24.026  54.397  1.00  0.00    -0.004 A 
HETATM   12  C   UNL     1       7.946  22.006  53.076  1.00  0.00     0.072 A 
HETATM   13  C   UNL     1       7.560  25.397  54.454  1.00  0.00     0.027 A 
HETATM   14  C   UNL     1       8.218  23.317  55.550  1.00  0.00     0.053 A 
HETATM   15  C   UNL     1       8.438  21.967  55.428  1.00  0.00     0.106 A 
HETATM   16  C   UNL     1       8.307  21.327  54.223  1.00  0.00     0.107 A 
HETATM   17  O   UNL     1       8.787  21.123  56.434  1.00  0.00    -0.323 OA
HETATM   18  O   UNL     1       8.557  19.994  54.317  1.00  0.00    -0.323 OA
HETATM   19  C   UNL     1       8.826  19.863  55.730  1.00  0.00     0.352 A 
BRANCH   8  20
HETATM   20  O   UNL     1       6.538  25.889  50.987  1.00  0.00    -0.344 OA
HETATM   21  H   UNL     1       6.617  26.852  51.084  1.00  0.00     0.219 HD
ENDBRANCH   8  20
ENDBRANCH   6   7
ENDBRANCH   3   6
BRANCH   3  22
HETATM   22  C   UNL     1       4.241  27.576  53.141  1.00  0.00     0.129 C 
BRANCH  22  23
HETATM   23  C   UNL     1       3.741  28.775  52.318  1.00  0.00     0.048 C 
BRANCH  23  24
HETATM   24  C   UNL     1       4.836  29.462  51.511  1.00  0.00     0.236 C 
BRANCH  24  25
HETATM   25  N   UNL     1       4.493  29.516  50.034  1.00  0.00    -0.067 N 
HETATM   26  H   UNL     1       4.596  30.487  49.718  1.00  0.00     0.280 HD
HETATM   27  C   UNL     1       5.391  28.637  49.163  1.00  0.00     0.261 C 
HETATM   28  C   UNL     1       4.929  28.731  47.702  1.00  0.00     0.195 C 
HETATM   29  O   UNL     1       3.556  28.347  47.563  1.00  0.00    -0.388 OA
HETATM   30  C   UNL     1       2.689  29.191  48.327  1.00  0.00     0.195 C 
HETATM   31  C   UNL     1       3.029  29.119  49.818  1.00  0.00     0.261 C 
ENDBRANCH  24  25
ENDBRANCH  23  24
ENDBRANCH  22  23
ENDBRANCH   3  22
BRANCH   1  32
HETATM   32  C   UNL     1       6.455  30.126  56.694  1.00  0.00     0.036 A 
HETATM   33  C   UNL     1       7.342  29.845  57.737  1.00  0.00     0.032 A 
HETATM   34  C   UNL     1       7.401  30.682  58.856  1.00  0.00     0.044 A 
HETATM   35  C   UNL     1       6.581  31.801  58.926  1.00  0.00     0.116 A 
HETATM   36  C   UNL     1       5.703  32.103  57.894  1.00  0.00     0.044 A 
HETATM   37  F   UNL     1       6.638  32.597  60.000  1.00  0.00    -0.206 F 
HETATM   38  C   UNL     1       5.643  31.268  56.775  1.00  0.00     0.032 A 
ENDBRANCH   1  32
TORSDOF 8
ENDMDL
