MODEL 1
REMARK VINA RESULT:      -8.6      0.000      0.000
REMARK  3 active torsions:
REMARK  status: ('A' for Active; 'I' for Inactive)
REMARK    1  A    between atoms: O_2  and  C_3 
REMARK    2  A    between atoms: C_4  and  C_5 
REMARK    3  A    between atoms: C_16  and  N_17 
ROOT
HETATM    1  C   UNL     1       3.808  32.955  62.398  1.00  0.00     0.246 C 
HETATM    2  N   UNL     1       3.492  34.047  61.502  1.00  0.00    -0.151 N 
HETATM    3  C   UNL     1       3.058  33.805  60.223  1.00  0.00     0.734 A 
HETATM    4  N   UNL     1       2.855  34.949  59.605  1.00  0.00    -0.060 NA
HETATM    5  C   UNL     1       3.100  35.936  60.525  1.00  0.00     0.103 A 
HETATM    6  C   UNL     1       3.482  35.394  61.749  1.00  0.00     0.083 A 
HETATM    7  C   UNL     1       3.011  37.328  60.384  1.00  0.00     0.034 A 
HETATM    8  C   UNL     1       3.306  38.134  61.490  1.00  0.00     0.002 A 
HETATM    9  C   UNL     1       3.681  37.566  62.710  1.00  0.00     0.002 A 
HETATM   10  C   UNL     1       3.778  36.178  62.869  1.00  0.00     0.033 A 
HETATM   11  N   UNL     1       2.877  32.559  59.731  1.00  0.00    -0.033 NA
HETATM   12  C   UNL     1       3.043  31.555  60.514  1.00  0.00     0.193 C 
HETATM   13  N   UNL     1       3.445  31.652  61.845  1.00  0.00    -0.338 N 
HETATM   14  H   UNL     1       3.492  30.852  62.458  1.00  0.00     0.164 HD
ENDROOT
BRANCH   1  15
HETATM   15  C   UNL     1       5.276  32.867  62.806  1.00  0.00     0.020 A 
HETATM   16  C   UNL     1       5.618  33.092  64.162  1.00  0.00     0.078 A 
HETATM   17  C   UNL     1       6.955  33.035  64.570  1.00  0.00     0.039 A 
HETATM   18  C   UNL     1       7.962  32.740  63.650  1.00  0.00     0.022 A 
HETATM   19  C   UNL     1       7.634  32.486  62.324  1.00  0.00     0.011 A 
HETATM   20  C   UNL     1       6.305  32.537  61.901  1.00  0.00     0.033 A 
HETATM   21 BR   UNL     1       8.997  32.073  61.083  1.00  0.00    -0.051 Br
BRANCH  16  22
HETATM   22  O   UNL     1       4.560  33.334  65.004  1.00  0.00    -0.355 OA
HETATM   23  C   UNL     1       4.846  33.985  66.242  1.00  0.00     0.210 C 
ENDBRANCH  16  22
ENDBRANCH   1  15
BRANCH  12  24
HETATM   24  N   UNL     1       2.840  30.280  60.125  1.00  0.00    -0.272 NA
HETATM   25  H   UNL     1       2.314  29.764  60.827  1.00  0.00     0.127 HD
HETATM   26  H   UNL     1       2.450  30.147  59.202  1.00  0.00     0.127 HD
ENDBRANCH  12  24
TORSDOF 3
ENDMDL
MODEL 2
REMARK VINA RESULT:      -7.8      3.133      6.000
REMARK  3 active torsions:
REMARK  status: ('A' for Active; 'I' for Inactive)
REMARK    1  A    between atoms: O_2  and  C_3 
REMARK    2  A    between atoms: C_4  and  C_5 
REMARK    3  A    between atoms: C_16  and  N_17 
ROOT
HETATM    1  C   UNL     1       3.875  34.813  63.505  1.00  0.00     0.246 C 
HETATM    2  N   UNL     1       5.115  34.171  63.886  1.00  0.00    -0.151 N 
HETATM    3  C   UNL     1       5.467  34.047  65.207  1.00  0.00     0.734 A 
HETATM    4  N   UNL     1       6.635  33.449  65.295  1.00  0.00    -0.060 NA
HETATM    5  C   UNL     1       7.004  33.126  64.014  1.00  0.00     0.103 A 
HETATM    6  C   UNL     1       6.047  33.549  63.098  1.00  0.00     0.083 A 
HETATM    7  C   UNL     1       8.151  32.462  63.558  1.00  0.00     0.034 A 
HETATM    8  C   UNL     1       8.295  32.240  62.183  1.00  0.00     0.002 A 
HETATM    9  C   UNL     1       7.316  32.668  61.283  1.00  0.00     0.002 A 
HETATM   10  C   UNL     1       6.165  33.335  61.720  1.00  0.00     0.033 A 
HETATM   11  N   UNL     1       4.685  34.485  66.220  1.00  0.00    -0.033 NA
HETATM   12  C   UNL     1       3.529  34.969  65.944  1.00  0.00     0.193 C 
HETATM   13  N   UNL     1       3.026  35.121  64.653  1.00  0.00    -0.338 N 
HETATM   14  H   UNL     1       2.084  35.433  64.471  1.00  0.00     0.164 HD
ENDROOT
BRANCH   1  15
HETATM   15  C   UNL     1       4.043  36.111  62.720  1.00  0.00     0.020 A 
HETATM   16  C   UNL     1       3.107  36.414  61.701  1.00  0.00     0.078 A 
HETATM   17  C   UNL     1       3.238  37.587  60.950  1.00  0.00     0.039 A 
HETATM   18  C   UNL     1       4.281  38.478  61.208  1.00  0.00     0.022 A 
HETATM   19  C   UNL     1       5.185  38.206  62.226  1.00  0.00     0.011 A 
HETATM   20  C   UNL     1       5.068  37.041  62.986  1.00  0.00     0.033 A 
HETATM   21 BR   UNL     1       6.588  39.420  62.584  1.00  0.00    -0.051 Br
BRANCH  16  22
HETATM   22  O   UNL     1       2.091  35.502  61.544  1.00  0.00    -0.355 OA
HETATM   23  C   UNL     1       1.508  35.392  60.247  1.00  0.00     0.210 C 
ENDBRANCH  16  22
ENDBRANCH   1  15
BRANCH  12  24
HETATM   24  N   UNL     1       2.664  35.388  66.890  1.00  0.00    -0.272 NA
HETATM   25  H   UNL     1       2.880  34.970  67.793  1.00  0.00     0.127 HD
HETATM   26  H   UNL     1       2.533  36.388  66.969  1.00  0.00     0.127 HD
ENDBRANCH  12  24
TORSDOF 3
ENDMDL
MODEL 3
REMARK VINA RESULT:      -7.6      8.287     10.692
REMARK  3 active torsions:
REMARK  status: ('A' for Active; 'I' for Inactive)
REMARK    1  A    between atoms: O_2  and  C_3 
REMARK    2  A    between atoms: C_4  and  C_5 
REMARK    3  A    between atoms: C_16  and  N_17 
ROOT
HETATM    1  C   UNL     1       6.799  26.249  56.625  1.00  0.00     0.246 C 
HETATM    2  N   UNL     1       7.037  25.762  55.283  1.00  0.00    -0.151 N 
HETATM    3  C   UNL     1       7.900  24.718  55.056  1.00  0.00     0.734 A 
HETATM    4  N   UNL     1       7.961  24.473  53.765  1.00  0.00    -0.060 NA
HETATM    5  C   UNL     1       7.073  25.329  53.164  1.00  0.00     0.103 A 
HETATM    6  C   UNL     1       6.451  26.143  54.105  1.00  0.00     0.083 A 
HETATM    7  C   UNL     1       6.743  25.463  51.809  1.00  0.00     0.034 A 
HETATM    8  C   UNL     1       5.786  26.416  51.443  1.00  0.00     0.002 A 
HETATM    9  C   UNL     1       5.170  27.218  52.408  1.00  0.00     0.002 A 
HETATM   10  C   UNL     1       5.489  27.100  53.766  1.00  0.00     0.033 A 
HETATM   11  N   UNL     1       8.551  24.074  56.050  1.00  0.00    -0.033 NA
HETATM   12  C   UNL     1       8.299  24.397  57.266  1.00  0.00     0.193 C 
HETATM   13  N   UNL     1       7.419  25.410  57.646  1.00  0.00    -0.338 N 
HETATM   14  H   UNL     1       7.182  25.589  58.610  1.00  0.00     0.164 HD
ENDROOT
BRANCH   1  15
HETATM   15  C   UNL     1       7.272  27.677  56.880  1.00  0.00     0.020 A 
HETATM   16  C   UNL     1       6.303  28.684  57.107  1.00  0.00     0.078 A 
HETATM   17  C   UNL     1       6.700  30.007  57.329  1.00  0.00     0.039 A 
HETATM   18  C   UNL     1       8.054  30.345  57.345  1.00  0.00     0.022 A 
HETATM   19  C   UNL     1       9.014  29.359  57.154  1.00  0.00     0.011 A 
HETATM   20  C   UNL     1       8.635  28.034  56.933  1.00  0.00     0.033 A 
HETATM   21 BR   UNL     1      10.847  29.815  57.190  1.00  0.00    -0.051 Br
BRANCH  16  22
HETATM   22  O   UNL     1       4.998  28.254  57.115  1.00  0.00    -0.355 OA
HETATM   23  C   UNL     1       4.054  29.021  56.369  1.00  0.00     0.210 C 
ENDBRANCH  16  22
ENDBRANCH   1  15
BRANCH  12  24
HETATM   24  N   UNL     1       8.865  23.779  58.323  1.00  0.00    -0.272 NA
HETATM   25  H   UNL     1       8.368  23.998  59.183  1.00  0.00     0.127 HD
HETATM   26  H   UNL     1       9.023  22.784  58.232  1.00  0.00     0.127 HD
ENDBRANCH  12  24
TORSDOF 3
ENDMDL
MODEL 4
REMARK VINA RESULT:      -7.5      1.830      2.407
REMARK  3 active torsions:
REMARK  status: ('A' for Active; 'I' for Inactive)
REMARK    1  A    between atoms: O_2  and  C_3 
REMARK    2  A    between atoms: C_4  and  C_5 
REMARK    3  A    between atoms: C_16  and  N_17 
ROOT
HETATM    1  C   UNL     1       4.432  35.086  62.786  1.00  0.00     0.246 C 
HETATM    2  N   UNL     1       4.672  36.245  61.953  1.00  0.00    -0.151 N 
HETATM    3  C   UNL     1       4.135  36.327  60.692  1.00  0.00     0.734 A 
HETATM    4  N   UNL     1       4.507  37.458  60.130  1.00  0.00    -0.060 NA
HETATM    5  C   UNL     1       5.238  38.137  61.072  1.00  0.00     0.103 A 
HETATM    6  C   UNL     1       5.338  37.403  62.250  1.00  0.00     0.083 A 
HETATM    7  C   UNL     1       5.846  39.397  60.990  1.00  0.00     0.034 A 
HETATM    8  C   UNL     1       6.537  39.883  62.106  1.00  0.00     0.002 A 
HETATM    9  C   UNL     1       6.618  39.130  63.280  1.00  0.00     0.002 A 
HETATM   10  C   UNL     1       6.019  37.868  63.381  1.00  0.00     0.033 A 
HETATM   11  N   UNL     1       3.344  35.366  60.165  1.00  0.00    -0.033 NA
HETATM   12  C   UNL     1       3.015  34.365  60.897  1.00  0.00     0.193 C 
HETATM   13  N   UNL     1       3.454  34.169  62.206  1.00  0.00    -0.338 N 
HETATM   14  H   UNL     1       3.117  33.414  62.784  1.00  0.00     0.164 HD
ENDROOT
BRANCH   1  15
HETATM   15  C   UNL     1       5.674  34.260  63.107  1.00  0.00     0.020 A 
HETATM   16  C   UNL     1       6.090  34.153  64.456  1.00  0.00     0.078 A 
HETATM   17  C   UNL     1       7.234  33.418  64.785  1.00  0.00     0.039 A 
HETATM   18  C   UNL     1       7.966  32.768  63.790  1.00  0.00     0.022 A 
HETATM   19  C   UNL     1       7.549  32.841  62.468  1.00  0.00     0.011 A 
HETATM   20  C   UNL     1       6.410  33.569  62.122  1.00  0.00     0.033 A 
HETATM   21 BR   UNL     1       8.533  31.949  61.124  1.00  0.00    -0.051 Br
BRANCH  16  22
HETATM   22  O   UNL     1       5.286  34.789  65.372  1.00  0.00    -0.355 OA
HETATM   23  C   UNL     1       4.637  33.975  66.347  1.00  0.00     0.210 C 
ENDBRANCH  16  22
ENDBRANCH   1  15
BRANCH  12  24
HETATM   24  N   UNL     1       2.194  33.383  60.473  1.00  0.00    -0.272 NA
HETATM   25  H   UNL     1       1.392  33.766  59.979  1.00  0.00     0.127 HD
HETATM   26  H   UNL     1       2.625  32.631  59.950  1.00  0.00     0.127 HD
ENDBRANCH  12  24
TORSDOF 3
ENDMDL
MODEL 5
REMARK VINA RESULT:      -7.3      8.115     10.674
REMARK  3 active torsions:
REMARK  status: ('A' for Active; 'I' for Inactive)
REMARK    1  A    between atoms: O_2  and  C_3 
REMARK    2  A    between atoms: C_4  and  C_5 
REMARK    3  A    between atoms: C_16  and  N_17 
ROOT
HETATM    1  C   UNL     1       7.618  28.046  54.718  1.00  0.00     0.246 C 
HETATM    2  N   UNL     1       7.229  26.657  54.838  1.00  0.00    -0.151 N 
HETATM    3  C   UNL     1       6.290  26.114  53.997  1.00  0.00     0.734 A 
HETATM    4  N   UNL     1       6.096  24.852  54.314  1.00  0.00    -0.060 NA
HETATM    5  C   UNL     1       6.972  24.567  55.329  1.00  0.00     0.103 A 
HETATM    6  C   UNL     1       7.725  25.687  55.668  1.00  0.00     0.083 A 
HETATM    7  C   UNL     1       7.183  23.361  56.013  1.00  0.00     0.034 A 
HETATM    8  C   UNL     1       8.156  23.321  57.018  1.00  0.00     0.002 A 
HETATM    9  C   UNL     1       8.904  24.459  57.335  1.00  0.00     0.002 A 
HETATM   10  C   UNL     1       8.706  25.672  56.665  1.00  0.00     0.033 A 
HETATM   11  N   UNL     1       5.697  26.816  53.006  1.00  0.00    -0.033 NA
HETATM   12  C   UNL     1       6.079  28.022  52.788  1.00  0.00     0.193 C 
HETATM   13  N   UNL     1       7.047  28.690  53.537  1.00  0.00    -0.338 N 
HETATM   14  H   UNL     1       7.382  29.610  53.295  1.00  0.00     0.164 HD
ENDROOT
BRANCH   1  15
HETATM   15  C   UNL     1       7.253  28.918  55.915  1.00  0.00     0.020 A 
HETATM   16  C   UNL     1       8.293  29.392  56.752  1.00  0.00     0.078 A 
HETATM   17  C   UNL     1       7.994  30.181  57.869  1.00  0.00     0.039 A 
HETATM   18  C   UNL     1       6.673  30.523  58.159  1.00  0.00     0.022 A 
HETATM   19  C   UNL     1       5.649  30.090  57.326  1.00  0.00     0.011 A 
HETATM   20  C   UNL     1       5.929  29.304  56.208  1.00  0.00     0.033 A 
HETATM   21 BR   UNL     1       3.862  30.566  57.712  1.00  0.00    -0.051 Br
BRANCH  16  22
HETATM   22  O   UNL     1       9.564  29.041  56.368  1.00  0.00    -0.355 OA
HETATM   23  C   UNL     1      10.642  29.818  56.891  1.00  0.00     0.210 C 
ENDBRANCH  16  22
ENDBRANCH   1  15
BRANCH  12  24
HETATM   24  N   UNL     1       5.577  28.783  51.794  1.00  0.00    -0.272 NA
HETATM   25  H   UNL     1       5.885  28.445  50.885  1.00  0.00     0.127 HD
HETATM   26  H   UNL     1       4.578  28.942  51.808  1.00  0.00     0.127 HD
ENDBRANCH  12  24
TORSDOF 3
ENDMDL
MODEL 6
REMARK VINA RESULT:      -7.2      2.821      5.727
REMARK  3 active torsions:
REMARK  status: ('A' for Active; 'I' for Inactive)
REMARK    1  A    between atoms: O_2  and  C_3 
REMARK    2  A    between atoms: C_4  and  C_5 
REMARK    3  A    between atoms: C_16  and  N_17 
ROOT
HETATM    1  C   UNL     1       3.557  33.693  61.191  1.00  0.00     0.246 C 
HETATM    2  N   UNL     1       4.533  33.484  62.240  1.00  0.00    -0.151 N 
HETATM    3  C   UNL     1       4.179  33.591  63.562  1.00  0.00     0.734 A 
HETATM    4  N   UNL     1       5.234  33.376  64.317  1.00  0.00    -0.060 NA
HETATM    5  C   UNL     1       6.263  33.063  63.466  1.00  0.00     0.103 A 
HETATM    6  C   UNL     1       5.843  33.098  62.140  1.00  0.00     0.083 A 
HETATM    7  C   UNL     1       7.593  32.731  63.760  1.00  0.00     0.034 A 
HETATM    8  C   UNL     1       8.461  32.438  62.702  1.00  0.00     0.002 A 
HETATM    9  C   UNL     1       8.013  32.473  61.379  1.00  0.00     0.002 A 
HETATM   10  C   UNL     1       6.689  32.805  61.066  1.00  0.00     0.033 A 
HETATM   11  N   UNL     1       2.918  33.867  63.965  1.00  0.00    -0.033 NA
HETATM   12  C   UNL     1       1.992  33.960  63.082  1.00  0.00     0.193 C 
HETATM   13  N   UNL     1       2.199  33.838  61.708  1.00  0.00    -0.338 N 
HETATM   14  H   UNL     1       1.440  33.839  61.043  1.00  0.00     0.164 HD
ENDROOT
BRANCH   1  15
HETATM   15  C   UNL     1       3.823  34.906  60.304  1.00  0.00     0.020 A 
HETATM   16  C   UNL     1       3.662  34.770  58.903  1.00  0.00     0.078 A 
HETATM   17  C   UNL     1       3.912  35.856  58.057  1.00  0.00     0.039 A 
HETATM   18  C   UNL     1       4.305  37.087  58.585  1.00  0.00     0.022 A 
HETATM   19  C   UNL     1       4.435  37.239  59.959  1.00  0.00     0.011 A 
HETATM   20  C   UNL     1       4.188  36.167  60.817  1.00  0.00     0.033 A 
HETATM   21 BR   UNL     1       4.953  38.910  60.673  1.00  0.00    -0.051 Br
BRANCH  16  22
HETATM   22  O   UNL     1       3.233  33.537  58.476  1.00  0.00    -0.355 OA
HETATM   23  C   UNL     1       3.360  33.247  57.085  1.00  0.00     0.210 C 
ENDBRANCH  16  22
ENDBRANCH   1  15
BRANCH  12  24
HETATM   24  N   UNL     1       0.700  34.187  63.393  1.00  0.00    -0.272 NA
HETATM   25  H   UNL     1       0.294  34.889  62.778  1.00  0.00     0.127 HD
HETATM   26  H   UNL     1       0.104  33.373  63.465  1.00  0.00     0.127 HD
ENDBRANCH  12  24
TORSDOF 3
ENDMDL
MODEL 7
REMARK VINA RESULT:      -7.2      3.188      5.751
REMARK  3 active torsions:
REMARK  status: ('A' for Active; 'I' for Inactive)
REMARK    1  A    between atoms: O_2  and  C_3 
REMARK    2  A    between atoms: C_4  and  C_5 
REMARK    3  A    between atoms: C_16  and  N_17 
ROOT
HETATM    1  C   UNL     1       5.192  33.927  63.495  1.00  0.00     0.246 C 
HETATM    2  N   UNL     1       6.297  33.272  62.828  1.00  0.00    -0.151 N 
HETATM    3  C   UNL     1       7.454  32.979  63.507  1.00  0.00     0.734 A 
HETATM    4  N   UNL     1       8.309  32.405  62.687  1.00  0.00    -0.060 NA
HETATM    5  C   UNL     1       7.663  32.269  61.485  1.00  0.00     0.103 A 
HETATM    6  C   UNL     1       6.373  32.787  61.549  1.00  0.00     0.083 A 
HETATM    7  C   UNL     1       8.121  31.704  60.286  1.00  0.00     0.034 A 
HETATM    8  C   UNL     1       7.256  31.674  59.186  1.00  0.00     0.002 A 
HETATM    9  C   UNL     1       5.963  32.195  59.278  1.00  0.00     0.002 A 
HETATM   10  C   UNL     1       5.489  32.766  60.466  1.00  0.00     0.033 A 
HETATM   11  N   UNL     1       7.627  33.254  64.818  1.00  0.00    -0.033 NA
HETATM   12  C   UNL     1       6.643  33.741  65.483  1.00  0.00     0.193 C 
HETATM   13  N   UNL     1       5.399  34.054  64.935  1.00  0.00    -0.338 N 
HETATM   14  H   UNL     1       4.621  34.363  65.497  1.00  0.00     0.164 HD
ENDROOT
BRANCH   1  15
HETATM   15  C   UNL     1       4.867  35.324  62.972  1.00  0.00     0.020 A 
HETATM   16  C   UNL     1       3.649  35.523  62.278  1.00  0.00     0.078 A 
HETATM   17  C   UNL     1       3.326  36.786  61.770  1.00  0.00     0.039 A 
HETATM   18  C   UNL     1       4.191  37.865  61.957  1.00  0.00     0.022 A 
HETATM   19  C   UNL     1       5.373  37.687  62.665  1.00  0.00     0.011 A 
HETATM   20  C   UNL     1       5.711  36.435  63.178  1.00  0.00     0.033 A 
HETATM   21 BR   UNL     1       6.537  39.152  62.930  1.00  0.00    -0.051 Br
BRANCH  16  22
HETATM   22  O   UNL     1       2.841  34.417  62.176  1.00  0.00    -0.355 OA
HETATM   23  C   UNL     1       1.442  34.643  62.015  1.00  0.00     0.210 C 
ENDBRANCH  16  22
ENDBRANCH   1  15
BRANCH  12  24
HETATM   24  N   UNL     1       6.707  34.005  66.804  1.00  0.00    -0.272 NA
HETATM   25  H   UNL     1       6.740  33.144  67.347  1.00  0.00     0.127 HD
HETATM   26  H   UNL     1       7.426  34.653  67.100  1.00  0.00     0.127 HD
ENDBRANCH  12  24
TORSDOF 3
ENDMDL
MODEL 8
REMARK VINA RESULT:      -7.1      3.245      4.909
REMARK  3 active torsions:
REMARK  status: ('A' for Active; 'I' for Inactive)
REMARK    1  A    between atoms: O_2  and  C_3 
REMARK    2  A    between atoms: C_4  and  C_5 
REMARK    3  A    between atoms: C_16  and  N_17 
ROOT
HETATM    1  C   UNL     1       5.594  33.561  61.539  1.00  0.00     0.246 C 
HETATM    2  N   UNL     1       5.317  34.416  62.673  1.00  0.00    -0.151 N 
HETATM    3  C   UNL     1       4.823  33.895  63.843  1.00  0.00     0.734 A 
HETATM    4  N   UNL     1       4.639  34.867  64.711  1.00  0.00    -0.060 NA
HETATM    5  C   UNL     1       5.084  36.016  64.109  1.00  0.00     0.103 A 
HETATM    6  C   UNL     1       5.545  35.759  62.822  1.00  0.00     0.083 A 
HETATM    7  C   UNL     1       5.127  37.325  64.609  1.00  0.00     0.034 A 
HETATM    8  C   UNL     1       5.642  38.338  63.792  1.00  0.00     0.002 A 
HETATM    9  C   UNL     1       6.106  38.053  62.505  1.00  0.00     0.002 A 
HETATM   10  C   UNL     1       6.068  36.752  61.988  1.00  0.00     0.033 A 
HETATM   11  N   UNL     1       4.592  32.576  64.021  1.00  0.00    -0.033 NA
HETATM   12  C   UNL     1       4.916  31.759  63.085  1.00  0.00     0.193 C 
HETATM   13  N   UNL     1       5.460  32.142  61.859  1.00  0.00    -0.338 N 
HETATM   14  H   UNL     1       5.778  31.473  61.174  1.00  0.00     0.164 HD
ENDROOT
BRANCH   1  15
HETATM   15  C   UNL     1       4.723  33.820  60.314  1.00  0.00     0.020 A 
HETATM   16  C   UNL     1       5.172  33.361  59.051  1.00  0.00     0.078 A 
HETATM   17  C   UNL     1       4.406  33.596  57.904  1.00  0.00     0.039 A 
HETATM   18  C   UNL     1       3.186  34.267  57.993  1.00  0.00     0.022 A 
HETATM   19  C   UNL     1       2.722  34.693  59.231  1.00  0.00     0.011 A 
HETATM   20  C   UNL     1       3.472  34.467  60.386  1.00  0.00     0.033 A 
HETATM   21 BR   UNL     1       1.063  35.589  59.353  1.00  0.00    -0.051 Br
BRANCH  16  22
HETATM   22  O   UNL     1       6.362  32.675  59.063  1.00  0.00    -0.355 OA
HETATM   23  C   UNL     1       6.397  31.418  58.389  1.00  0.00     0.210 C 
ENDBRANCH  16  22
ENDBRANCH   1  15
BRANCH  12  24
HETATM   24  N   UNL     1       4.765  30.424  63.190  1.00  0.00    -0.272 NA
HETATM   25  H   UNL     1       4.390  30.169  64.102  1.00  0.00     0.127 HD
HETATM   26  H   UNL     1       4.257  29.967  62.444  1.00  0.00     0.127 HD
ENDBRANCH  12  24
TORSDOF 3
ENDMDL
MODEL 9
REMARK VINA RESULT:      -7.0      7.453      9.452
REMARK  3 active torsions:
REMARK  status: ('A' for Active; 'I' for Inactive)
REMARK    1  A    between atoms: O_2  and  C_3 
REMARK    2  A    between atoms: C_4  and  C_5 
REMARK    3  A    between atoms: C_16  and  N_17 
ROOT
HETATM    1  C   UNL     1       8.058  29.145  55.556  1.00  0.00     0.246 C 
HETATM    2  N   UNL     1       7.279  29.777  56.599  1.00  0.00    -0.151 N 
HETATM    3  C   UNL     1       7.888  30.298  57.714  1.00  0.00     0.734 A 
HETATM    4  N   UNL     1       6.975  30.798  58.518  1.00  0.00    -0.060 NA
HETATM    5  C   UNL     1       5.771  30.654  57.877  1.00  0.00     0.103 A 
HETATM    6  C   UNL     1       5.934  30.031  56.644  1.00  0.00     0.083 A 
HETATM    7  C   UNL     1       4.488  31.039  58.292  1.00  0.00     0.034 A 
HETATM    8  C   UNL     1       3.405  30.787  57.442  1.00  0.00     0.002 A 
HETATM    9  C   UNL     1       3.596  30.167  56.205  1.00  0.00     0.002 A 
HETATM   10  C   UNL     1       4.869  29.772  55.775  1.00  0.00     0.033 A 
HETATM   11  N   UNL     1       9.227  30.279  57.897  1.00  0.00    -0.033 NA
HETATM   12  C   UNL     1       9.973  29.824  56.957  1.00  0.00     0.193 C 
HETATM   13  N   UNL     1       9.497  29.298  55.757  1.00  0.00    -0.338 N 
HETATM   14  H   UNL     1      10.108  29.019  55.005  1.00  0.00     0.164 HD
ENDROOT
BRANCH   1  15
HETATM   15  C   UNL     1       7.794  27.653  55.376  1.00  0.00     0.020 A 
HETATM   16  C   UNL     1       7.155  27.214  54.190  1.00  0.00     0.078 A 
HETATM   17  C   UNL     1       6.883  25.855  53.998  1.00  0.00     0.039 A 
HETATM   18  C   UNL     1       7.253  24.917  54.964  1.00  0.00     0.022 A 
HETATM   19  C   UNL     1       7.908  25.334  56.115  1.00  0.00     0.011 A 
HETATM   20  C   UNL     1       8.189  26.685  56.322  1.00  0.00     0.033 A 
HETATM   21 BR   UNL     1       8.421  24.062  57.414  1.00  0.00    -0.051 Br
BRANCH  16  22
HETATM   22  O   UNL     1       6.865  28.200  53.278  1.00  0.00    -0.355 OA
HETATM   23  C   UNL     1       5.736  27.992  52.430  1.00  0.00     0.210 C 
ENDBRANCH  16  22
ENDBRANCH   1  15
BRANCH  12  24
HETATM   24  N   UNL     1      11.320  29.807  57.031  1.00  0.00    -0.272 NA
HETATM   25  H   UNL     1      11.666  30.604  57.561  1.00  0.00     0.127 HD
HETATM   26  H   UNL     1      11.743  28.944  57.346  1.00  0.00     0.127 HD
ENDBRANCH  12  24
TORSDOF 3
ENDMDL
MODEL 10
REMARK VINA RESULT:      -6.9      6.001      8.631
REMARK  3 active torsions:
REMARK  status: ('A' for Active; 'I' for Inactive)
REMARK    1  A    between atoms: O_2  and  C_3 
REMARK    2  A    between atoms: C_4  and  C_5 
REMARK    3  A    between atoms: C_16  and  N_17 
ROOT
HETATM    1  C   UNL     1       6.927  29.868  56.437  1.00  0.00     0.246 C 
HETATM    2  N   UNL     1       6.320  28.562  56.580  1.00  0.00    -0.151 N 
HETATM    3  C   UNL     1       4.967  28.392  56.412  1.00  0.00     0.734 A 
HETATM    4  N   UNL     1       4.657  27.129  56.610  1.00  0.00    -0.060 NA
HETATM    5  C   UNL     1       5.837  26.470  56.842  1.00  0.00     0.103 A 
HETATM    6  C   UNL     1       6.915  27.349  56.805  1.00  0.00     0.083 A 
HETATM    7  C   UNL     1       6.064  25.110  57.091  1.00  0.00     0.034 A 
HETATM    8  C   UNL     1       7.379  24.675  57.291  1.00  0.00     0.002 A 
HETATM    9  C   UNL     1       8.446  25.576  57.241  1.00  0.00     0.002 A 
HETATM   10  C   UNL     1       8.239  26.939  56.997  1.00  0.00     0.033 A 
HETATM   11  N   UNL     1       4.135  29.405  56.084  1.00  0.00    -0.033 NA
HETATM   12  C   UNL     1       4.633  30.563  55.844  1.00  0.00     0.193 C 
HETATM   13  N   UNL     1       5.990  30.872  55.939  1.00  0.00    -0.338 N 
HETATM   14  H   UNL     1       6.362  31.770  55.669  1.00  0.00     0.164 HD
ENDROOT
BRANCH   1  15
HETATM   15  C   UNL     1       7.539  30.432  57.716  1.00  0.00     0.020 A 
HETATM   16  C   UNL     1       8.942  30.357  57.888  1.00  0.00     0.078 A 
HETATM   17  C   UNL     1       9.537  30.849  59.055  1.00  0.00     0.039 A 
HETATM   18  C   UNL     1       8.756  31.436  60.052  1.00  0.00     0.022 A 
HETATM   19  C   UNL     1       7.382  31.543  59.879  1.00  0.00     0.011 A 
HETATM   20  C   UNL     1       6.773  31.058  58.721  1.00  0.00     0.033 A 
HETATM   21 BR   UNL     1       6.328  32.350  61.223  1.00  0.00    -0.051 Br
BRANCH  16  22
HETATM   22  O   UNL     1       9.635  29.802  56.839  1.00  0.00    -0.355 OA
HETATM   23  C   UNL     1      11.053  29.706  56.972  1.00  0.00     0.210 C 
ENDBRANCH  16  22
ENDBRANCH   1  15
BRANCH  12  24
HETATM   24  N   UNL     1       3.887  31.620  55.466  1.00  0.00    -0.272 NA
HETATM   25  H   UNL     1       4.279  32.068  54.640  1.00  0.00     0.127 HD
HETATM   26  H   UNL     1       2.894  31.455  55.358  1.00  0.00     0.127 HD
ENDBRANCH  12  24
TORSDOF 3
ENDMDL
