MODEL 1
REMARK VINA RESULT:     -10.1      0.000      0.000
REMARK  2 active torsions:
REMARK  status: ('A' for Active; 'I' for Inactive)
REMARK    1  A    between atoms: C_11  and  C_12 
REMARK    2  A    between atoms: C_12  and  C_13 
ROOT
HETATM    1  C   UNL     1       8.476  21.064  53.364  1.00  0.00     0.051 C 
HETATM    2  C   UNL     1       8.262  22.133  54.408  1.00  0.00    -0.031 A 
HETATM    3  C   UNL     1       8.537  21.873  55.758  1.00  0.00     0.038 A 
HETATM    4  C   UNL     1       9.064  20.542  56.220  1.00  0.00     0.071 C 
HETATM    5  N   UNL     1       8.368  22.769  56.745  1.00  0.00    -0.245 NA
HETATM    6  C   UNL     1       7.907  23.973  56.367  1.00  0.00     0.111 A 
HETATM    7  C   UNL     1       7.598  24.390  55.077  1.00  0.00     0.034 A 
HETATM    8  C   UNL     1       7.839  23.440  54.032  1.00  0.00    -0.039 A 
HETATM    9  C   UNL     1       7.648  23.785  52.575  1.00  0.00     0.050 C 
HETATM   10  S   UNL     1       7.677  25.172  57.543  1.00  0.00    -0.063 SA
HETATM   11  C   UNL     1       7.105  26.301  56.391  1.00  0.00     0.085 A 
HETATM   12  C   UNL     1       7.102  25.757  55.115  1.00  0.00     0.061 A 
HETATM   13  N   UNL     1       6.698  26.437  54.016  1.00  0.00    -0.397 N 
HETATM   14  H   UNL     1       6.384  27.404  54.024  1.00  0.00     0.156 HD
HETATM   15  H   UNL     1       6.517  25.983  53.128  1.00  0.00     0.156 HD
ENDROOT
BRANCH  11  16
HETATM   16  C   UNL     1       6.743  27.619  56.889  1.00  0.00     0.201 C 
HETATM   17  O   UNL     1       5.581  27.967  57.105  1.00  0.00    -0.286 OA
BRANCH  16  18
HETATM   18  C   UNL     1       7.795  28.638  57.165  1.00  0.00     0.018 A 
HETATM   19  C   UNL     1       7.730  29.483  58.282  1.00  0.00     0.055 A 
HETATM   20  C   UNL     1       8.758  30.387  58.458  1.00  0.00     0.106 A 
HETATM   21  C   UNL     1       9.823  30.461  57.588  1.00  0.00     0.105 A 
HETATM   22  O   UNL     1       8.857  31.290  59.471  1.00  0.00    -0.323 OA
HETATM   23  O   UNL     1      10.721  31.417  57.947  1.00  0.00    -0.323 OA
HETATM   24  C   UNL     1       9.926  29.633  56.493  1.00  0.00     0.040 A 
HETATM   25  C   UNL     1      10.112  31.926  59.151  1.00  0.00     0.352 A 
HETATM   26  C   UNL     1       8.900  28.708  56.284  1.00  0.00     0.018 A 
ENDBRANCH  16  18
ENDBRANCH  11  16
TORSDOF 2
ENDMDL
MODEL 2
REMARK VINA RESULT:      -9.7      1.561      2.333
REMARK  2 active torsions:
REMARK  status: ('A' for Active; 'I' for Inactive)
REMARK    1  A    between atoms: C_11  and  C_12 
REMARK    2  A    between atoms: C_12  and  C_13 
ROOT
HETATM    1  C   UNL     1       8.862  19.776  55.339  1.00  0.00     0.051 C 
HETATM    2  C   UNL     1       8.333  21.149  55.003  1.00  0.00    -0.031 A 
HETATM    3  C   UNL     1       8.021  21.486  53.678  1.00  0.00     0.038 A 
HETATM    4  C   UNL     1       8.182  20.505  52.549  1.00  0.00     0.071 C 
HETATM    5  N   UNL     1       7.550  22.686  53.299  1.00  0.00    -0.245 NA
HETATM    6  C   UNL     1       7.385  23.585  54.284  1.00  0.00     0.111 A 
HETATM    7  C   UNL     1       7.636  23.405  55.640  1.00  0.00     0.034 A 
HETATM    8  C   UNL     1       8.081  22.101  56.032  1.00  0.00    -0.039 A 
HETATM    9  C   UNL     1       8.296  21.728  57.478  1.00  0.00     0.050 C 
HETATM   10  S   UNL     1       6.781  25.122  53.903  1.00  0.00    -0.063 SA
HETATM   11  C   UNL     1       6.869  25.646  55.529  1.00  0.00     0.085 A 
HETATM   12  C   UNL     1       7.350  24.640  56.354  1.00  0.00     0.061 A 
HETATM   13  N   UNL     1       7.517  24.788  57.690  1.00  0.00    -0.397 N 
HETATM   14  H   UNL     1       7.287  25.633  58.205  1.00  0.00     0.156 HD
HETATM   15  H   UNL     1       8.042  24.127  58.251  1.00  0.00     0.156 HD
ENDROOT
BRANCH  11  16
HETATM   16  C   UNL     1       6.424  27.003  55.805  1.00  0.00     0.201 C 
HETATM   17  O   UNL     1       5.277  27.398  55.593  1.00  0.00    -0.286 OA
BRANCH  16  18
HETATM   18  C   UNL     1       7.369  28.007  56.373  1.00  0.00     0.018 A 
HETATM   19  C   UNL     1       7.315  28.394  57.719  1.00  0.00     0.055 A 
HETATM   20  C   UNL     1       8.240  29.322  58.153  1.00  0.00     0.106 A 
HETATM   21  C   UNL     1       9.196  29.849  57.314  1.00  0.00     0.105 A 
HETATM   22  O   UNL     1       8.330  29.822  59.415  1.00  0.00    -0.323 OA
HETATM   23  O   UNL     1      10.004  30.742  57.944  1.00  0.00    -0.323 OA
HETATM   24  C   UNL     1       9.288  29.476  55.992  1.00  0.00     0.040 A 
HETATM   25  C   UNL     1       9.461  30.708  59.280  1.00  0.00     0.352 A 
HETATM   26  C   UNL     1       8.364  28.539  55.520  1.00  0.00     0.018 A 
ENDBRANCH  16  18
ENDBRANCH  11  16
TORSDOF 2
ENDMDL
MODEL 3
REMARK VINA RESULT:      -8.9      4.724      7.747
REMARK  2 active torsions:
REMARK  status: ('A' for Active; 'I' for Inactive)
REMARK    1  A    between atoms: C_11  and  C_12 
REMARK    2  A    between atoms: C_12  and  C_13 
ROOT
HETATM    1  C   UNL     1       4.408  28.763  47.752  1.00  0.00     0.051 C 
HETATM    2  C   UNL     1       4.866  28.507  49.167  1.00  0.00    -0.031 A 
HETATM    3  C   UNL     1       5.507  29.516  49.900  1.00  0.00     0.038 A 
HETATM    4  C   UNL     1       5.751  30.885  49.324  1.00  0.00     0.071 C 
HETATM    5  N   UNL     1       5.948  29.365  51.160  1.00  0.00    -0.245 NA
HETATM    6  C   UNL     1       5.738  28.157  51.710  1.00  0.00     0.111 A 
HETATM    7  C   UNL     1       5.113  27.062  51.124  1.00  0.00     0.034 A 
HETATM    8  C   UNL     1       4.599  27.261  49.802  1.00  0.00    -0.039 A 
HETATM    9  C   UNL     1       3.808  26.197  49.080  1.00  0.00     0.050 C 
HETATM   10  S   UNL     1       6.247  27.878  53.303  1.00  0.00    -0.063 SA
HETATM   11  C   UNL     1       5.698  26.257  53.277  1.00  0.00     0.085 A 
HETATM   12  C   UNL     1       5.122  25.944  52.055  1.00  0.00     0.061 A 
HETATM   13  N   UNL     1       4.604  24.726  51.766  1.00  0.00    -0.397 N 
HETATM   14  H   UNL     1       4.572  23.948  52.420  1.00  0.00     0.156 HD
HETATM   15  H   UNL     1       4.362  24.444  50.823  1.00  0.00     0.156 HD
ENDROOT
BRANCH  11  16
HETATM   16  C   UNL     1       5.884  25.483  54.494  1.00  0.00     0.201 C 
HETATM   17  O   UNL     1       5.312  25.736  55.554  1.00  0.00    -0.286 OA
BRANCH  16  18
HETATM   18  C   UNL     1       6.809  24.314  54.511  1.00  0.00     0.018 A 
HETATM   19  C   UNL     1       7.005  23.543  55.666  1.00  0.00     0.055 A 
HETATM   20  C   UNL     1       7.873  22.474  55.579  1.00  0.00     0.106 A 
HETATM   21  C   UNL     1       8.521  22.151  54.408  1.00  0.00     0.105 A 
HETATM   22  O   UNL     1       8.194  21.628  56.595  1.00  0.00    -0.323 OA
HETATM   23  O   UNL     1       9.326  21.064  54.543  1.00  0.00    -0.323 OA
HETATM   24  C   UNL     1       8.336  22.875  53.252  1.00  0.00     0.040 A 
HETATM   25  C   UNL     1       9.101  20.727  55.927  1.00  0.00     0.352 A 
HETATM   26  C   UNL     1       7.465  23.967  53.306  1.00  0.00     0.018 A 
ENDBRANCH  16  18
ENDBRANCH  11  16
TORSDOF 2
ENDMDL
MODEL 4
REMARK VINA RESULT:      -8.9      2.177      3.129
REMARK  2 active torsions:
REMARK  status: ('A' for Active; 'I' for Inactive)
REMARK    1  A    between atoms: C_11  and  C_12 
REMARK    2  A    between atoms: C_12  and  C_13 
ROOT
HETATM    1  C   UNL     1       7.667  21.575  52.997  1.00  0.00     0.051 C 
HETATM    2  C   UNL     1       7.692  22.559  54.141  1.00  0.00    -0.031 A 
HETATM    3  C   UNL     1       7.736  22.107  55.467  1.00  0.00     0.038 A 
HETATM    4  C   UNL     1       7.775  20.641  55.806  1.00  0.00     0.071 C 
HETATM    5  N   UNL     1       7.756  22.918  56.538  1.00  0.00    -0.245 NA
HETATM    6  C   UNL     1       7.732  24.235  56.271  1.00  0.00     0.111 A 
HETATM    7  C   UNL     1       7.698  24.841  55.021  1.00  0.00     0.034 A 
HETATM    8  C   UNL     1       7.736  23.961  53.891  1.00  0.00    -0.039 A 
HETATM    9  C   UNL     1       7.808  24.476  52.474  1.00  0.00     0.050 C 
HETATM   10  S   UNL     1       7.770  25.336  57.560  1.00  0.00    -0.063 SA
HETATM   11  C   UNL     1       7.695  26.686  56.510  1.00  0.00     0.085 A 
HETATM   12  C   UNL     1       7.651  26.286  55.183  1.00  0.00     0.061 A 
HETATM   13  N   UNL     1       7.590  27.155  54.145  1.00  0.00    -0.397 N 
HETATM   14  H   UNL     1       7.593  28.166  54.244  1.00  0.00     0.156 HD
HETATM   15  H   UNL     1       7.367  26.862  53.200  1.00  0.00     0.156 HD
ENDROOT
BRANCH  11  16
HETATM   16  C   UNL     1       7.712  28.001  57.132  1.00  0.00     0.201 C 
HETATM   17  O   UNL     1       8.714  28.495  57.649  1.00  0.00    -0.286 OA
BRANCH  16  18
HETATM   18  C   UNL     1       6.475  28.832  57.174  1.00  0.00     0.018 A 
HETATM   19  C   UNL     1       6.459  30.104  57.764  1.00  0.00     0.055 A 
HETATM   20  C   UNL     1       5.268  30.802  57.744  1.00  0.00     0.106 A 
HETATM   21  C   UNL     1       4.132  30.291  57.157  1.00  0.00     0.105 A 
HETATM   22  O   UNL     1       5.063  32.036  58.276  1.00  0.00    -0.323 OA
HETATM   23  O   UNL     1       3.075  31.141  57.248  1.00  0.00    -0.323 OA
HETATM   24  C   UNL     1       4.119  29.054  56.553  1.00  0.00     0.040 A 
HETATM   25  C   UNL     1       3.676  32.253  57.943  1.00  0.00     0.352 A 
HETATM   26  C   UNL     1       5.308  28.320  56.558  1.00  0.00     0.018 A 
ENDBRANCH  16  18
ENDBRANCH  11  16
TORSDOF 2
ENDMDL
MODEL 5
REMARK VINA RESULT:      -8.9      3.481      7.518
REMARK  2 active torsions:
REMARK  status: ('A' for Active; 'I' for Inactive)
REMARK    1  A    between atoms: C_11  and  C_12 
REMARK    2  A    between atoms: C_12  and  C_13 
ROOT
HETATM    1  C   UNL     1       5.856  31.325  58.434  1.00  0.00     0.051 C 
HETATM    2  C   UNL     1       6.276  30.039  57.765  1.00  0.00    -0.031 A 
HETATM    3  C   UNL     1       7.506  29.444  58.077  1.00  0.00     0.038 A 
HETATM    4  C   UNL     1       8.445  30.043  59.090  1.00  0.00     0.071 C 
HETATM    5  N   UNL     1       7.952  28.304  57.524  1.00  0.00    -0.245 NA
HETATM    6  C   UNL     1       7.135  27.736  56.621  1.00  0.00     0.111 A 
HETATM    7  C   UNL     1       5.886  28.191  56.211  1.00  0.00     0.034 A 
HETATM    8  C   UNL     1       5.403  29.375  56.856  1.00  0.00    -0.039 A 
HETATM    9  C   UNL     1       4.025  29.929  56.588  1.00  0.00     0.050 C 
HETATM   10  S   UNL     1       7.607  26.286  55.880  1.00  0.00    -0.063 SA
HETATM   11  C   UNL     1       6.183  26.215  54.934  1.00  0.00     0.085 A 
HETATM   12  C   UNL     1       5.353  27.295  55.197  1.00  0.00     0.061 A 
HETATM   13  N   UNL     1       4.159  27.482  54.586  1.00  0.00    -0.397 N 
HETATM   14  H   UNL     1       3.759  26.845  53.903  1.00  0.00     0.156 HD
HETATM   15  H   UNL     1       3.651  28.358  54.637  1.00  0.00     0.156 HD
ENDROOT
BRANCH  11  16
HETATM   16  C   UNL     1       6.043  25.072  54.046  1.00  0.00     0.201 C 
HETATM   17  O   UNL     1       5.250  25.036  53.105  1.00  0.00    -0.286 OA
BRANCH  16  18
HETATM   18  C   UNL     1       6.879  23.854  54.246  1.00  0.00     0.018 A 
HETATM   19  C   UNL     1       7.076  23.293  55.516  1.00  0.00     0.055 A 
HETATM   20  C   UNL     1       7.858  22.159  55.597  1.00  0.00     0.106 A 
HETATM   21  C   UNL     1       8.419  21.576  54.483  1.00  0.00     0.105 A 
HETATM   22  O   UNL     1       8.168  21.489  56.740  1.00  0.00    -0.323 OA
HETATM   23  O   UNL     1       9.148  20.470  54.788  1.00  0.00    -0.323 OA
HETATM   24  C   UNL     1       8.229  22.090  53.220  1.00  0.00     0.040 A 
HETATM   25  C   UNL     1       8.970  20.409  56.218  1.00  0.00     0.352 A 
HETATM   26  C   UNL     1       7.444  23.241  53.103  1.00  0.00     0.018 A 
ENDBRANCH  16  18
ENDBRANCH  11  16
TORSDOF 2
ENDMDL
MODEL 6
REMARK VINA RESULT:      -8.7      4.794      7.476
REMARK  2 active torsions:
REMARK  status: ('A' for Active; 'I' for Inactive)
REMARK    1  A    between atoms: C_11  and  C_12 
REMARK    2  A    between atoms: C_12  and  C_13 
ROOT
HETATM    1  C   UNL     1       8.265  21.902  56.598  1.00  0.00     0.051 C 
HETATM    2  C   UNL     1       7.924  22.711  55.371  1.00  0.00    -0.031 A 
HETATM    3  C   UNL     1       8.140  22.184  54.089  1.00  0.00     0.038 A 
HETATM    4  C   UNL     1       8.697  20.802  53.882  1.00  0.00     0.071 C 
HETATM    5  N   UNL     1       7.867  22.843  52.950  1.00  0.00    -0.245 NA
HETATM    6  C   UNL     1       7.359  24.077  53.099  1.00  0.00     0.111 A 
HETATM    7  C   UNL     1       7.079  24.736  54.291  1.00  0.00     0.034 A 
HETATM    8  C   UNL     1       7.321  23.996  55.493  1.00  0.00    -0.039 A 
HETATM    9  C   UNL     1       6.970  24.541  56.856  1.00  0.00     0.050 C 
HETATM   10  S   UNL     1       6.970  24.979  51.717  1.00  0.00    -0.063 SA
HETATM   11  C   UNL     1       6.448  26.320  52.643  1.00  0.00     0.085 A 
HETATM   12  C   UNL     1       6.567  26.066  54.001  1.00  0.00     0.061 A 
HETATM   13  N   UNL     1       6.222  26.961  54.958  1.00  0.00    -0.397 N 
HETATM   14  H   UNL     1       5.829  27.878  54.769  1.00  0.00     0.156 HD
HETATM   15  H   UNL     1       6.485  26.849  55.931  1.00  0.00     0.156 HD
ENDROOT
BRANCH  11  16
HETATM   16  C   UNL     1       5.956  27.473  51.906  1.00  0.00     0.201 C 
HETATM   17  O   UNL     1       6.017  28.627  52.330  1.00  0.00    -0.286 OA
BRANCH  16  18
HETATM   18  C   UNL     1       5.333  27.301  50.562  1.00  0.00     0.018 A 
HETATM   19  C   UNL     1       4.541  26.185  50.252  1.00  0.00     0.055 A 
HETATM   20  C   UNL     1       3.999  26.121  48.984  1.00  0.00     0.106 A 
HETATM   21  C   UNL     1       4.204  27.112  48.051  1.00  0.00     0.105 A 
HETATM   22  O   UNL     1       3.221  25.114  48.505  1.00  0.00    -0.323 OA
HETATM   23  O   UNL     1       3.580  26.850  46.872  1.00  0.00    -0.323 OA
HETATM   24  C   UNL     1       4.959  28.228  48.330  1.00  0.00     0.040 A 
HETATM   25  C   UNL     1       2.944  25.591  47.171  1.00  0.00     0.352 A 
HETATM   26  C   UNL     1       5.526  28.323  49.604  1.00  0.00     0.018 A 
ENDBRANCH  16  18
ENDBRANCH  11  16
TORSDOF 2
ENDMDL
MODEL 7
REMARK VINA RESULT:      -8.5      5.151      9.721
REMARK  2 active torsions:
REMARK  status: ('A' for Active; 'I' for Inactive)
REMARK    1  A    between atoms: C_11  and  C_12 
REMARK    2  A    between atoms: C_12  and  C_13 
ROOT
HETATM    1  C   UNL     1       4.704  33.802  65.100  1.00  0.00     0.051 C 
HETATM    2  C   UNL     1       5.152  33.447  63.703  1.00  0.00    -0.031 A 
HETATM    3  C   UNL     1       4.247  33.495  62.633  1.00  0.00     0.038 A 
HETATM    4  C   UNL     1       2.814  33.912  62.822  1.00  0.00     0.071 C 
HETATM    5  N   UNL     1       4.567  33.191  61.364  1.00  0.00    -0.245 NA
HETATM    6  C   UNL     1       5.843  32.823  61.157  1.00  0.00     0.111 A 
HETATM    7  C   UNL     1       6.858  32.735  62.103  1.00  0.00     0.034 A 
HETATM    8  C   UNL     1       6.513  33.119  63.438  1.00  0.00    -0.039 A 
HETATM    9  C   UNL     1       7.534  33.172  64.548  1.00  0.00     0.050 C 
HETATM   10  S   UNL     1       6.343  32.435  59.584  1.00  0.00    -0.063 SA
HETATM   11  C   UNL     1       7.937  32.081  60.095  1.00  0.00     0.085 A 
HETATM   12  C   UNL     1       8.079  32.270  61.461  1.00  0.00     0.061 A 
HETATM   13  N   UNL     1       9.241  32.063  62.125  1.00  0.00    -0.397 N 
HETATM   14  H   UNL     1      10.109  31.774  61.683  1.00  0.00     0.156 HD
HETATM   15  H   UNL     1       9.291  32.017  63.137  1.00  0.00     0.156 HD
ENDROOT
BRANCH  11  16
HETATM   16  C   UNL     1       8.879  31.673  59.065  1.00  0.00     0.201 C 
HETATM   17  O   UNL     1       9.865  32.338  58.744  1.00  0.00    -0.286 OA
BRANCH  16  18
HETATM   18  C   UNL     1       8.683  30.392  58.326  1.00  0.00     0.018 A 
HETATM   19  C   UNL     1       7.448  29.728  58.314  1.00  0.00     0.055 A 
HETATM   20  C   UNL     1       7.363  28.554  57.593  1.00  0.00     0.106 A 
HETATM   21  C   UNL     1       8.434  28.047  56.893  1.00  0.00     0.105 A 
HETATM   22  O   UNL     1       6.256  27.772  57.479  1.00  0.00    -0.323 OA
HETATM   23  O   UNL     1       8.133  26.886  56.254  1.00  0.00    -0.323 OA
HETATM   24  C   UNL     1       9.654  28.685  56.869  1.00  0.00     0.040 A 
HETATM   25  C   UNL     1       6.746  26.726  56.614  1.00  0.00     0.352 A 
HETATM   26  C   UNL     1       9.776  29.875  57.592  1.00  0.00     0.018 A 
ENDBRANCH  16  18
ENDBRANCH  11  16
TORSDOF 2
ENDMDL
MODEL 8
REMARK VINA RESULT:      -8.5      4.288      5.779
REMARK  2 active torsions:
REMARK  status: ('A' for Active; 'I' for Inactive)
REMARK    1  A    between atoms: C_11  and  C_12 
REMARK    2  A    between atoms: C_12  and  C_13 
ROOT
HETATM    1  C   UNL     1       9.479  21.802  55.365  1.00  0.00     0.051 C 
HETATM    2  C   UNL     1       8.435  22.744  54.816  1.00  0.00    -0.031 A 
HETATM    3  C   UNL     1       7.736  22.426  53.643  1.00  0.00     0.038 A 
HETATM    4  C   UNL     1       7.980  21.142  52.896  1.00  0.00     0.071 C 
HETATM    5  N   UNL     1       6.798  23.212  53.090  1.00  0.00    -0.245 NA
HETATM    6  C   UNL     1       6.548  24.363  53.737  1.00  0.00     0.111 A 
HETATM    7  C   UNL     1       7.143  24.818  54.908  1.00  0.00     0.034 A 
HETATM    8  C   UNL     1       8.098  23.939  55.514  1.00  0.00    -0.039 A 
HETATM    9  C   UNL     1       8.749  24.252  56.839  1.00  0.00     0.050 C 
HETATM   10  S   UNL     1       5.368  25.413  53.121  1.00  0.00    -0.063 SA
HETATM   11  C   UNL     1       5.625  26.557  54.367  1.00  0.00     0.085 A 
HETATM   12  C   UNL     1       6.604  26.125  55.250  1.00  0.00     0.061 A 
HETATM   13  N   UNL     1       7.001  26.840  56.330  1.00  0.00    -0.397 N 
HETATM   14  H   UNL     1       6.607  27.737  56.598  1.00  0.00     0.156 HD
HETATM   15  H   UNL     1       7.838  26.615  56.856  1.00  0.00     0.156 HD
ENDROOT
BRANCH  11  16
HETATM   16  C   UNL     1       4.800  27.755  54.337  1.00  0.00     0.201 C 
HETATM   17  O   UNL     1       4.267  28.238  55.336  1.00  0.00    -0.286 OA
BRANCH  16  18
HETATM   18  C   UNL     1       4.555  28.471  53.052  1.00  0.00     0.018 A 
HETATM   19  C   UNL     1       5.608  28.951  52.261  1.00  0.00     0.055 A 
HETATM   20  C   UNL     1       5.280  29.591  51.083  1.00  0.00     0.106 A 
HETATM   21  C   UNL     1       3.974  29.748  50.676  1.00  0.00     0.105 A 
HETATM   22  O   UNL     1       6.164  30.130  50.200  1.00  0.00    -0.323 OA
HETATM   23  O   UNL     1       3.877  30.404  49.489  1.00  0.00    -0.323 OA
HETATM   24  C   UNL     1       2.918  29.272  51.420  1.00  0.00     0.040 A 
HETATM   25  C   UNL     1       5.268  30.628  49.184  1.00  0.00     0.352 A 
HETATM   26  C   UNL     1       3.216  28.621  52.620  1.00  0.00     0.018 A 
ENDBRANCH  16  18
ENDBRANCH  11  16
TORSDOF 2
ENDMDL
MODEL 9
REMARK VINA RESULT:      -8.4      4.426      9.211
REMARK  2 active torsions:
REMARK  status: ('A' for Active; 'I' for Inactive)
REMARK    1  A    between atoms: C_11  and  C_12 
REMARK    2  A    between atoms: C_12  and  C_13 
ROOT
HETATM    1  C   UNL     1       5.584  34.061  63.749  1.00  0.00     0.051 C 
HETATM    2  C   UNL     1       5.924  33.411  62.431  1.00  0.00    -0.031 A 
HETATM    3  C   UNL     1       5.097  33.593  61.314  1.00  0.00     0.038 A 
HETATM    4  C   UNL     1       3.858  34.446  61.372  1.00  0.00     0.071 C 
HETATM    5  N   UNL     1       5.329  33.045  60.109  1.00  0.00    -0.245 NA
HETATM    6  C   UNL     1       6.433  32.285  60.018  1.00  0.00     0.111 A 
HETATM    7  C   UNL     1       7.355  32.015  61.022  1.00  0.00     0.034 A 
HETATM    8  C   UNL     1       7.122  32.655  62.282  1.00  0.00    -0.039 A 
HETATM    9  C   UNL     1       8.091  32.538  63.434  1.00  0.00     0.050 C 
HETATM   10  S   UNL     1       6.815  31.564  58.532  1.00  0.00    -0.063 SA
HETATM   11  C   UNL     1       8.215  30.812  59.169  1.00  0.00     0.085 A 
HETATM   12  C   UNL     1       8.384  31.124  60.509  1.00  0.00     0.061 A 
HETATM   13  N   UNL     1       9.415  30.661  61.257  1.00  0.00    -0.397 N 
HETATM   14  H   UNL     1      10.159  30.068  60.900  1.00  0.00     0.156 HD
HETATM   15  H   UNL     1       9.431  30.732  62.268  1.00  0.00     0.156 HD
ENDROOT
BRANCH  11  16
HETATM   16  C   UNL     1       9.002  30.008  58.247  1.00  0.00     0.201 C 
HETATM   17  O   UNL     1      10.233  30.039  58.200  1.00  0.00    -0.286 OA
BRANCH  16  18
HETATM   18  C   UNL     1       8.332  29.084  57.287  1.00  0.00     0.018 A 
HETATM   19  C   UNL     1       8.513  29.201  55.902  1.00  0.00     0.055 A 
HETATM   20  C   UNL     1       7.859  28.292  55.095  1.00  0.00     0.106 A 
HETATM   21  C   UNL     1       7.067  27.292  55.613  1.00  0.00     0.105 A 
HETATM   22  O   UNL     1       7.906  28.260  53.736  1.00  0.00    -0.323 OA
HETATM   23  O   UNL     1       6.520  26.510  54.646  1.00  0.00    -0.323 OA
HETATM   24  C   UNL     1       6.884  27.139  56.969  1.00  0.00     0.040 A 
HETATM   25  C   UNL     1       7.070  27.117  53.459  1.00  0.00     0.352 A 
HETATM   26  C   UNL     1       7.531  28.045  57.814  1.00  0.00     0.018 A 
ENDBRANCH  16  18
ENDBRANCH  11  16
TORSDOF 2
ENDMDL
MODEL 10
REMARK VINA RESULT:      -8.3      2.503      3.213
REMARK  2 active torsions:
REMARK  status: ('A' for Active; 'I' for Inactive)
REMARK    1  A    between atoms: C_11  and  C_12 
REMARK    2  A    between atoms: C_12  and  C_13 
ROOT
HETATM    1  C   UNL     1       8.645  22.312  53.623  1.00  0.00     0.051 C 
HETATM    2  C   UNL     1       7.865  23.427  54.274  1.00  0.00    -0.031 A 
HETATM    3  C   UNL     1       7.570  23.383  55.644  1.00  0.00     0.038 A 
HETATM    4  C   UNL     1       8.026  22.246  56.519  1.00  0.00     0.071 C 
HETATM    5  N   UNL     1       6.878  24.333  56.296  1.00  0.00    -0.245 NA
HETATM    6  C   UNL     1       6.463  25.368  55.546  1.00  0.00     0.111 A 
HETATM    7  C   UNL     1       6.680  25.565  54.187  1.00  0.00     0.034 A 
HETATM    8  C   UNL     1       7.469  24.571  53.523  1.00  0.00    -0.039 A 
HETATM    9  C   UNL     1       7.872  24.702  52.075  1.00  0.00     0.050 C 
HETATM   10  S   UNL     1       5.595  26.623  56.285  1.00  0.00    -0.063 SA
HETATM   11  C   UNL     1       5.421  27.475  54.811  1.00  0.00     0.085 A 
HETATM   12  C   UNL     1       6.035  26.800  53.767  1.00  0.00     0.061 A 
HETATM   13  N   UNL     1       6.050  27.256  52.492  1.00  0.00    -0.397 N 
HETATM   14  H   UNL     1       5.635  28.134  52.193  1.00  0.00     0.156 HD
HETATM   15  H   UNL     1       6.328  26.676  51.708  1.00  0.00     0.156 HD
ENDROOT
BRANCH  11  16
HETATM   16  C   UNL     1       4.706  28.740  54.867  1.00  0.00     0.201 C 
HETATM   17  O   UNL     1       3.995  29.159  53.953  1.00  0.00    -0.286 OA
BRANCH  16  18
HETATM   18  C   UNL     1       4.811  29.615  56.071  1.00  0.00     0.018 A 
HETATM   19  C   UNL     1       6.036  30.153  56.489  1.00  0.00     0.055 A 
HETATM   20  C   UNL     1       6.028  30.959  57.609  1.00  0.00     0.106 A 
HETATM   21  C   UNL     1       4.870  31.248  58.294  1.00  0.00     0.105 A 
HETATM   22  O   UNL     1       7.118  31.555  58.165  1.00  0.00    -0.323 OA
HETATM   23  O   UNL     1       5.088  32.060  59.363  1.00  0.00    -0.323 OA
HETATM   24  C   UNL     1       3.648  30.751  57.898  1.00  0.00     0.040 A 
HETATM   25  C   UNL     1       6.512  32.265  59.265  1.00  0.00     0.352 A 
HETATM   26  C   UNL     1       3.621  29.928  56.769  1.00  0.00     0.018 A 
ENDBRANCH  16  18
ENDBRANCH  11  16
TORSDOF 2
ENDMDL
