MODEL 1
REMARK VINA RESULT:      -7.9      0.000      0.000
REMARK  4 active torsions:
REMARK  status: ('A' for Active; 'I' for Inactive)
REMARK    1  A    between atoms: C_7  and  N_8 
REMARK    2  A    between atoms: N_8  and  C_9 
REMARK    3  A    between atoms: C_9  and  C_10 
REMARK    4  A    between atoms: C_11  and  O_12 
ROOT
HETATM    1  N   UNL     1       6.373  25.263  55.708  1.00  0.00    -0.222 N 
HETATM    2  H   UNL     1       6.025  25.915  55.020  1.00  0.00     0.178 HD
ENDROOT
BRANCH   1   3
HETATM    3  C   UNL     1       6.878  24.104  55.267  1.00  0.00     0.679 A 
HETATM    4  N   UNL     1       7.348  23.151  56.054  1.00  0.00    -0.190 N 
HETATM    5  C   UNL     1       7.800  22.089  55.298  1.00  0.00     0.076 A 
HETATM    6  H   UNL     1       7.375  23.179  57.065  1.00  0.00     0.184 HD
HETATM    7  C   UNL     1       7.591  22.456  53.968  1.00  0.00     0.076 A 
HETATM    8  C   UNL     1       8.363  20.872  55.661  1.00  0.00     0.032 A 
HETATM    9  C   UNL     1       7.938  21.636  52.901  1.00  0.00     0.032 A 
HETATM   10  N   UNL     1       7.019  23.709  54.014  1.00  0.00    -0.190 N 
HETATM   11  C   UNL     1       8.510  20.402  53.249  1.00  0.00     0.002 A 
HETATM   12  C   UNL     1       8.716  20.028  54.597  1.00  0.00     0.002 A 
HETATM   13  H   UNL     1       6.773  24.261  53.202  1.00  0.00     0.184 HD
ENDBRANCH   1   3
BRANCH   1  14
HETATM   14  C   UNL     1       6.510  25.697  57.096  1.00  0.00     0.179 C 
BRANCH  14  15
HETATM   15  C   UNL     1       6.555  27.196  57.235  1.00  0.00    -0.006 A 
HETATM   16  C   UNL     1       5.369  27.928  57.067  1.00  0.00     0.073 A 
HETATM   17  C   UNL     1       5.333  29.312  57.219  1.00  0.00     0.038 A 
HETATM   18  C   UNL     1       6.502  29.998  57.548  1.00  0.00     0.022 A 
HETATM   19  C   UNL     1       7.686  29.290  57.730  1.00  0.00     0.011 A 
HETATM   20 BR   UNL     1       9.273  30.215  58.177  1.00  0.00    -0.051 Br
HETATM   21  C   UNL     1       7.718  27.900  57.586  1.00  0.00     0.030 A 
BRANCH  16  22
HETATM   22  O   UNL     1       4.230  27.242  56.752  1.00  0.00    -0.360 OA
HETATM   23  H   UNL     1       3.595  27.324  57.488  1.00  0.00     0.217 HD
ENDBRANCH  16  22
ENDBRANCH  14  15
ENDBRANCH   1  14
TORSDOF 4
ENDMDL
MODEL 2
REMARK VINA RESULT:      -7.9      6.439     10.781
REMARK  4 active torsions:
REMARK  status: ('A' for Active; 'I' for Inactive)
REMARK    1  A    between atoms: C_7  and  N_8 
REMARK    2  A    between atoms: N_8  and  C_9 
REMARK    3  A    between atoms: C_9  and  C_10 
REMARK    4  A    between atoms: C_11  and  O_12 
ROOT
HETATM    1  N   UNL     1       7.756  30.939  61.002  1.00  0.00    -0.222 N 
HETATM    2  H   UNL     1       8.288  30.105  61.203  1.00  0.00     0.178 HD
ENDROOT
BRANCH   1   3
HETATM    3  C   UNL     1       7.255  31.622  62.040  1.00  0.00     0.679 A 
HETATM    4  N   UNL     1       7.992  32.231  62.954  1.00  0.00    -0.190 N 
HETATM    5  C   UNL     1       7.182  32.839  63.890  1.00  0.00     0.076 A 
HETATM    6  H   UNL     1       9.002  32.259  62.975  1.00  0.00     0.184 HD
HETATM    7  C   UNL     1       5.872  32.553  63.501  1.00  0.00     0.076 A 
HETATM    8  C   UNL     1       7.481  33.593  65.017  1.00  0.00     0.032 A 
HETATM    9  C   UNL     1       4.765  32.992  64.216  1.00  0.00     0.032 A 
HETATM   10  N   UNL     1       5.983  31.799  62.352  1.00  0.00    -0.190 N 
HETATM   11  C   UNL     1       5.049  33.755  65.359  1.00  0.00     0.002 A 
HETATM   12  C   UNL     1       6.374  34.050  65.751  1.00  0.00     0.002 A 
HETATM   13  H   UNL     1       5.202  31.409  61.840  1.00  0.00     0.184 HD
ENDBRANCH   1   3
BRANCH   1  14
HETATM   14  C   UNL     1       7.746  31.469  59.641  1.00  0.00     0.179 C 
BRANCH  14  15
HETATM   15  C   UNL     1       8.472  30.580  58.666  1.00  0.00    -0.006 A 
HETATM   16  C   UNL     1       9.715  30.997  58.165  1.00  0.00     0.073 A 
HETATM   17  C   UNL     1      10.456  30.207  57.288  1.00  0.00     0.038 A 
HETATM   18  C   UNL     1       9.957  28.966  56.893  1.00  0.00     0.022 A 
HETATM   19  C   UNL     1       8.732  28.529  57.388  1.00  0.00     0.011 A 
HETATM   20 BR   UNL     1       8.052  26.847  56.857  1.00  0.00    -0.051 Br
HETATM   21  C   UNL     1       7.995  29.320  58.274  1.00  0.00     0.030 A 
BRANCH  16  22
HETATM   22  O   UNL     1      10.194  32.213  58.565  1.00  0.00    -0.360 OA
HETATM   23  H   UNL     1       9.666  32.530  59.321  1.00  0.00     0.217 HD
ENDBRANCH  16  22
ENDBRANCH  14  15
ENDBRANCH   1  14
TORSDOF 4
ENDMDL
MODEL 3
REMARK VINA RESULT:      -7.9      5.742      7.508
REMARK  4 active torsions:
REMARK  status: ('A' for Active; 'I' for Inactive)
REMARK    1  A    between atoms: C_7  and  N_8 
REMARK    2  A    between atoms: N_8  and  C_9 
REMARK    3  A    between atoms: C_9  and  C_10 
REMARK    4  A    between atoms: C_11  and  O_12 
ROOT
HETATM    1  N   UNL     1       6.007  26.088  52.463  1.00  0.00    -0.222 N 
HETATM    2  H   UNL     1       5.464  26.295  53.288  1.00  0.00     0.178 HD
ENDROOT
BRANCH   1   3
HETATM    3  C   UNL     1       5.459  26.366  51.273  1.00  0.00     0.679 A 
HETATM    4  N   UNL     1       5.713  27.461  50.575  1.00  0.00    -0.190 N 
HETATM    5  C   UNL     1       4.991  27.454  49.399  1.00  0.00     0.076 A 
HETATM    6  H   UNL     1       6.344  28.202  50.848  1.00  0.00     0.184 HD
HETATM    7  C   UNL     1       4.249  26.272  49.418  1.00  0.00     0.076 A 
HETATM    8  C   UNL     1       4.926  28.363  48.352  1.00  0.00     0.032 A 
HETATM    9  C   UNL     1       3.381  25.916  48.393  1.00  0.00     0.032 A 
HETATM   10  N   UNL     1       4.581  25.643  50.599  1.00  0.00    -0.190 N 
HETATM   11  C   UNL     1       3.302  26.825  47.326  1.00  0.00     0.002 A 
HETATM   12  C   UNL     1       4.058  28.019  47.304  1.00  0.00     0.002 A 
HETATM   13  H   UNL     1       4.184  24.769  50.919  1.00  0.00     0.184 HD
ENDBRANCH   1   3
BRANCH   1  14
HETATM   14  C   UNL     1       7.411  25.715  52.608  1.00  0.00     0.179 C 
BRANCH  14  15
HETATM   15  C   UNL     1       7.602  24.478  53.445  1.00  0.00    -0.006 A 
HETATM   16  C   UNL     1       7.456  24.573  54.837  1.00  0.00     0.073 A 
HETATM   17  C   UNL     1       7.583  23.461  55.667  1.00  0.00     0.038 A 
HETATM   18  C   UNL     1       7.861  22.214  55.106  1.00  0.00     0.022 A 
HETATM   19  C   UNL     1       7.997  22.096  53.726  1.00  0.00     0.011 A 
HETATM   20 BR   UNL     1       8.372  20.409  52.962  1.00  0.00    -0.051 Br
HETATM   21  C   UNL     1       7.861  23.212  52.896  1.00  0.00     0.030 A 
BRANCH  16  22
HETATM   22  O   UNL     1       7.178  25.799  55.372  1.00  0.00    -0.360 OA
HETATM   23  H   UNL     1       6.780  26.365  54.684  1.00  0.00     0.217 HD
ENDBRANCH  16  22
ENDBRANCH  14  15
ENDBRANCH   1  14
TORSDOF 4
ENDMDL
MODEL 4
REMARK VINA RESULT:      -7.7      1.515      2.158
REMARK  4 active torsions:
REMARK  status: ('A' for Active; 'I' for Inactive)
REMARK    1  A    between atoms: C_7  and  N_8 
REMARK    2  A    between atoms: N_8  and  C_9 
REMARK    3  A    between atoms: C_9  and  C_10 
REMARK    4  A    between atoms: C_11  and  O_12 
ROOT
HETATM    1  N   UNL     1       4.992  25.928  54.320  1.00  0.00    -0.222 N 
HETATM    2  H   UNL     1       4.014  25.679  54.354  1.00  0.00     0.178 HD
ENDROOT
BRANCH   1   3
HETATM    3  C   UNL     1       5.889  24.934  54.364  1.00  0.00     0.679 A 
HETATM    4  N   UNL     1       6.305  24.261  53.305  1.00  0.00    -0.190 N 
HETATM    5  C   UNL     1       7.223  23.302  53.682  1.00  0.00     0.076 A 
HETATM    6  H   UNL     1       6.008  24.417  52.352  1.00  0.00     0.184 HD
HETATM    7  C   UNL     1       7.341  23.415  55.069  1.00  0.00     0.076 A 
HETATM    8  C   UNL     1       7.936  22.368  52.943  1.00  0.00     0.032 A 
HETATM    9  C   UNL     1       8.175  22.596  55.818  1.00  0.00     0.032 A 
HETATM   10  N   UNL     1       6.494  24.440  55.431  1.00  0.00    -0.190 N 
HETATM   11  C   UNL     1       8.904  21.644  55.087  1.00  0.00     0.002 A 
HETATM   12  C   UNL     1       8.789  21.533  53.683  1.00  0.00     0.002 A 
HETATM   13  H   UNL     1       6.333  24.747  56.382  1.00  0.00     0.184 HD
ENDBRANCH   1   3
BRANCH   1  14
HETATM   14  C   UNL     1       5.366  27.304  54.006  1.00  0.00     0.179 C 
BRANCH  14  15
HETATM   15  C   UNL     1       6.043  28.000  55.158  1.00  0.00    -0.006 A 
HETATM   16  C   UNL     1       5.315  28.224  56.336  1.00  0.00     0.073 A 
HETATM   17  C   UNL     1       5.892  28.829  57.451  1.00  0.00     0.038 A 
HETATM   18  C   UNL     1       7.228  29.225  57.404  1.00  0.00     0.022 A 
HETATM   19  C   UNL     1       7.970  29.002  56.248  1.00  0.00     0.011 A 
HETATM   20 BR   UNL     1       9.782  29.535  56.180  1.00  0.00    -0.051 Br
HETATM   21  C   UNL     1       7.392  28.387  55.135  1.00  0.00     0.030 A 
BRANCH  16  22
HETATM   22  O   UNL     1       4.009  27.825  56.370  1.00  0.00    -0.360 OA
HETATM   23  H   UNL     1       3.940  26.926  55.998  1.00  0.00     0.217 HD
ENDBRANCH  16  22
ENDBRANCH  14  15
ENDBRANCH   1  14
TORSDOF 4
ENDMDL
MODEL 5
REMARK VINA RESULT:      -7.6      4.854      6.846
REMARK  4 active torsions:
REMARK  status: ('A' for Active; 'I' for Inactive)
REMARK    1  A    between atoms: C_7  and  N_8 
REMARK    2  A    between atoms: N_8  and  C_9 
REMARK    3  A    between atoms: C_9  and  C_10 
REMARK    4  A    between atoms: C_11  and  O_12 
ROOT
HETATM    1  N   UNL     1       5.120  25.112  54.005  1.00  0.00    -0.222 N 
HETATM    2  H   UNL     1       4.298  24.585  54.262  1.00  0.00     0.178 HD
ENDROOT
BRANCH   1   3
HETATM    3  C   UNL     1       5.090  25.787  52.849  1.00  0.00     0.679 A 
HETATM    4  N   UNL     1       5.357  27.078  52.735  1.00  0.00    -0.190 N 
HETATM    5  C   UNL     1       5.235  27.474  51.418  1.00  0.00     0.076 A 
HETATM    6  H   UNL     1       5.617  27.696  53.491  1.00  0.00     0.184 HD
HETATM    7  C   UNL     1       4.856  26.331  50.713  1.00  0.00     0.076 A 
HETATM    8  C   UNL     1       5.418  28.707  50.807  1.00  0.00     0.032 A 
HETATM    9  C   UNL     1       4.623  26.339  49.343  1.00  0.00     0.032 A 
HETATM   10  N   UNL     1       4.784  25.323  51.650  1.00  0.00    -0.190 N 
HETATM   11  C   UNL     1       4.802  27.578  48.708  1.00  0.00     0.002 A 
HETATM   12  C   UNL     1       5.192  28.734  49.421  1.00  0.00     0.002 A 
HETATM   13  H   UNL     1       4.504  24.370  51.453  1.00  0.00     0.184 HD
ENDBRANCH   1   3
BRANCH   1  14
HETATM   14  C   UNL     1       6.188  25.289  54.985  1.00  0.00     0.179 C 
BRANCH  14  15
HETATM   15  C   UNL     1       7.010  24.043  55.183  1.00  0.00    -0.006 A 
HETATM   16  C   UNL     1       7.558  23.786  56.448  1.00  0.00     0.073 A 
HETATM   17  C   UNL     1       8.297  22.633  56.709  1.00  0.00     0.038 A 
HETATM   18  C   UNL     1       8.502  21.704  55.689  1.00  0.00     0.022 A 
HETATM   19  C   UNL     1       7.957  21.935  54.429  1.00  0.00     0.011 A 
HETATM   20 BR   UNL     1       8.231  20.678  53.045  1.00  0.00    -0.051 Br
HETATM   21  C   UNL     1       7.209  23.087  54.174  1.00  0.00     0.030 A 
BRANCH  16  22
HETATM   22  O   UNL     1       7.344  24.702  57.439  1.00  0.00    -0.360 OA
HETATM   23  H   UNL     1       8.066  24.639  58.093  1.00  0.00     0.217 HD
ENDBRANCH  16  22
ENDBRANCH  14  15
ENDBRANCH   1  14
TORSDOF 4
ENDMDL
MODEL 6
REMARK VINA RESULT:      -7.6      1.866      2.938
REMARK  4 active torsions:
REMARK  status: ('A' for Active; 'I' for Inactive)
REMARK    1  A    between atoms: C_7  and  N_8 
REMARK    2  A    between atoms: N_8  and  C_9 
REMARK    3  A    between atoms: C_9  and  C_10 
REMARK    4  A    between atoms: C_11  and  O_12 
ROOT
HETATM    1  N   UNL     1       6.186  26.809  56.748  1.00  0.00    -0.222 N 
HETATM    2  H   UNL     1       5.649  26.602  57.577  1.00  0.00     0.178 HD
ENDROOT
BRANCH   1   3
HETATM    3  C   UNL     1       6.604  25.776  56.004  1.00  0.00     0.679 A 
HETATM    4  N   UNL     1       6.869  25.851  54.711  1.00  0.00    -0.190 N 
HETATM    5  C   UNL     1       7.271  24.619  54.235  1.00  0.00     0.076 A 
HETATM    6  H   UNL     1       6.797  26.682  54.140  1.00  0.00     0.184 HD
HETATM    7  C   UNL     1       7.224  23.757  55.332  1.00  0.00     0.076 A 
HETATM    8  C   UNL     1       7.658  24.202  52.968  1.00  0.00     0.032 A 
HETATM    9  C   UNL     1       7.553  22.410  55.240  1.00  0.00     0.032 A 
HETATM   10  N   UNL     1       6.806  24.529  56.394  1.00  0.00    -0.190 N 
HETATM   11  C   UNL     1       7.945  21.970  53.966  1.00  0.00     0.002 A 
HETATM   12  C   UNL     1       7.998  22.844  52.857  1.00  0.00     0.002 A 
HETATM   13  H   UNL     1       6.645  24.183  57.331  1.00  0.00     0.184 HD
ENDBRANCH   1   3
BRANCH   1  14
HETATM   14  C   UNL     1       6.288  28.192  56.290  1.00  0.00     0.179 C 
BRANCH  14  15
HETATM   15  C   UNL     1       7.546  28.871  56.764  1.00  0.00    -0.006 A 
HETATM   16  C   UNL     1       8.592  29.073  55.852  1.00  0.00     0.073 A 
HETATM   17  C   UNL     1       9.767  29.728  56.215  1.00  0.00     0.038 A 
HETATM   18  C   UNL     1       9.916  30.199  57.519  1.00  0.00     0.022 A 
HETATM   19  C   UNL     1       8.885  30.019  58.436  1.00  0.00     0.011 A 
HETATM   20 BR   UNL     1       9.081  30.659  60.204  1.00  0.00    -0.051 Br
HETATM   21  C   UNL     1       7.703  29.370  58.067  1.00  0.00     0.030 A 
BRANCH  16  22
HETATM   22  O   UNL     1       8.430  28.611  54.576  1.00  0.00    -0.360 OA
HETATM   23  H   UNL     1       9.081  27.903  54.408  1.00  0.00     0.217 HD
ENDBRANCH  16  22
ENDBRANCH  14  15
ENDBRANCH   1  14
TORSDOF 4
ENDMDL
MODEL 7
REMARK VINA RESULT:      -7.5      4.205      4.912
REMARK  4 active torsions:
REMARK  status: ('A' for Active; 'I' for Inactive)
REMARK    1  A    between atoms: C_7  and  N_8 
REMARK    2  A    between atoms: N_8  and  C_9 
REMARK    3  A    between atoms: C_9  and  C_10 
REMARK    4  A    between atoms: C_11  and  O_12 
ROOT
HETATM    1  N   UNL     1       6.864  26.159  54.013  1.00  0.00    -0.222 N 
HETATM    2  H   UNL     1       7.576  26.819  54.290  1.00  0.00     0.178 HD
ENDROOT
BRANCH   1   3
HETATM    3  C   UNL     1       7.140  24.854  54.144  1.00  0.00     0.679 A 
HETATM    4  N   UNL     1       7.397  24.044  53.132  1.00  0.00    -0.190 N 
HETATM    5  C   UNL     1       7.637  22.766  53.594  1.00  0.00     0.076 A 
HETATM    6  H   UNL     1       7.423  24.307  52.156  1.00  0.00     0.184 HD
HETATM    7  C   UNL     1       7.495  22.833  54.981  1.00  0.00     0.076 A 
HETATM    8  C   UNL     1       7.953  21.589  52.929  1.00  0.00     0.032 A 
HETATM    9  C   UNL     1       7.651  21.725  55.804  1.00  0.00     0.032 A 
HETATM   10  N   UNL     1       7.189  24.148  55.260  1.00  0.00    -0.190 N 
HETATM   11  C   UNL     1       7.970  20.525  55.148  1.00  0.00     0.002 A 
HETATM   12  C   UNL     1       8.119  20.458  53.744  1.00  0.00     0.002 A 
HETATM   13  H   UNL     1       6.997  24.512  56.185  1.00  0.00     0.184 HD
ENDBRANCH   1   3
BRANCH   1  14
HETATM   14  C   UNL     1       5.522  26.645  53.704  1.00  0.00     0.179 C 
BRANCH  14  15
HETATM   15  C   UNL     1       5.376  27.077  52.269  1.00  0.00    -0.006 A 
HETATM   16  C   UNL     1       4.971  26.132  51.314  1.00  0.00     0.073 A 
HETATM   17  C   UNL     1       4.780  26.474  49.977  1.00  0.00     0.038 A 
HETATM   18  C   UNL     1       4.995  27.790  49.567  1.00  0.00     0.022 A 
HETATM   19  C   UNL     1       5.387  28.745  50.501  1.00  0.00     0.011 A 
HETATM   20 BR   UNL     1       5.677  30.530  49.951  1.00  0.00    -0.051 Br
HETATM   21  C   UNL     1       5.568  28.401  51.843  1.00  0.00     0.030 A 
BRANCH  16  22
HETATM   22  O   UNL     1       4.758  24.848  51.731  1.00  0.00    -0.360 OA
HETATM   23  H   UNL     1       3.940  24.511  51.320  1.00  0.00     0.217 HD
ENDBRANCH  16  22
ENDBRANCH  14  15
ENDBRANCH   1  14
TORSDOF 4
ENDMDL
MODEL 8
REMARK VINA RESULT:      -7.4      5.474      6.220
REMARK  4 active torsions:
REMARK  status: ('A' for Active; 'I' for Inactive)
REMARK    1  A    between atoms: C_7  and  N_8 
REMARK    2  A    between atoms: N_8  and  C_9 
REMARK    3  A    between atoms: C_9  and  C_10 
REMARK    4  A    between atoms: C_11  and  O_12 
ROOT
HETATM    1  N   UNL     1       4.212  26.489  53.002  1.00  0.00    -0.222 N 
HETATM    2  H   UNL     1       3.277  26.148  52.837  1.00  0.00     0.178 HD
ENDROOT
BRANCH   1   3
HETATM    3  C   UNL     1       5.131  25.607  53.418  1.00  0.00     0.679 A 
HETATM    4  N   UNL     1       5.863  24.860  52.609  1.00  0.00    -0.190 N 
HETATM    5  C   UNL     1       6.710  24.054  53.343  1.00  0.00     0.076 A 
HETATM    6  H   UNL     1       5.824  24.869  51.599  1.00  0.00     0.184 HD
HETATM    7  C   UNL     1       6.441  24.343  54.682  1.00  0.00     0.076 A 
HETATM    8  C   UNL     1       7.659  23.118  52.953  1.00  0.00     0.032 A 
HETATM    9  C   UNL     1       7.097  23.711  55.730  1.00  0.00     0.032 A 
HETATM   10  N   UNL     1       5.459  25.309  54.663  1.00  0.00    -0.190 N 
HETATM   11  C   UNL     1       8.060  22.760  55.355  1.00  0.00     0.002 A 
HETATM   12  C   UNL     1       8.336  22.472  54.000  1.00  0.00     0.002 A 
HETATM   13  H   UNL     1       5.027  25.709  55.486  1.00  0.00     0.184 HD
ENDBRANCH   1   3
BRANCH   1  14
HETATM   14  C   UNL     1       4.565  27.840  52.576  1.00  0.00     0.179 C 
BRANCH  14  15
HETATM   15  C   UNL     1       4.706  27.962  51.081  1.00  0.00    -0.006 A 
HETATM   16  C   UNL     1       5.462  29.020  50.556  1.00  0.00     0.073 A 
HETATM   17  C   UNL     1       5.663  29.169  49.185  1.00  0.00     0.038 A 
HETATM   18  C   UNL     1       5.102  28.245  48.304  1.00  0.00     0.022 A 
HETATM   19  C   UNL     1       4.358  27.181  48.806  1.00  0.00     0.011 A 
HETATM   20 BR   UNL     1       3.598  25.925  47.616  1.00  0.00    -0.051 Br
HETATM   21  C   UNL     1       4.166  27.029  50.182  1.00  0.00     0.030 A 
BRANCH  16  22
HETATM   22  O   UNL     1       6.011  29.915  51.431  1.00  0.00    -0.360 OA
HETATM   23  H   UNL     1       6.140  29.478  52.294  1.00  0.00     0.217 HD
ENDBRANCH  16  22
ENDBRANCH  14  15
ENDBRANCH   1  14
TORSDOF 4
ENDMDL
MODEL 9
REMARK VINA RESULT:      -7.3      3.162      7.691
REMARK  4 active torsions:
REMARK  status: ('A' for Active; 'I' for Inactive)
REMARK    1  A    between atoms: C_7  and  N_8 
REMARK    2  A    between atoms: N_8  and  C_9 
REMARK    3  A    between atoms: C_9  and  C_10 
REMARK    4  A    between atoms: C_11  and  O_12 
ROOT
HETATM    1  N   UNL     1       6.622  26.084  56.134  1.00  0.00    -0.222 N 
HETATM    2  H   UNL     1       5.863  25.472  56.393  1.00  0.00     0.178 HD
ENDROOT
BRANCH   1   3
HETATM    3  C   UNL     1       6.712  27.264  56.762  1.00  0.00     0.679 A 
HETATM    4  N   UNL     1       5.804  28.222  56.677  1.00  0.00    -0.190 N 
HETATM    5  C   UNL     1       6.190  29.311  57.433  1.00  0.00     0.076 A 
HETATM    6  H   UNL     1       4.946  28.177  56.145  1.00  0.00     0.184 HD
HETATM    7  C   UNL     1       7.423  28.967  57.990  1.00  0.00     0.076 A 
HETATM    8  C   UNL     1       5.577  30.536  57.664  1.00  0.00     0.032 A 
HETATM    9  C   UNL     1       8.138  29.828  58.812  1.00  0.00     0.032 A 
HETATM   10  N   UNL     1       7.691  27.692  57.539  1.00  0.00    -0.190 N 
HETATM   11  C   UNL     1       7.535  31.072  59.056  1.00  0.00     0.002 A 
HETATM   12  C   UNL     1       6.284  31.417  58.497  1.00  0.00     0.002 A 
HETATM   13  H   UNL     1       8.534  27.172  57.748  1.00  0.00     0.184 HD
ENDBRANCH   1   3
BRANCH   1  14
HETATM   14  C   UNL     1       7.686  25.575  55.273  1.00  0.00     0.179 C 
BRANCH  14  15
HETATM   15  C   UNL     1       7.911  24.095  55.439  1.00  0.00    -0.006 A 
HETATM   16  C   UNL     1       8.167  23.588  56.721  1.00  0.00     0.073 A 
HETATM   17  C   UNL     1       8.348  22.225  56.950  1.00  0.00     0.038 A 
HETATM   18  C   UNL     1       8.272  21.334  55.880  1.00  0.00     0.022 A 
HETATM   19  C   UNL     1       8.008  21.815  54.601  1.00  0.00     0.011 A 
HETATM   20 BR   UNL     1       7.903  20.611  53.149  1.00  0.00    -0.051 Br
HETATM   21  C   UNL     1       7.818  23.182  54.377  1.00  0.00     0.030 A 
BRANCH  16  22
HETATM   22  O   UNL     1       8.232  24.472  57.761  1.00  0.00    -0.360 OA
HETATM   23  H   UNL     1       8.699  24.052  58.508  1.00  0.00     0.217 HD
ENDBRANCH  16  22
ENDBRANCH  14  15
ENDBRANCH   1  14
TORSDOF 4
ENDMDL
MODEL 10
REMARK VINA RESULT:      -7.3      3.151      7.195
REMARK  4 active torsions:
REMARK  status: ('A' for Active; 'I' for Inactive)
REMARK    1  A    between atoms: C_7  and  N_8 
REMARK    2  A    between atoms: N_8  and  C_9 
REMARK    3  A    between atoms: C_9  and  C_10 
REMARK    4  A    between atoms: C_11  and  O_12 
ROOT
HETATM    1  N   UNL     1       6.036  26.583  55.695  1.00  0.00    -0.222 N 
HETATM    2  H   UNL     1       5.499  26.008  56.328  1.00  0.00     0.178 HD
ENDROOT
BRANCH   1   3
HETATM    3  C   UNL     1       6.884  27.472  56.229  1.00  0.00     0.679 A 
HETATM    4  N   UNL     1       7.978  27.909  55.630  1.00  0.00    -0.190 N 
HETATM    5  C   UNL     1       8.638  28.810  56.440  1.00  0.00     0.076 A 
HETATM    6  H   UNL     1       8.297  27.635  54.710  1.00  0.00     0.184 HD
HETATM    7  C   UNL     1       7.877  28.896  57.608  1.00  0.00     0.076 A 
HETATM    8  C   UNL     1       9.807  29.534  56.253  1.00  0.00     0.032 A 
HETATM    9  C   UNL     1       8.236  29.706  58.677  1.00  0.00     0.032 A 
HETATM   10  N   UNL     1       6.807  28.047  57.417  1.00  0.00    -0.190 N 
HETATM   11  C   UNL     1       9.417  30.445  58.506  1.00  0.00     0.002 A 
HETATM   12  C   UNL     1      10.184  30.363  57.321  1.00  0.00     0.002 A 
HETATM   13  H   UNL     1       6.085  27.866  58.102  1.00  0.00     0.184 HD
ENDBRANCH   1   3
BRANCH   1  14
HETATM   14  C   UNL     1       6.029  26.272  54.268  1.00  0.00     0.179 C 
BRANCH  14  15
HETATM   15  C   UNL     1       6.701  24.962  53.954  1.00  0.00    -0.006 A 
HETATM   16  C   UNL     1       7.196  24.747  52.660  1.00  0.00     0.073 A 
HETATM   17  C   UNL     1       7.861  23.572  52.313  1.00  0.00     0.038 A 
HETATM   18  C   UNL     1       8.045  22.578  53.273  1.00  0.00     0.022 A 
HETATM   19  C   UNL     1       7.571  22.776  54.567  1.00  0.00     0.011 A 
HETATM   20 BR   UNL     1       7.820  21.432  55.872  1.00  0.00    -0.051 Br
HETATM   21  C   UNL     1       6.913  23.959  54.914  1.00  0.00     0.030 A 
BRANCH  16  22
HETATM   22  O   UNL     1       7.015  25.732  51.730  1.00  0.00    -0.360 OA
HETATM   23  H   UNL     1       7.123  25.353  50.838  1.00  0.00     0.217 HD
ENDBRANCH  16  22
ENDBRANCH  14  15
ENDBRANCH   1  14
TORSDOF 4
ENDMDL
