MODEL 1
REMARK VINA RESULT:     -11.0      0.000      0.000
REMARK  7 active torsions:
REMARK  status: ('A' for Active; 'I' for Inactive)
REMARK    1  A    between atoms: C_2  and  C_3 
REMARK    2  A    between atoms: C_3  and  N_4 
REMARK    3  A    between atoms: N_4  and  C_7 
REMARK    4  A    between atoms: C_12  and  N_13 
REMARK       I    between atoms: N_13  and  C_14 
REMARK    5  A    between atoms: C_14  and  C_16 
REMARK    6  A    between atoms: C_20  and  C_22 
REMARK       I    between atoms: N_26  and  C_27 
REMARK       I    between atoms: C_27  and  N_29 
REMARK    7  A    between atoms: N_29  and  C_30 
ROOT
HETATM    1  C   UNL     1       7.306  24.706  55.267  1.00  0.00     0.037 A 
HETATM    2  C   UNL     1       7.835  24.644  56.555  1.00  0.00     0.029 A 
HETATM    3  C   UNL     1       8.421  23.461  57.020  1.00  0.00     0.004 A 
HETATM    4  C   UNL     1       8.488  22.337  56.195  1.00  0.00     0.023 A 
HETATM    5  C   UNL     1       7.972  22.396  54.901  1.00  0.00     0.046 A 
HETATM    6  C   UNL     1       7.380  23.578  54.442  1.00  0.00     0.052 A 
HETATM    7  C   UNL     1       8.075  21.271  54.019  1.00  0.00     0.099 C 
HETATM    8  N   UNL     1       8.182  20.395  53.265  1.00  0.00    -0.191 NA
ENDROOT
BRANCH   1   9
HETATM    9  N   UNL     1       6.736  25.860  54.710  1.00  0.00    -0.309 N 
HETATM   10  C   UNL     1       5.567  25.985  54.000  1.00  0.00     0.323 C 
HETATM   11  N   UNL     1       5.216  27.312  53.749  1.00  0.00    -0.325 N 
HETATM   12  O   UNL     1       4.918  25.040  53.563  1.00  0.00    -0.247 OA
HETATM   13  C   UNL     1       5.314  28.407  54.729  1.00  0.00     0.122 C 
HETATM   14  C   UNL     1       4.116  27.575  52.825  1.00  0.00     0.128 C 
HETATM   15  C   UNL     1       4.584  29.571  54.048  1.00  0.00     0.032 C 
HETATM   16  C   UNL     1       3.457  28.857  53.317  1.00  0.00     0.022 C 
HETATM   17  H   UNL     1       7.355  26.645  54.592  1.00  0.00     0.170 HD
BRANCH  13  18
HETATM   18  C   UNL     1       6.704  28.777  55.195  1.00  0.00    -0.034 A 
HETATM   19  C   UNL     1       7.858  28.482  54.454  1.00  0.00     0.009 A 
HETATM   20  C   UNL     1       9.128  28.765  54.971  1.00  0.00     0.002 A 
HETATM   21  C   UNL     1       9.267  29.343  56.235  1.00  0.00     0.017 A 
HETATM   22  C   UNL     1       8.127  29.650  56.980  1.00  0.00     0.033 A 
HETATM   23  C   UNL     1       6.857  29.380  56.454  1.00  0.00     0.026 A 
BRANCH  22  24
HETATM   24  C   UNL     1       8.193  30.267  58.329  1.00  0.00     0.257 C 
HETATM   25  N   UNL     1       6.980  30.650  58.859  1.00  0.00    -0.301 N 
HETATM   26  H   UNL     1       6.120  30.545  58.344  1.00  0.00     0.171 HD
HETATM   27  O   UNL     1       9.303  30.440  58.817  1.00  0.00    -0.267 OA
BRANCH  25  28
HETATM   28  C   UNL     1       6.919  31.343  60.037  1.00  0.00     0.174 A 
HETATM   29  N   UNL     1       7.709  31.269  61.079  1.00  0.00    -0.228 NA
HETATM   30  C   UNL     1       7.314  32.171  62.027  1.00  0.00     0.050 A 
HETATM   31  C   UNL     1       8.070  32.317  63.299  1.00  0.00     0.062 C 
HETATM   32  C   UNL     1       6.222  32.940  61.688  1.00  0.00     0.013 A 
HETATM   33  C   UNL     1       7.270  33.140  64.324  1.00  0.00     0.039 C 
HETATM   34  C   UNL     1       6.627  34.382  63.671  1.00  0.00     0.191 C 
HETATM   35  C   UNL     1       5.619  33.991  62.551  1.00  0.00     0.081 C 
HETATM   36  S   UNL     1       5.647  32.489  60.146  1.00  0.00    -0.055 SA
BRANCH  34  37
HETATM   37  N   UNL     1       5.903  35.196  64.723  1.00  0.00    -0.071 N 
HETATM   38  H   UNL     1       5.225  35.825  64.267  1.00  0.00     0.277 HD
HETATM   39  H   UNL     1       6.581  35.813  65.191  1.00  0.00     0.277 HD
BRANCH  37  40
HETATM   40  C   UNL     1       5.203  34.401  65.787  1.00  0.00     0.232 C 
BRANCH  40  41
HETATM   41  C   UNL     1       5.541  34.991  67.149  1.00  0.00     0.023 C 
HETATM   42  C   UNL     1       5.104  34.061  68.271  1.00  0.00     0.007 C 
ENDBRANCH  40  41
ENDBRANCH  37  40
ENDBRANCH  34  37
ENDBRANCH  25  28
ENDBRANCH  22  24
ENDBRANCH  13  18
ENDBRANCH   1   9
TORSDOF 7
ENDMDL
MODEL 2
REMARK VINA RESULT:     -10.9      2.786     10.152
REMARK  7 active torsions:
REMARK  status: ('A' for Active; 'I' for Inactive)
REMARK    1  A    between atoms: C_2  and  C_3 
REMARK    2  A    between atoms: C_3  and  N_4 
REMARK    3  A    between atoms: N_4  and  C_7 
REMARK    4  A    between atoms: C_12  and  N_13 
REMARK       I    between atoms: N_13  and  C_14 
REMARK    5  A    between atoms: C_14  and  C_16 
REMARK    6  A    between atoms: C_20  and  C_22 
REMARK       I    between atoms: N_26  and  C_27 
REMARK       I    between atoms: C_27  and  N_29 
REMARK    7  A    between atoms: N_29  and  C_30 
ROOT
HETATM    1  C   UNL     1       5.273  32.330  57.164  1.00  0.00     0.037 A 
HETATM    2  C   UNL     1       4.950  33.431  56.371  1.00  0.00     0.029 A 
HETATM    3  C   UNL     1       4.477  33.245  55.067  1.00  0.00     0.004 A 
HETATM    4  C   UNL     1       4.316  31.957  54.553  1.00  0.00     0.023 A 
HETATM    5  C   UNL     1       4.625  30.851  55.345  1.00  0.00     0.046 A 
HETATM    6  C   UNL     1       5.105  31.041  56.646  1.00  0.00     0.052 A 
HETATM    7  C   UNL     1       4.420  29.520  54.858  1.00  0.00     0.099 C 
HETATM    8  N   UNL     1       4.222  28.430  54.510  1.00  0.00    -0.191 NA
ENDROOT
BRANCH   1   9
HETATM    9  N   UNL     1       5.717  32.426  58.491  1.00  0.00    -0.309 N 
HETATM   10  C   UNL     1       4.988  32.690  59.624  1.00  0.00     0.323 C 
HETATM   11  N   UNL     1       5.725  32.534  60.800  1.00  0.00    -0.325 N 
HETATM   12  O   UNL     1       3.829  33.090  59.625  1.00  0.00    -0.247 OA
HETATM   13  C   UNL     1       6.661  31.428  61.065  1.00  0.00     0.122 C 
HETATM   14  C   UNL     1       5.133  32.990  62.054  1.00  0.00     0.128 C 
HETATM   15  C   UNL     1       6.998  31.586  62.552  1.00  0.00     0.032 C 
HETATM   16  C   UNL     1       5.674  32.059  63.132  1.00  0.00     0.022 C 
HETATM   17  H   UNL     1       6.706  32.564  58.615  1.00  0.00     0.170 HD
BRANCH  13  18
HETATM   18  C   UNL     1       7.890  31.355  60.187  1.00  0.00    -0.034 A 
HETATM   19  C   UNL     1       8.923  32.302  60.245  1.00  0.00     0.009 A 
HETATM   20  C   UNL     1       9.997  32.240  59.349  1.00  0.00     0.002 A 
HETATM   21  C   UNL     1      10.055  31.235  58.380  1.00  0.00     0.017 A 
HETATM   22  C   UNL     1       9.039  30.281  58.316  1.00  0.00     0.033 A 
HETATM   23  C   UNL     1       7.973  30.336  59.224  1.00  0.00     0.026 A 
BRANCH  22  24
HETATM   24  C   UNL     1       9.031  29.183  57.317  1.00  0.00     0.257 C 
HETATM   25  N   UNL     1       7.795  28.632  57.059  1.00  0.00    -0.301 N 
HETATM   26  H   UNL     1       6.966  28.938  57.546  1.00  0.00     0.171 HD
HETATM   27  O   UNL     1      10.111  28.823  56.865  1.00  0.00    -0.267 OA
BRANCH  25  28
HETATM   28  C   UNL     1       7.672  27.532  56.254  1.00  0.00     0.174 A 
HETATM   29  N   UNL     1       7.488  27.476  54.959  1.00  0.00    -0.228 NA
HETATM   30  C   UNL     1       7.466  26.171  54.549  1.00  0.00     0.050 A 
HETATM   31  C   UNL     1       7.307  25.829  53.111  1.00  0.00     0.062 C 
HETATM   32  C   UNL     1       7.649  25.239  55.547  1.00  0.00     0.013 A 
HETATM   33  C   UNL     1       6.992  24.334  52.932  1.00  0.00     0.039 C 
HETATM   34  C   UNL     1       7.890  23.457  53.830  1.00  0.00     0.191 C 
HETATM   35  C   UNL     1       7.674  23.766  55.341  1.00  0.00     0.081 C 
HETATM   36  S   UNL     1       7.813  26.022  57.054  1.00  0.00    -0.055 SA
BRANCH  34  37
HETATM   37  N   UNL     1       7.593  21.993  53.580  1.00  0.00    -0.071 N 
HETATM   38  H   UNL     1       8.296  21.603  52.936  1.00  0.00     0.277 HD
HETATM   39  H   UNL     1       6.692  21.918  53.087  1.00  0.00     0.277 HD
BRANCH  37  40
HETATM   40  C   UNL     1       7.512  21.131  54.807  1.00  0.00     0.232 C 
BRANCH  40  41
HETATM   41  C   UNL     1       8.749  20.246  54.872  1.00  0.00     0.023 C 
HETATM   42  C   UNL     1       9.371  20.279  56.261  1.00  0.00     0.007 C 
ENDBRANCH  40  41
ENDBRANCH  37  40
ENDBRANCH  34  37
ENDBRANCH  25  28
ENDBRANCH  22  24
ENDBRANCH  13  18
ENDBRANCH   1   9
TORSDOF 7
ENDMDL
MODEL 3
REMARK VINA RESULT:     -10.5      5.013      8.318
REMARK  7 active torsions:
REMARK  status: ('A' for Active; 'I' for Inactive)
REMARK    1  A    between atoms: C_2  and  C_3 
REMARK    2  A    between atoms: C_3  and  N_4 
REMARK    3  A    between atoms: N_4  and  C_7 
REMARK    4  A    between atoms: C_12  and  N_13 
REMARK       I    between atoms: N_13  and  C_14 
REMARK    5  A    between atoms: C_14  and  C_16 
REMARK    6  A    between atoms: C_20  and  C_22 
REMARK       I    between atoms: N_26  and  C_27 
REMARK       I    between atoms: C_27  and  N_29 
REMARK    7  A    between atoms: N_29  and  C_30 
ROOT
HETATM    1  C   UNL     1       7.909  26.890  56.843  1.00  0.00     0.037 A 
HETATM    2  C   UNL     1       6.670  27.446  57.158  1.00  0.00     0.029 A 
HETATM    3  C   UNL     1       6.578  28.784  57.555  1.00  0.00     0.004 A 
HETATM    4  C   UNL     1       7.725  29.576  57.631  1.00  0.00     0.023 A 
HETATM    5  C   UNL     1       8.967  29.030  57.305  1.00  0.00     0.046 A 
HETATM    6  C   UNL     1       9.056  27.688  56.916  1.00  0.00     0.052 A 
HETATM    7  C   UNL     1      10.151  29.837  57.327  1.00  0.00     0.099 C 
HETATM    8  N   UNL     1      11.121  30.473  57.290  1.00  0.00    -0.191 NA
ENDROOT
BRANCH   1   9
HETATM    9  N   UNL     1       8.085  25.570  56.402  1.00  0.00    -0.309 N 
HETATM   10  C   UNL     1       8.387  24.450  57.138  1.00  0.00     0.323 C 
HETATM   11  N   UNL     1       8.313  23.270  56.397  1.00  0.00    -0.325 N 
HETATM   12  O   UNL     1       8.752  24.469  58.308  1.00  0.00    -0.247 OA
HETATM   13  C   UNL     1       7.249  22.949  55.430  1.00  0.00     0.122 C 
HETATM   14  C   UNL     1       8.815  22.040  57.002  1.00  0.00     0.128 C 
HETATM   15  C   UNL     1       7.493  21.473  55.097  1.00  0.00     0.032 C 
HETATM   16  C   UNL     1       7.957  20.916  56.435  1.00  0.00     0.022 C 
HETATM   17  H   UNL     1       8.258  25.454  55.417  1.00  0.00     0.170 HD
BRANCH  13  18
HETATM   18  C   UNL     1       7.166  23.824  54.200  1.00  0.00    -0.034 A 
HETATM   19  C   UNL     1       8.039  23.688  53.110  1.00  0.00     0.009 A 
HETATM   20  C   UNL     1       7.978  24.581  52.033  1.00  0.00     0.002 A 
HETATM   21  C   UNL     1       7.048  25.624  52.028  1.00  0.00     0.017 A 
HETATM   22  C   UNL     1       6.167  25.765  53.101  1.00  0.00     0.033 A 
HETATM   23  C   UNL     1       6.220  24.861  54.170  1.00  0.00     0.026 A 
BRANCH  22  24
HETATM   24  C   UNL     1       5.150  26.845  53.166  1.00  0.00     0.257 C 
HETATM   25  N   UNL     1       5.637  28.090  53.502  1.00  0.00    -0.301 N 
HETATM   26  H   UNL     1       6.610  28.238  53.719  1.00  0.00     0.171 HD
HETATM   27  O   UNL     1       3.980  26.531  52.985  1.00  0.00    -0.267 OA
BRANCH  25  28
HETATM   28  C   UNL     1       4.786  29.140  53.717  1.00  0.00     0.174 A 
HETATM   29  N   UNL     1       4.298  29.586  54.848  1.00  0.00    -0.228 NA
HETATM   30  C   UNL     1       3.520  30.686  54.615  1.00  0.00     0.050 A 
HETATM   31  C   UNL     1       2.873  31.411  55.741  1.00  0.00     0.062 C 
HETATM   32  C   UNL     1       3.434  31.078  53.297  1.00  0.00     0.013 A 
HETATM   33  C   UNL     1       1.810  32.396  55.224  1.00  0.00     0.039 C 
HETATM   34  C   UNL     1       2.321  33.186  54.001  1.00  0.00     0.191 C 
HETATM   35  C   UNL     1       2.657  32.247  52.805  1.00  0.00     0.081 C 
HETATM   36  S   UNL     1       4.324  30.007  52.311  1.00  0.00    -0.055 SA
BRANCH  34  37
HETATM   37  N   UNL     1       1.271  34.185  53.562  1.00  0.00    -0.071 N 
HETATM   38  H   UNL     1       1.660  34.795  52.828  1.00  0.00     0.277 HD
HETATM   39  H   UNL     1       1.054  34.807  54.353  1.00  0.00     0.277 HD
BRANCH  37  40
HETATM   40  C   UNL     1      -0.022  33.594  53.080  1.00  0.00     0.232 C 
BRANCH  40  41
HETATM   41  C   UNL     1      -1.165  34.162  53.910  1.00  0.00     0.023 C 
HETATM   42  C   UNL     1      -1.739  33.105  54.844  1.00  0.00     0.007 C 
ENDBRANCH  40  41
ENDBRANCH  37  40
ENDBRANCH  34  37
ENDBRANCH  25  28
ENDBRANCH  22  24
ENDBRANCH  13  18
ENDBRANCH   1   9
TORSDOF 7
ENDMDL
MODEL 4
REMARK VINA RESULT:     -10.4      3.121     10.397
REMARK  7 active torsions:
REMARK  status: ('A' for Active; 'I' for Inactive)
REMARK    1  A    between atoms: C_2  and  C_3 
REMARK    2  A    between atoms: C_3  and  N_4 
REMARK    3  A    between atoms: N_4  and  C_7 
REMARK    4  A    between atoms: C_12  and  N_13 
REMARK       I    between atoms: N_13  and  C_14 
REMARK    5  A    between atoms: C_14  and  C_16 
REMARK    6  A    between atoms: C_20  and  C_22 
REMARK       I    between atoms: N_26  and  C_27 
REMARK       I    between atoms: C_27  and  N_29 
REMARK    7  A    between atoms: N_29  and  C_30 
ROOT
HETATM    1  C   UNL     1       6.845  32.225  61.318  1.00  0.00     0.037 A 
HETATM    2  C   UNL     1       7.382  31.890  62.561  1.00  0.00     0.029 A 
HETATM    3  C   UNL     1       8.720  31.494  62.666  1.00  0.00     0.004 A 
HETATM    4  C   UNL     1       9.530  31.439  61.530  1.00  0.00     0.023 A 
HETATM    5  C   UNL     1       9.002  31.784  60.286  1.00  0.00     0.046 A 
HETATM    6  C   UNL     1       7.662  32.173  60.183  1.00  0.00     0.052 A 
HETATM    7  C   UNL     1       9.827  31.784  59.114  1.00  0.00     0.099 C 
HETATM    8  N   UNL     1      10.479  31.839  58.155  1.00  0.00    -0.191 NA
ENDROOT
BRANCH   1   9
HETATM    9  N   UNL     1       5.527  32.667  61.129  1.00  0.00    -0.309 N 
HETATM   10  C   UNL     1       4.575  32.960  62.074  1.00  0.00     0.323 C 
HETATM   11  N   UNL     1       3.428  33.544  61.535  1.00  0.00    -0.325 N 
HETATM   12  O   UNL     1       4.673  32.684  63.265  1.00  0.00    -0.247 OA
HETATM   13  C   UNL     1       3.425  34.588  60.496  1.00  0.00     0.122 C 
HETATM   14  C   UNL     1       2.262  33.706  62.399  1.00  0.00     0.128 C 
HETATM   15  C   UNL     1       1.964  35.049  60.448  1.00  0.00     0.032 C 
HETATM   16  C   UNL     1       1.553  34.963  61.910  1.00  0.00     0.022 C 
HETATM   17  H   UNL     1       5.142  32.523  60.211  1.00  0.00     0.170 HD
BRANCH  13  18
HETATM   18  C   UNL     1       3.962  34.194  59.138  1.00  0.00    -0.034 A 
HETATM   19  C   UNL     1       4.212  35.125  58.120  1.00  0.00     0.009 A 
HETATM   20  C   UNL     1       4.625  34.700  56.851  1.00  0.00     0.002 A 
HETATM   21  C   UNL     1       4.791  33.340  56.578  1.00  0.00     0.017 A 
HETATM   22  C   UNL     1       4.555  32.403  57.585  1.00  0.00     0.033 A 
HETATM   23  C   UNL     1       4.157  32.832  58.858  1.00  0.00     0.026 A 
BRANCH  22  24
HETATM   24  C   UNL     1       4.712  30.941  57.372  1.00  0.00     0.257 C 
HETATM   25  N   UNL     1       5.955  30.544  56.927  1.00  0.00    -0.301 N 
HETATM   26  H   UNL     1       6.685  31.211  56.730  1.00  0.00     0.171 HD
HETATM   27  O   UNL     1       3.727  30.236  57.544  1.00  0.00    -0.267 OA
BRANCH  25  28
HETATM   28  C   UNL     1       6.189  29.243  56.574  1.00  0.00     0.174 A 
HETATM   29  N   UNL     1       5.679  28.554  55.583  1.00  0.00    -0.228 NA
HETATM   30  C   UNL     1       6.220  27.298  55.565  1.00  0.00     0.050 A 
HETATM   31  C   UNL     1       5.837  26.320  54.512  1.00  0.00     0.062 C 
HETATM   32  C   UNL     1       7.155  27.046  56.546  1.00  0.00     0.013 A 
HETATM   33  C   UNL     1       6.314  24.904  54.876  1.00  0.00     0.039 C 
HETATM   34  C   UNL     1       7.759  24.916  55.416  1.00  0.00     0.191 C 
HETATM   35  C   UNL     1       7.883  25.760  56.718  1.00  0.00     0.081 C 
HETATM   36  S   UNL     1       7.333  28.416  57.548  1.00  0.00    -0.055 SA
BRANCH  34  37
HETATM   37  N   UNL     1       8.212  23.500  55.703  1.00  0.00    -0.071 N 
HETATM   38  H   UNL     1       8.090  23.294  56.705  1.00  0.00     0.277 HD
HETATM   39  H   UNL     1       9.224  23.433  55.527  1.00  0.00     0.277 HD
BRANCH  37  40
HETATM   40  C   UNL     1       7.539  22.430  54.892  1.00  0.00     0.232 C 
BRANCH  40  41
HETATM   41  C   UNL     1       8.357  22.173  53.634  1.00  0.00     0.023 C 
HETATM   42  C   UNL     1       8.064  20.793  53.065  1.00  0.00     0.007 C 
ENDBRANCH  40  41
ENDBRANCH  37  40
ENDBRANCH  34  37
ENDBRANCH  25  28
ENDBRANCH  22  24
ENDBRANCH  13  18
ENDBRANCH   1   9
TORSDOF 7
ENDMDL
MODEL 5
REMARK VINA RESULT:     -10.1      3.340     11.150
REMARK  7 active torsions:
REMARK  status: ('A' for Active; 'I' for Inactive)
REMARK    1  A    between atoms: C_2  and  C_3 
REMARK    2  A    between atoms: C_3  and  N_4 
REMARK    3  A    between atoms: N_4  and  C_7 
REMARK    4  A    between atoms: C_12  and  N_13 
REMARK       I    between atoms: N_13  and  C_14 
REMARK    5  A    between atoms: C_14  and  C_16 
REMARK    6  A    between atoms: C_20  and  C_22 
REMARK       I    between atoms: N_26  and  C_27 
REMARK       I    between atoms: C_27  and  N_29 
REMARK    7  A    between atoms: N_29  and  C_30 
ROOT
HETATM    1  C   UNL     1       4.877  32.807  58.514  1.00  0.00     0.037 A 
HETATM    2  C   UNL     1       4.277  31.614  58.113  1.00  0.00     0.029 A 
HETATM    3  C   UNL     1       3.385  31.602  57.036  1.00  0.00     0.004 A 
HETATM    4  C   UNL     1       3.095  32.782  56.348  1.00  0.00     0.023 A 
HETATM    5  C   UNL     1       3.702  33.977  56.736  1.00  0.00     0.046 A 
HETATM    6  C   UNL     1       4.588  33.987  57.819  1.00  0.00     0.052 A 
HETATM    7  C   UNL     1       3.459  35.190  56.014  1.00  0.00     0.099 C 
HETATM    8  N   UNL     1       3.320  36.180  55.423  1.00  0.00    -0.191 NA
ENDROOT
BRANCH   1   9
HETATM    9  N   UNL     1       5.810  32.901  59.558  1.00  0.00    -0.309 N 
HETATM   10  C   UNL     1       5.642  33.429  60.815  1.00  0.00     0.323 C 
HETATM   11  N   UNL     1       6.730  33.197  61.657  1.00  0.00    -0.325 N 
HETATM   12  O   UNL     1       4.674  34.097  61.162  1.00  0.00    -0.247 OA
HETATM   13  C   UNL     1       7.462  31.922  61.754  1.00  0.00     0.122 C 
HETATM   14  C   UNL     1       6.770  33.886  62.944  1.00  0.00     0.128 C 
HETATM   15  C   UNL     1       8.372  32.116  62.972  1.00  0.00     0.032 C 
HETATM   16  C   UNL     1       7.494  32.944  63.898  1.00  0.00     0.022 C 
HETATM   17  H   UNL     1       6.776  32.805  59.295  1.00  0.00     0.170 HD
BRANCH  13  18
HETATM   18  C   UNL     1       8.217  31.479  60.520  1.00  0.00    -0.034 A 
HETATM   19  C   UNL     1       9.457  32.021  60.153  1.00  0.00     0.009 A 
HETATM   20  C   UNL     1      10.073  31.641  58.954  1.00  0.00     0.002 A 
HETATM   21  C   UNL     1       9.460  30.718  58.102  1.00  0.00     0.017 A 
HETATM   22  C   UNL     1       8.230  30.165  58.460  1.00  0.00     0.033 A 
HETATM   23  C   UNL     1       7.623  30.534  59.667  1.00  0.00     0.026 A 
BRANCH  22  24
HETATM   24  C   UNL     1       7.517  29.177  57.609  1.00  0.00     0.257 C 
HETATM   25  N   UNL     1       8.273  28.618  56.602  1.00  0.00    -0.301 N 
HETATM   26  H   UNL     1       9.230  28.893  56.442  1.00  0.00     0.171 HD
HETATM   27  O   UNL     1       6.327  28.997  57.830  1.00  0.00    -0.267 OA
BRANCH  25  28
HETATM   28  C   UNL     1       7.701  27.790  55.675  1.00  0.00     0.174 A 
HETATM   29  N   UNL     1       7.620  26.483  55.675  1.00  0.00    -0.228 NA
HETATM   30  C   UNL     1       6.924  26.061  54.577  1.00  0.00     0.050 A 
HETATM   31  C   UNL     1       6.657  24.615  54.356  1.00  0.00     0.062 C 
HETATM   32  C   UNL     1       6.466  27.063  53.749  1.00  0.00     0.013 A 
HETATM   33  C   UNL     1       6.154  24.359  52.925  1.00  0.00     0.039 C 
HETATM   34  C   UNL     1       5.097  25.403  52.505  1.00  0.00     0.191 C 
HETATM   35  C   UNL     1       5.679  26.847  52.506  1.00  0.00     0.081 C 
HETATM   36  S   UNL     1       6.959  28.583  54.347  1.00  0.00    -0.055 SA
BRANCH  34  37
HETATM   37  N   UNL     1       4.583  25.081  51.117  1.00  0.00    -0.071 N 
HETATM   38  H   UNL     1       3.569  24.899  51.158  1.00  0.00     0.277 HD
HETATM   39  H   UNL     1       5.010  24.199  50.801  1.00  0.00     0.277 HD
BRANCH  37  40
HETATM   40  C   UNL     1       4.858  26.120  50.069  1.00  0.00     0.232 C 
BRANCH  40  41
HETATM   41  C   UNL     1       3.895  25.919  48.907  1.00  0.00     0.023 C 
HETATM   42  C   UNL     1       4.376  26.655  47.665  1.00  0.00     0.007 C 
ENDBRANCH  40  41
ENDBRANCH  37  40
ENDBRANCH  34  37
ENDBRANCH  25  28
ENDBRANCH  22  24
ENDBRANCH  13  18
ENDBRANCH   1   9
TORSDOF 7
ENDMDL
MODEL 6
REMARK VINA RESULT:     -10.0      2.958     10.702
REMARK  7 active torsions:
REMARK  status: ('A' for Active; 'I' for Inactive)
REMARK    1  A    between atoms: C_2  and  C_3 
REMARK    2  A    between atoms: C_3  and  N_4 
REMARK    3  A    between atoms: N_4  and  C_7 
REMARK    4  A    between atoms: C_12  and  N_13 
REMARK       I    between atoms: N_13  and  C_14 
REMARK    5  A    between atoms: C_14  and  C_16 
REMARK    6  A    between atoms: C_20  and  C_22 
REMARK       I    between atoms: N_26  and  C_27 
REMARK       I    between atoms: C_27  and  N_29 
REMARK    7  A    between atoms: N_29  and  C_30 
ROOT
HETATM    1  C   UNL     1       5.039  32.636  58.044  1.00  0.00     0.037 A 
HETATM    2  C   UNL     1       4.701  31.390  57.518  1.00  0.00     0.029 A 
HETATM    3  C   UNL     1       4.287  31.277  56.186  1.00  0.00     0.004 A 
HETATM    4  C   UNL     1       4.217  32.409  55.371  1.00  0.00     0.023 A 
HETATM    5  C   UNL     1       4.566  33.657  55.888  1.00  0.00     0.046 A 
HETATM    6  C   UNL     1       4.972  33.768  57.223  1.00  0.00     0.052 A 
HETATM    7  C   UNL     1       4.550  34.824  55.057  1.00  0.00     0.099 C 
HETATM    8  N   UNL     1       4.593  35.780  54.401  1.00  0.00    -0.191 NA
ENDROOT
BRANCH   1   9
HETATM    9  N   UNL     1       5.498  32.833  59.355  1.00  0.00    -0.309 N 
HETATM   10  C   UNL     1       4.802  33.283  60.451  1.00  0.00     0.323 C 
HETATM   11  N   UNL     1       5.529  33.188  61.639  1.00  0.00    -0.325 N 
HETATM   12  O   UNL     1       3.683  33.782  60.404  1.00  0.00    -0.247 OA
HETATM   13  C   UNL     1       6.364  32.038  62.025  1.00  0.00     0.122 C 
HETATM   14  C   UNL     1       4.988  33.827  62.834  1.00  0.00     0.128 C 
HETATM   15  C   UNL     1       6.723  32.323  63.487  1.00  0.00     0.032 C 
HETATM   16  C   UNL     1       5.450  32.973  64.008  1.00  0.00     0.022 C 
HETATM   17  H   UNL     1       6.496  32.895  59.467  1.00  0.00     0.170 HD
BRANCH  13  18
HETATM   18  C   UNL     1       7.576  31.760  61.164  1.00  0.00    -0.034 A 
HETATM   19  C   UNL     1       8.827  32.349  61.401  1.00  0.00     0.009 A 
HETATM   20  C   UNL     1       9.895  32.129  60.523  1.00  0.00     0.002 A 
HETATM   21  C   UNL     1       9.731  31.323  59.394  1.00  0.00     0.017 A 
HETATM   22  C   UNL     1       8.494  30.724  59.150  1.00  0.00     0.033 A 
HETATM   23  C   UNL     1       7.432  30.932  60.039  1.00  0.00     0.026 A 
BRANCH  22  24
HETATM   24  C   UNL     1       8.243  29.853  57.974  1.00  0.00     0.257 C 
HETATM   25  N   UNL     1       7.191  28.974  58.109  1.00  0.00    -0.301 N 
HETATM   26  H   UNL     1       6.658  28.912  58.964  1.00  0.00     0.171 HD
HETATM   27  O   UNL     1       9.017  29.942  57.030  1.00  0.00    -0.267 OA
BRANCH  25  28
HETATM   28  C   UNL     1       6.936  28.033  57.149  1.00  0.00     0.174 A 
HETATM   29  N   UNL     1       6.020  28.039  56.212  1.00  0.00    -0.228 NA
HETATM   30  C   UNL     1       6.145  26.922  55.434  1.00  0.00     0.050 A 
HETATM   31  C   UNL     1       5.245  26.701  54.271  1.00  0.00     0.062 C 
HETATM   32  C   UNL     1       7.174  26.074  55.783  1.00  0.00     0.013 A 
HETATM   33  C   UNL     1       5.356  25.257  53.755  1.00  0.00     0.039 C 
HETATM   34  C   UNL     1       6.827  24.796  53.680  1.00  0.00     0.191 C 
HETATM   35  C   UNL     1       7.508  24.807  55.080  1.00  0.00     0.081 C 
HETATM   36  S   UNL     1       7.986  26.678  57.157  1.00  0.00    -0.055 SA
BRANCH  34  37
HETATM   37  N   UNL     1       6.896  23.394  53.110  1.00  0.00    -0.071 N 
HETATM   38  H   UNL     1       6.824  23.434  52.083  1.00  0.00     0.277 HD
HETATM   39  H   UNL     1       6.070  22.866  53.425  1.00  0.00     0.277 HD
BRANCH  37  40
HETATM   40  C   UNL     1       8.114  22.601  53.491  1.00  0.00     0.232 C 
BRANCH  40  41
HETATM   41  C   UNL     1       7.736  21.130  53.587  1.00  0.00     0.023 C 
HETATM   42  C   UNL     1       8.798  20.250  52.944  1.00  0.00     0.007 C 
ENDBRANCH  40  41
ENDBRANCH  37  40
ENDBRANCH  34  37
ENDBRANCH  25  28
ENDBRANCH  22  24
ENDBRANCH  13  18
ENDBRANCH   1   9
TORSDOF 7
ENDMDL
MODEL 7
REMARK VINA RESULT:     -10.0      2.724      5.812
REMARK  7 active torsions:
REMARK  status: ('A' for Active; 'I' for Inactive)
REMARK    1  A    between atoms: C_2  and  C_3 
REMARK    2  A    between atoms: C_3  and  N_4 
REMARK    3  A    between atoms: N_4  and  C_7 
REMARK    4  A    between atoms: C_12  and  N_13 
REMARK       I    between atoms: N_13  and  C_14 
REMARK    5  A    between atoms: C_14  and  C_16 
REMARK    6  A    between atoms: C_20  and  C_22 
REMARK       I    between atoms: N_26  and  C_27 
REMARK       I    between atoms: C_27  and  N_29 
REMARK    7  A    between atoms: N_29  and  C_30 
ROOT
HETATM    1  C   UNL     1       5.174  30.839  55.888  1.00  0.00     0.037 A 
HETATM    2  C   UNL     1       4.641  30.852  54.600  1.00  0.00     0.029 A 
HETATM    3  C   UNL     1       4.074  32.022  54.084  1.00  0.00     0.004 A 
HETATM    4  C   UNL     1       4.044  33.188  54.851  1.00  0.00     0.023 A 
HETATM    5  C   UNL     1       4.587  33.186  56.137  1.00  0.00     0.046 A 
HETATM    6  C   UNL     1       5.146  32.011  56.653  1.00  0.00     0.052 A 
HETATM    7  C   UNL     1       4.614  34.383  56.924  1.00  0.00     0.099 C 
HETATM    8  N   UNL     1       4.693  35.344  57.569  1.00  0.00    -0.191 NA
ENDROOT
BRANCH   1   9
HETATM    9  N   UNL     1       5.793  29.721  56.467  1.00  0.00    -0.309 N 
HETATM   10  C   UNL     1       5.274  28.468  56.685  1.00  0.00     0.323 C 
HETATM   11  N   UNL     1       6.229  27.547  57.121  1.00  0.00    -0.325 N 
HETATM   12  O   UNL     1       4.086  28.182  56.580  1.00  0.00    -0.247 OA
HETATM   13  C   UNL     1       7.591  27.426  56.574  1.00  0.00     0.122 C 
HETATM   14  C   UNL     1       5.769  26.244  57.592  1.00  0.00     0.128 C 
HETATM   15  C   UNL     1       8.122  26.134  57.205  1.00  0.00     0.032 C 
HETATM   16  C   UNL     1       6.878  25.260  57.240  1.00  0.00     0.022 C 
HETATM   17  H   UNL     1       6.618  29.907  57.011  1.00  0.00     0.170 HD
BRANCH  13  18
HETATM   18  C   UNL     1       8.513  28.606  56.785  1.00  0.00    -0.034 A 
HETATM   19  C   UNL     1       9.645  28.837  55.990  1.00  0.00     0.009 A 
HETATM   20  C   UNL     1      10.517  29.894  56.282  1.00  0.00     0.002 A 
HETATM   21  C   UNL     1      10.274  30.733  57.373  1.00  0.00     0.017 A 
HETATM   22  C   UNL     1       9.146  30.520  58.167  1.00  0.00     0.033 A 
HETATM   23  C   UNL     1       8.267  29.472  57.863  1.00  0.00     0.026 A 
BRANCH  22  24
HETATM   24  C   UNL     1       8.819  31.371  59.339  1.00  0.00     0.257 C 
HETATM   25  N   UNL     1       7.906  30.831  60.219  1.00  0.00    -0.301 N 
HETATM   26  H   UNL     1       7.471  29.937  60.050  1.00  0.00     0.171 HD
HETATM   27  O   UNL     1       9.329  32.483  59.390  1.00  0.00    -0.267 OA
BRANCH  25  28
HETATM   28  C   UNL     1       7.428  31.565  61.270  1.00  0.00     0.174 A 
HETATM   29  N   UNL     1       7.975  31.782  62.440  1.00  0.00    -0.228 NA
HETATM   30  C   UNL     1       7.178  32.611  63.179  1.00  0.00     0.050 A 
HETATM   31  C   UNL     1       7.589  33.046  64.540  1.00  0.00     0.062 C 
HETATM   32  C   UNL     1       6.026  33.033  62.551  1.00  0.00     0.013 A 
HETATM   33  C   UNL     1       6.413  33.697  65.289  1.00  0.00     0.039 C 
HETATM   34  C   UNL     1       5.635  34.671  64.379  1.00  0.00     0.191 C 
HETATM   35  C   UNL     1       5.014  33.944  63.150  1.00  0.00     0.081 C 
HETATM   36  S   UNL     1       5.919  32.333  60.998  1.00  0.00    -0.055 SA
BRANCH  34  37
HETATM   37  N   UNL     1       4.527  35.335  65.169  1.00  0.00    -0.071 N 
HETATM   38  H   UNL     1       4.484  34.929  66.115  1.00  0.00     0.277 HD
HETATM   39  H   UNL     1       3.624  35.108  64.729  1.00  0.00     0.277 HD
BRANCH  37  40
HETATM   40  C   UNL     1       4.616  36.830  65.276  1.00  0.00     0.232 C 
BRANCH  40  41
HETATM   41  C   UNL     1       4.928  37.408  63.902  1.00  0.00     0.023 C 
HETATM   42  C   UNL     1       5.931  38.548  64.004  1.00  0.00     0.007 C 
ENDBRANCH  40  41
ENDBRANCH  37  40
ENDBRANCH  34  37
ENDBRANCH  25  28
ENDBRANCH  22  24
ENDBRANCH  13  18
ENDBRANCH   1   9
TORSDOF 7
ENDMDL
MODEL 8
REMARK VINA RESULT:      -9.9      2.609      5.418
REMARK  7 active torsions:
REMARK  status: ('A' for Active; 'I' for Inactive)
REMARK    1  A    between atoms: C_2  and  C_3 
REMARK    2  A    between atoms: C_3  and  N_4 
REMARK    3  A    between atoms: N_4  and  C_7 
REMARK    4  A    between atoms: C_12  and  N_13 
REMARK       I    between atoms: N_13  and  C_14 
REMARK    5  A    between atoms: C_14  and  C_16 
REMARK    6  A    between atoms: C_20  and  C_22 
REMARK       I    between atoms: N_26  and  C_27 
REMARK       I    between atoms: C_27  and  N_29 
REMARK    7  A    between atoms: N_29  and  C_30 
ROOT
HETATM    1  C   UNL     1       8.677  29.737  57.766  1.00  0.00     0.037 A 
HETATM    2  C   UNL     1       9.782  30.396  57.228  1.00  0.00     0.029 A 
HETATM    3  C   UNL     1      10.485  31.332  57.994  1.00  0.00     0.004 A 
HETATM    4  C   UNL     1      10.093  31.607  59.305  1.00  0.00     0.023 A 
HETATM    5  C   UNL     1       8.996  30.942  59.854  1.00  0.00     0.046 A 
HETATM    6  C   UNL     1       8.290  30.012  59.082  1.00  0.00     0.052 A 
HETATM    7  C   UNL     1       8.606  31.170  61.213  1.00  0.00     0.099 C 
HETATM    8  N   UNL     1       8.291  31.297  62.323  1.00  0.00    -0.191 NA
ENDROOT
BRANCH   1   9
HETATM    9  N   UNL     1       7.940  28.759  57.081  1.00  0.00    -0.309 N 
HETATM   10  C   UNL     1       8.159  27.405  57.018  1.00  0.00     0.323 C 
HETATM   11  N   UNL     1       7.124  26.710  56.390  1.00  0.00    -0.325 N 
HETATM   12  O   UNL     1       9.181  26.849  57.406  1.00  0.00    -0.247 OA
HETATM   13  C   UNL     1       5.689  26.965  56.604  1.00  0.00     0.122 C 
HETATM   14  C   UNL     1       7.330  25.301  56.069  1.00  0.00     0.128 C 
HETATM   15  C   UNL     1       5.001  25.794  55.894  1.00  0.00     0.032 C 
HETATM   16  C   UNL     1       5.959  24.645  56.172  1.00  0.00     0.022 C 
HETATM   17  H   UNL     1       7.331  29.095  56.354  1.00  0.00     0.170 HD
BRANCH  13  18
HETATM   18  C   UNL     1       5.167  28.313  56.157  1.00  0.00    -0.034 A 
HETATM   19  C   UNL     1       4.755  28.570  54.841  1.00  0.00     0.009 A 
HETATM   20  C   UNL     1       4.364  29.858  54.456  1.00  0.00     0.002 A 
HETATM   21  C   UNL     1       4.381  30.909  55.376  1.00  0.00     0.017 A 
HETATM   22  C   UNL     1       4.780  30.666  56.691  1.00  0.00     0.033 A 
HETATM   23  C   UNL     1       5.155  29.373  57.077  1.00  0.00     0.026 A 
BRANCH  22  24
HETATM   24  C   UNL     1       4.822  31.730  57.726  1.00  0.00     0.257 C 
HETATM   25  N   UNL     1       4.956  31.283  59.022  1.00  0.00    -0.301 N 
HETATM   26  H   UNL     1       4.988  30.299  59.243  1.00  0.00     0.171 HD
HETATM   27  O   UNL     1       4.670  32.887  57.353  1.00  0.00    -0.267 OA
BRANCH  25  28
HETATM   28  C   UNL     1       4.881  32.154  60.074  1.00  0.00     0.174 A 
HETATM   29  N   UNL     1       5.790  32.984  60.523  1.00  0.00    -0.228 NA
HETATM   30  C   UNL     1       5.284  33.704  61.569  1.00  0.00     0.050 A 
HETATM   31  C   UNL     1       6.104  34.749  62.239  1.00  0.00     0.062 C 
HETATM   32  C   UNL     1       3.977  33.421  61.902  1.00  0.00     0.013 A 
HETATM   33  C   UNL     1       5.459  35.189  63.565  1.00  0.00     0.039 C 
HETATM   34  C   UNL     1       3.937  35.396  63.410  1.00  0.00     0.191 C 
HETATM   35  C   UNL     1       3.214  34.081  62.994  1.00  0.00     0.081 C 
HETATM   36  S   UNL     1       3.376  32.181  60.895  1.00  0.00    -0.055 SA
BRANCH  34  37
HETATM   37  N   UNL     1       3.351  35.887  64.717  1.00  0.00    -0.071 N 
HETATM   38  H   UNL     1       2.340  36.052  64.603  1.00  0.00     0.277 HD
HETATM   39  H   UNL     1       3.758  36.806  64.939  1.00  0.00     0.277 HD
BRANCH  37  40
HETATM   40  C   UNL     1       3.576  34.994  65.903  1.00  0.00     0.232 C 
BRANCH  40  41
HETATM   41  C   UNL     1       4.407  35.741  66.936  1.00  0.00     0.023 C 
HETATM   42  C   UNL     1       5.407  34.812  67.609  1.00  0.00     0.007 C 
ENDBRANCH  40  41
ENDBRANCH  37  40
ENDBRANCH  34  37
ENDBRANCH  25  28
ENDBRANCH  22  24
ENDBRANCH  13  18
ENDBRANCH   1   9
TORSDOF 7
ENDMDL
MODEL 9
REMARK VINA RESULT:      -9.9      5.124      9.500
REMARK  7 active torsions:
REMARK  status: ('A' for Active; 'I' for Inactive)
REMARK    1  A    between atoms: C_2  and  C_3 
REMARK    2  A    between atoms: C_3  and  N_4 
REMARK    3  A    between atoms: N_4  and  C_7 
REMARK    4  A    between atoms: C_12  and  N_13 
REMARK       I    between atoms: N_13  and  C_14 
REMARK    5  A    between atoms: C_14  and  C_16 
REMARK    6  A    between atoms: C_20  and  C_22 
REMARK       I    between atoms: N_26  and  C_27 
REMARK       I    between atoms: C_27  and  N_29 
REMARK    7  A    between atoms: N_29  and  C_30 
ROOT
HETATM    1  C   UNL     1       7.651  27.026  56.723  1.00  0.00     0.037 A 
HETATM    2  C   UNL     1       6.377  27.580  56.840  1.00  0.00     0.029 A 
HETATM    3  C   UNL     1       6.224  28.926  57.186  1.00  0.00     0.004 A 
HETATM    4  C   UNL     1       7.345  29.729  57.408  1.00  0.00     0.023 A 
HETATM    5  C   UNL     1       8.623  29.184  57.280  1.00  0.00     0.046 A 
HETATM    6  C   UNL     1       8.773  27.834  56.942  1.00  0.00     0.052 A 
HETATM    7  C   UNL     1       9.788  30.000  57.453  1.00  0.00     0.099 C 
HETATM    8  N   UNL     1      10.751  30.642  57.542  1.00  0.00    -0.191 NA
ENDROOT
BRANCH   1   9
HETATM    9  N   UNL     1       7.895  25.697  56.344  1.00  0.00    -0.309 N 
HETATM   10  C   UNL     1       8.183  24.615  57.141  1.00  0.00     0.323 C 
HETATM   11  N   UNL     1       8.192  23.407  56.443  1.00  0.00    -0.325 N 
HETATM   12  O   UNL     1       8.472  24.689  58.330  1.00  0.00    -0.247 OA
HETATM   13  C   UNL     1       7.202  23.016  55.425  1.00  0.00     0.122 C 
HETATM   14  C   UNL     1       8.691  22.217  57.126  1.00  0.00     0.128 C 
HETATM   15  C   UNL     1       7.511  21.538  55.165  1.00  0.00     0.032 C 
HETATM   16  C   UNL     1       7.905  21.046  56.549  1.00  0.00     0.022 C 
HETATM   17  H   UNL     1       8.134  25.551  55.378  1.00  0.00     0.170 HD
BRANCH  13  18
HETATM   18  C   UNL     1       7.171  23.842  54.158  1.00  0.00    -0.034 A 
HETATM   19  C   UNL     1       8.130  23.713  53.143  1.00  0.00     0.009 A 
HETATM   20  C   UNL     1       8.109  24.563  52.031  1.00  0.00     0.002 A 
HETATM   21  C   UNL     1       7.133  25.557  51.916  1.00  0.00     0.017 A 
HETATM   22  C   UNL     1       6.168  25.691  52.914  1.00  0.00     0.033 A 
HETATM   23  C   UNL     1       6.181  24.829  54.018  1.00  0.00     0.026 A 
BRANCH  22  24
HETATM   24  C   UNL     1       5.098  26.721  52.862  1.00  0.00     0.257 C 
HETATM   25  N   UNL     1       5.290  27.719  51.931  1.00  0.00    -0.301 N 
HETATM   26  H   UNL     1       6.118  27.756  51.356  1.00  0.00     0.171 HD
HETATM   27  O   UNL     1       4.190  26.633  53.678  1.00  0.00    -0.267 OA
BRANCH  25  28
HETATM   28  C   UNL     1       4.442  28.791  51.871  1.00  0.00     0.174 A 
HETATM   29  N   UNL     1       4.371  29.831  52.664  1.00  0.00    -0.228 NA
HETATM   30  C   UNL     1       3.408  30.692  52.216  1.00  0.00     0.050 A 
HETATM   31  C   UNL     1       3.149  31.976  52.920  1.00  0.00     0.062 C 
HETATM   32  C   UNL     1       2.759  30.301  51.065  1.00  0.00     0.013 A 
HETATM   33  C   UNL     1       1.834  32.612  52.439  1.00  0.00     0.039 C 
HETATM   34  C   UNL     1       1.704  32.545  50.902  1.00  0.00     0.191 C 
HETATM   35  C   UNL     1       1.686  31.077  50.387  1.00  0.00     0.081 C 
HETATM   36  S   UNL     1       3.346  28.783  50.551  1.00  0.00    -0.055 SA
BRANCH  34  37
HETATM   37  N   UNL     1       0.430  33.236  50.465  1.00  0.00    -0.071 N 
HETATM   38  H   UNL     1       0.078  32.799  49.601  1.00  0.00     0.277 HD
HETATM   39  H   UNL     1       0.649  34.210  50.213  1.00  0.00     0.277 HD
BRANCH  37  40
HETATM   40  C   UNL     1      -0.671  33.268  51.486  1.00  0.00     0.232 C 
BRANCH  40  41
HETATM   41  C   UNL     1      -1.779  32.319  51.051  1.00  0.00     0.023 C 
HETATM   42  C   UNL     1      -2.713  32.002  52.209  1.00  0.00     0.007 C 
ENDBRANCH  40  41
ENDBRANCH  37  40
ENDBRANCH  34  37
ENDBRANCH  25  28
ENDBRANCH  22  24
ENDBRANCH  13  18
ENDBRANCH   1   9
TORSDOF 7
ENDMDL
MODEL 10
REMARK VINA RESULT:      -9.9      2.439      5.033
REMARK  7 active torsions:
REMARK  status: ('A' for Active; 'I' for Inactive)
REMARK    1  A    between atoms: C_2  and  C_3 
REMARK    2  A    between atoms: C_3  and  N_4 
REMARK    3  A    between atoms: N_4  and  C_7 
REMARK    4  A    between atoms: C_12  and  N_13 
REMARK       I    between atoms: N_13  and  C_14 
REMARK    5  A    between atoms: C_14  and  C_16 
REMARK    6  A    between atoms: C_20  and  C_22 
REMARK       I    between atoms: N_26  and  C_27 
REMARK       I    between atoms: C_27  and  N_29 
REMARK    7  A    between atoms: N_29  and  C_30 
ROOT
HETATM    1  C   UNL     1       5.033  30.569  55.453  1.00  0.00     0.037 A 
HETATM    2  C   UNL     1       4.928  31.832  56.035  1.00  0.00     0.029 A 
HETATM    3  C   UNL     1       4.291  32.871  55.349  1.00  0.00     0.004 A 
HETATM    4  C   UNL     1       3.748  32.652  54.082  1.00  0.00     0.023 A 
HETATM    5  C   UNL     1       3.838  31.387  53.499  1.00  0.00     0.046 A 
HETATM    6  C   UNL     1       4.484  30.351  54.184  1.00  0.00     0.052 A 
HETATM    7  C   UNL     1       3.245  31.124  52.222  1.00  0.00     0.099 C 
HETATM    8  N   UNL     1       2.736  30.866  51.212  1.00  0.00    -0.191 NA
ENDROOT
BRANCH   1   9
HETATM    9  N   UNL     1       5.622  29.463  56.085  1.00  0.00    -0.309 N 
HETATM   10  C   UNL     1       5.083  28.223  56.324  1.00  0.00     0.323 C 
HETATM   11  N   UNL     1       6.013  27.306  56.817  1.00  0.00    -0.325 N 
HETATM   12  O   UNL     1       3.896  27.945  56.191  1.00  0.00    -0.247 OA
HETATM   13  C   UNL     1       7.391  27.154  56.317  1.00  0.00     0.122 C 
HETATM   14  C   UNL     1       5.525  26.022  57.312  1.00  0.00     0.128 C 
HETATM   15  C   UNL     1       7.888  25.877  57.002  1.00  0.00     0.032 C 
HETATM   16  C   UNL     1       6.634  25.017  57.025  1.00  0.00     0.022 C 
HETATM   17  H   UNL     1       6.432  29.658  56.648  1.00  0.00     0.170 HD
BRANCH  13  18
HETATM   18  C   UNL     1       8.319  28.331  56.520  1.00  0.00    -0.034 A 
HETATM   19  C   UNL     1       9.345  28.654  55.621  1.00  0.00     0.009 A 
HETATM   20  C   UNL     1      10.234  29.699  55.899  1.00  0.00     0.002 A 
HETATM   21  C   UNL     1      10.115  30.436  57.081  1.00  0.00     0.017 A 
HETATM   22  C   UNL     1       9.093  30.131  57.981  1.00  0.00     0.033 A 
HETATM   23  C   UNL     1       8.195  29.095  57.692  1.00  0.00     0.026 A 
BRANCH  22  24
HETATM   24  C   UNL     1       8.900  30.869  59.255  1.00  0.00     0.257 C 
HETATM   25  N   UNL     1       7.618  30.842  59.761  1.00  0.00    -0.301 N 
HETATM   26  H   UNL     1       6.866  30.380  59.274  1.00  0.00     0.171 HD
HETATM   27  O   UNL     1       9.861  31.481  59.704  1.00  0.00    -0.267 OA
BRANCH  25  28
HETATM   28  C   UNL     1       7.284  31.586  60.859  1.00  0.00     0.174 A 
HETATM   29  N   UNL     1       7.823  31.582  62.053  1.00  0.00    -0.228 NA
HETATM   30  C   UNL     1       7.211  32.516  62.842  1.00  0.00     0.050 A 
HETATM   31  C   UNL     1       7.660  32.741  64.241  1.00  0.00     0.062 C 
HETATM   32  C   UNL     1       6.209  33.238  62.230  1.00  0.00     0.013 A 
HETATM   33  C   UNL     1       6.639  33.587  65.019  1.00  0.00     0.039 C 
HETATM   34  C   UNL     1       6.137  34.780  64.178  1.00  0.00     0.191 C 
HETATM   35  C   UNL     1       5.411  34.310  62.883  1.00  0.00     0.081 C 
HETATM   36  S   UNL     1       6.001  32.700  60.624  1.00  0.00    -0.055 SA
BRANCH  34  37
HETATM   37  N   UNL     1       5.182  35.621  64.999  1.00  0.00    -0.071 N 
HETATM   38  H   UNL     1       5.133  36.572  64.605  1.00  0.00     0.277 HD
HETATM   39  H   UNL     1       5.570  35.733  65.947  1.00  0.00     0.277 HD
BRANCH  37  40
HETATM   40  C   UNL     1       3.792  35.070  65.140  1.00  0.00     0.232 C 
BRANCH  40  41
HETATM   41  C   UNL     1       3.352  35.201  66.591  1.00  0.00     0.023 C 
HETATM   42  C   UNL     1       4.238  34.369  67.508  1.00  0.00     0.007 C 
ENDBRANCH  40  41
ENDBRANCH  37  40
ENDBRANCH  34  37
ENDBRANCH  25  28
ENDBRANCH  22  24
ENDBRANCH  13  18
ENDBRANCH   1   9
TORSDOF 7
ENDMDL
