MODEL 1
REMARK VINA RESULT:      -9.3      0.000      0.000
REMARK  8 active torsions:
REMARK  status: ('A' for Active; 'I' for Inactive)
REMARK    1  A    between atoms: C_5  and  C_6 
REMARK    2  A    between atoms: N_7  and  N_8 
REMARK       I    between atoms: N_8  and  C_9 
REMARK    3  A    between atoms: C_9  and  C_10 
REMARK    4  A    between atoms: N_13  and  C_14 
REMARK    5  A    between atoms: C_18  and  N_19 
REMARK    6  A    between atoms: C_20  and  C_21 
REMARK    7  A    between atoms: C_21  and  N_22 
REMARK    8  A    between atoms: C_30  and  O_31 
ROOT
HETATM    1  C   UNL     1       5.379  29.367  55.278  1.00  0.00     0.170 A 
HETATM    2  N   UNL     1       4.474  30.204  54.696  1.00  0.00    -0.152 NA
HETATM    3  N   UNL     1       4.228  31.194  55.538  1.00  0.00     0.012 NA
HETATM    4  N   UNL     1       4.931  30.993  56.684  1.00  0.00    -0.215 N 
HETATM    5  C   UNL     1       5.732  29.865  56.524  1.00  0.00     0.096 A 
ENDROOT
BRANCH   1   6
HETATM    6  C   UNL     1       5.868  28.147  54.651  1.00  0.00     0.293 C 
HETATM    7  N   UNL     1       5.295  26.988  55.141  1.00  0.00    -0.242 N 
HETATM    8  H   UNL     1       4.596  27.034  55.880  1.00  0.00     0.192 HD
HETATM    9  O   UNL     1       6.728  28.203  53.775  1.00  0.00    -0.264 OA
BRANCH   7  10
HETATM   10  N   UNL     1       5.644  25.790  54.598  1.00  0.00    -0.183 NA
HETATM   11  C   UNL     1       6.730  25.250  55.053  1.00  0.00     0.153 C 
BRANCH  11  12
HETATM   12  C   UNL     1       7.192  23.940  54.545  1.00  0.00     0.017 A 
HETATM   13  C   UNL     1       7.417  22.918  55.473  1.00  0.00     0.034 A 
HETATM   14  C   UNL     1       7.847  21.668  55.024  1.00  0.00     0.012 A 
HETATM   15  C   UNL     1       8.050  21.429  53.665  1.00  0.00     0.022 A 
HETATM   16 BR   UNL     1       8.154  20.283  56.274  1.00  0.00    -0.051 Br
HETATM   17  C   UNL     1       7.824  22.450  52.741  1.00  0.00     0.039 A 
HETATM   18  C   UNL     1       7.398  23.701  53.180  1.00  0.00     0.077 A 
BRANCH  18  19
HETATM   19  O   UNL     1       7.199  24.648  52.213  1.00  0.00    -0.360 OA
HETATM   20  H   UNL     1       6.617  24.262  51.522  1.00  0.00     0.217 HD
ENDBRANCH  18  19
ENDBRANCH  11  12
ENDBRANCH   7  10
ENDBRANCH   1   6
BRANCH   5  21
HETATM   21  C   UNL     1       6.769  29.401  57.476  1.00  0.00     0.296 C 
BRANCH  21  22
HETATM   22  N   UNL     1       8.148  29.975  57.254  1.00  0.00    -0.066 N 
HETATM   23  H   UNL     1       8.022  30.792  56.637  1.00  0.00     0.280 HD
HETATM   24  C   UNL     1       8.829  30.427  58.526  1.00  0.00     0.235 C 
HETATM   25  C   UNL     1      10.142  31.114  58.174  1.00  0.00     0.028 C 
HETATM   26  C   UNL     1      11.053  30.208  57.355  1.00  0.00     0.003 C 
HETATM   27  C   UNL     1      10.333  29.670  56.124  1.00  0.00     0.028 C 
HETATM   28  C   UNL     1       9.017  28.998  56.489  1.00  0.00     0.235 C 
ENDBRANCH  21  22
ENDBRANCH   5  21
BRANCH   4  29
HETATM   29  C   UNL     1       4.767  31.805  57.832  1.00  0.00     0.225 A 
HETATM   30  N   UNL     1       5.453  32.949  57.944  1.00  0.00    -0.081 NA
HETATM   31  O   UNL     1       5.053  33.451  59.188  1.00  0.00    -0.103 OA
HETATM   32  N   UNL     1       4.169  32.588  59.816  1.00  0.00    -0.083 NA
HETATM   33  C   UNL     1       3.991  31.567  58.979  1.00  0.00     0.201 A 
BRANCH  33  34
HETATM   34  N   UNL     1       3.202  30.511  59.222  1.00  0.00    -0.379 N 
HETATM   35  H   UNL     1       2.245  30.494  58.877  1.00  0.00     0.158 HD
HETATM   36  H   UNL     1       3.436  29.757  59.865  1.00  0.00     0.158 HD
ENDBRANCH  33  34
ENDBRANCH   4  29
TORSDOF 8
ENDMDL
MODEL 2
REMARK VINA RESULT:      -9.1      3.952      8.499
REMARK  8 active torsions:
REMARK  status: ('A' for Active; 'I' for Inactive)
REMARK    1  A    between atoms: C_5  and  C_6 
REMARK    2  A    between atoms: N_7  and  N_8 
REMARK       I    between atoms: N_8  and  C_9 
REMARK    3  A    between atoms: C_9  and  C_10 
REMARK    4  A    between atoms: N_13  and  C_14 
REMARK    5  A    between atoms: C_18  and  N_19 
REMARK    6  A    between atoms: C_20  and  C_21 
REMARK    7  A    between atoms: C_21  and  N_22 
REMARK    8  A    between atoms: C_30  and  O_31 
ROOT
HETATM    1  C   UNL     1       5.496  28.185  55.315  1.00  0.00     0.170 A 
HETATM    2  N   UNL     1       4.212  28.568  55.060  1.00  0.00    -0.152 NA
HETATM    3  N   UNL     1       3.949  28.305  53.791  1.00  0.00     0.012 NA
HETATM    4  N   UNL     1       5.059  27.790  53.199  1.00  0.00    -0.215 N 
HETATM    5  C   UNL     1       6.050  27.637  54.166  1.00  0.00     0.096 A 
ENDROOT
BRANCH   1   6
HETATM    6  C   UNL     1       6.144  28.347  56.609  1.00  0.00     0.293 C 
HETATM    7  N   UNL     1       6.509  29.649  56.900  1.00  0.00    -0.242 N 
HETATM    8  H   UNL     1       6.321  30.396  56.235  1.00  0.00     0.192 HD
HETATM    9  O   UNL     1       6.336  27.373  57.332  1.00  0.00    -0.264 OA
BRANCH   7  10
HETATM   10  N   UNL     1       7.082  29.927  58.103  1.00  0.00    -0.183 NA
HETATM   11  C   UNL     1       6.869  31.114  58.579  1.00  0.00     0.153 C 
BRANCH  11  12
HETATM   12  C   UNL     1       7.430  31.514  59.887  1.00  0.00     0.017 A 
HETATM   13  C   UNL     1       6.710  32.435  60.656  1.00  0.00     0.034 A 
HETATM   14  C   UNL     1       7.211  32.827  61.898  1.00  0.00     0.012 A 
HETATM   15  C   UNL     1       8.414  32.310  62.379  1.00  0.00     0.022 A 
HETATM   16 BR   UNL     1       6.244  34.072  62.942  1.00  0.00    -0.051 Br
HETATM   17  C   UNL     1       9.130  31.392  61.610  1.00  0.00     0.039 A 
HETATM   18  C   UNL     1       8.640  30.996  60.368  1.00  0.00     0.077 A 
BRANCH  18  19
HETATM   19  O   UNL     1       9.399  30.093  59.676  1.00  0.00    -0.360 OA
HETATM   20  H   UNL     1      10.161  30.572  59.283  1.00  0.00     0.217 HD
ENDBRANCH  18  19
ENDBRANCH  11  12
ENDBRANCH   7  10
ENDBRANCH   1   6
BRANCH   5  21
HETATM   21  C   UNL     1       7.352  26.959  53.968  1.00  0.00     0.296 C 
BRANCH  21  22
HETATM   22  N   UNL     1       7.286  25.453  53.885  1.00  0.00    -0.066 N 
HETATM   23  H   UNL     1       6.287  25.216  53.778  1.00  0.00     0.280 HD
HETATM   24  C   UNL     1       8.051  24.875  52.716  1.00  0.00     0.235 C 
HETATM   25  C   UNL     1       7.800  23.373  52.646  1.00  0.00     0.028 C 
HETATM   26  C   UNL     1       8.176  22.677  53.948  1.00  0.00     0.003 C 
HETATM   27  C   UNL     1       7.483  23.325  55.141  1.00  0.00     0.028 C 
HETATM   28  C   UNL     1       7.731  24.826  55.190  1.00  0.00     0.235 C 
ENDBRANCH  21  22
ENDBRANCH   5  21
BRANCH   4  29
HETATM   29  C   UNL     1       5.137  27.543  51.808  1.00  0.00     0.225 A 
HETATM   30  N   UNL     1       5.406  28.547  50.965  1.00  0.00    -0.081 NA
HETATM   31  O   UNL     1       5.381  27.935  49.707  1.00  0.00    -0.103 OA
HETATM   32  N   UNL     1       5.062  26.590  49.810  1.00  0.00    -0.083 NA
HETATM   33  C   UNL     1       4.909  26.344  51.109  1.00  0.00     0.201 A 
BRANCH  33  34
HETATM   34  N   UNL     1       4.591  25.150  51.627  1.00  0.00    -0.379 N 
HETATM   35  H   UNL     1       3.667  24.752  51.474  1.00  0.00     0.158 HD
HETATM   36  H   UNL     1       5.162  24.649  52.305  1.00  0.00     0.158 HD
ENDBRANCH  33  34
ENDBRANCH   4  29
TORSDOF 8
ENDMDL
MODEL 3
REMARK VINA RESULT:      -8.9      2.453      3.635
REMARK  8 active torsions:
REMARK  status: ('A' for Active; 'I' for Inactive)
REMARK    1  A    between atoms: C_5  and  C_6 
REMARK    2  A    between atoms: N_7  and  N_8 
REMARK       I    between atoms: N_8  and  C_9 
REMARK    3  A    between atoms: C_9  and  C_10 
REMARK    4  A    between atoms: N_13  and  C_14 
REMARK    5  A    between atoms: C_18  and  N_19 
REMARK    6  A    between atoms: C_20  and  C_21 
REMARK    7  A    between atoms: C_21  and  N_22 
REMARK    8  A    between atoms: C_30  and  O_31 
ROOT
HETATM    1  C   UNL     1       4.358  30.828  58.318  1.00  0.00     0.170 A 
HETATM    2  N   UNL     1       3.025  30.765  58.599  1.00  0.00    -0.152 NA
HETATM    3  N   UNL     1       2.779  31.582  59.609  1.00  0.00     0.012 NA
HETATM    4  N   UNL     1       3.943  32.151  60.021  1.00  0.00    -0.215 N 
HETATM    5  C   UNL     1       4.966  31.739  59.170  1.00  0.00     0.096 A 
ENDROOT
BRANCH   1   6
HETATM    6  C   UNL     1       5.000  30.039  57.276  1.00  0.00     0.293 C 
HETATM    7  N   UNL     1       5.010  28.678  57.521  1.00  0.00    -0.242 N 
HETATM    8  H   UNL     1       4.594  28.307  58.372  1.00  0.00     0.192 HD
HETATM    9  O   UNL     1       5.486  30.591  56.292  1.00  0.00    -0.264 OA
BRANCH   7  10
HETATM   10  N   UNL     1       5.545  27.838  56.593  1.00  0.00    -0.183 NA
HETATM   11  C   UNL     1       5.326  26.573  56.772  1.00  0.00     0.153 C 
BRANCH  11  12
HETATM   12  C   UNL     1       5.846  25.575  55.814  1.00  0.00     0.017 A 
HETATM   13  C   UNL     1       6.713  24.589  56.297  1.00  0.00     0.034 A 
HETATM   14  C   UNL     1       7.216  23.629  55.418  1.00  0.00     0.012 A 
HETATM   15  C   UNL     1       6.861  23.640  54.069  1.00  0.00     0.022 A 
HETATM   16 BR   UNL     1       8.389  22.295  56.066  1.00  0.00    -0.051 Br
HETATM   17  C   UNL     1       5.997  24.625  53.589  1.00  0.00     0.039 A 
HETATM   18  C   UNL     1       5.492  25.589  54.458  1.00  0.00     0.077 A 
BRANCH  18  19
HETATM   19  O   UNL     1       4.651  26.518  53.911  1.00  0.00    -0.360 OA
HETATM   20  H   UNL     1       4.463  26.252  52.984  1.00  0.00     0.217 HD
ENDBRANCH  18  19
ENDBRANCH  11  12
ENDBRANCH   7  10
ENDBRANCH   1   6
BRANCH   5  21
HETATM   21  C   UNL     1       6.354  32.258  59.175  1.00  0.00     0.296 C 
BRANCH  21  22
HETATM   22  N   UNL     1       7.240  31.713  60.269  1.00  0.00    -0.066 N 
HETATM   23  H   UNL     1       6.654  31.060  60.812  1.00  0.00     0.280 HD
HETATM   24  C   UNL     1       8.451  30.969  59.754  1.00  0.00     0.235 C 
HETATM   25  C   UNL     1       9.192  30.343  60.930  1.00  0.00     0.028 C 
HETATM   26  C   UNL     1       9.587  31.386  61.968  1.00  0.00     0.003 C 
HETATM   27  C   UNL     1       8.382  32.207  62.413  1.00  0.00     0.028 C 
HETATM   28  C   UNL     1       7.644  32.813  61.228  1.00  0.00     0.235 C 
ENDBRANCH  21  22
ENDBRANCH   5  21
BRANCH   4  29
HETATM   29  C   UNL     1       4.029  32.962  61.178  1.00  0.00     0.225 A 
HETATM   30  N   UNL     1       3.821  34.280  61.085  1.00  0.00    -0.081 NA
HETATM   31  O   UNL     1       4.006  34.735  62.396  1.00  0.00    -0.103 OA
HETATM   32  N   UNL     1       4.357  33.695  63.242  1.00  0.00    -0.083 NA
HETATM   33  C   UNL     1       4.373  32.596  62.491  1.00  0.00     0.201 A 
BRANCH  33  34
HETATM   34  N   UNL     1       4.672  31.369  62.941  1.00  0.00    -0.379 N 
HETATM   35  H   UNL     1       4.200  30.553  62.559  1.00  0.00     0.158 HD
HETATM   36  H   UNL     1       5.248  31.184  63.759  1.00  0.00     0.158 HD
ENDBRANCH  33  34
ENDBRANCH   4  29
TORSDOF 8
ENDMDL
MODEL 4
REMARK VINA RESULT:      -8.8      3.250      5.353
REMARK  8 active torsions:
REMARK  status: ('A' for Active; 'I' for Inactive)
REMARK    1  A    between atoms: C_5  and  C_6 
REMARK    2  A    between atoms: N_7  and  N_8 
REMARK       I    between atoms: N_8  and  C_9 
REMARK    3  A    between atoms: C_9  and  C_10 
REMARK    4  A    between atoms: N_13  and  C_14 
REMARK    5  A    between atoms: C_18  and  N_19 
REMARK    6  A    between atoms: C_20  and  C_21 
REMARK    7  A    between atoms: C_21  and  N_22 
REMARK    8  A    between atoms: C_30  and  O_31 
ROOT
HETATM    1  C   UNL     1       4.438  32.317  59.619  1.00  0.00     0.170 A 
HETATM    2  N   UNL     1       3.080  32.293  59.752  1.00  0.00    -0.152 NA
HETATM    3  N   UNL     1       2.779  32.715  60.969  1.00  0.00     0.012 NA
HETATM    4  N   UNL     1       3.926  32.977  61.650  1.00  0.00    -0.215 N 
HETATM    5  C   UNL     1       5.007  32.797  60.791  1.00  0.00     0.096 A 
ENDROOT
BRANCH   1   6
HETATM    6  C   UNL     1       5.137  31.893  58.415  1.00  0.00     0.293 C 
HETATM    7  N   UNL     1       5.180  30.521  58.238  1.00  0.00    -0.242 N 
HETATM    8  H   UNL     1       4.747  29.903  58.920  1.00  0.00     0.192 HD
HETATM    9  O   UNL     1       5.639  32.725  57.664  1.00  0.00    -0.264 OA
BRANCH   7  10
HETATM   10  N   UNL     1       5.770  30.012  57.122  1.00  0.00    -0.183 NA
HETATM   11  C   UNL     1       5.523  28.767  56.862  1.00  0.00     0.153 C 
BRANCH  11  12
HETATM   12  C   UNL     1       6.098  28.118  55.664  1.00  0.00     0.017 A 
HETATM   13  C   UNL     1       5.368  27.088  55.061  1.00  0.00     0.034 A 
HETATM   14  C   UNL     1       5.882  26.461  53.924  1.00  0.00     0.012 A 
HETATM   15  C   UNL     1       7.109  26.851  53.386  1.00  0.00     0.022 A 
HETATM   16 BR   UNL     1       4.901  25.067  53.105  1.00  0.00    -0.051 Br
HETATM   17  C   UNL     1       7.834  27.878  53.990  1.00  0.00     0.039 A 
HETATM   18  C   UNL     1       7.331  28.508  55.125  1.00  0.00     0.077 A 
BRANCH  18  19
HETATM   19  O   UNL     1       8.102  29.506  55.657  1.00  0.00    -0.360 OA
HETATM   20  H   UNL     1       8.968  29.502  55.194  1.00  0.00     0.217 HD
ENDBRANCH  18  19
ENDBRANCH  11  12
ENDBRANCH   7  10
ENDBRANCH   1   6
BRANCH   5  21
HETATM   21  C   UNL     1       6.417  33.136  61.094  1.00  0.00     0.296 C 
BRANCH  21  22
HETATM   22  N   UNL     1       7.361  31.959  61.162  1.00  0.00    -0.066 N 
HETATM   23  H   UNL     1       6.794  31.126  60.943  1.00  0.00     0.280 HD
HETATM   24  C   UNL     1       8.505  32.042  60.178  1.00  0.00     0.235 C 
HETATM   25  C   UNL     1       9.307  30.748  60.232  1.00  0.00     0.028 C 
HETATM   26  C   UNL     1       9.812  30.454  61.639  1.00  0.00     0.003 C 
HETATM   27  C   UNL     1       8.671  30.472  62.650  1.00  0.00     0.028 C 
HETATM   28  C   UNL     1       7.871  31.764  62.575  1.00  0.00     0.235 C 
ENDBRANCH  21  22
ENDBRANCH   5  21
BRANCH   4  29
HETATM   29  C   UNL     1       3.937  33.308  63.027  1.00  0.00     0.225 A 
HETATM   30  N   UNL     1       4.619  32.548  63.890  1.00  0.00    -0.081 NA
HETATM   31  O   UNL     1       4.384  33.161  65.126  1.00  0.00    -0.103 OA
HETATM   32  N   UNL     1       3.537  34.251  64.991  1.00  0.00    -0.083 NA
HETATM   33  C   UNL     1       3.258  34.343  63.692  1.00  0.00     0.201 A 
BRANCH  33  34
HETATM   34  N   UNL     1       2.462  35.275  63.148  1.00  0.00    -0.379 N 
HETATM   35  H   UNL     1       2.502  35.465  62.150  1.00  0.00     0.158 HD
HETATM   36  H   UNL     1       1.901  35.933  63.685  1.00  0.00     0.158 HD
ENDBRANCH  33  34
ENDBRANCH   4  29
TORSDOF 8
ENDMDL
MODEL 5
REMARK VINA RESULT:      -8.8      4.665      9.070
REMARK  8 active torsions:
REMARK  status: ('A' for Active; 'I' for Inactive)
REMARK    1  A    between atoms: C_5  and  C_6 
REMARK    2  A    between atoms: N_7  and  N_8 
REMARK       I    between atoms: N_8  and  C_9 
REMARK    3  A    between atoms: C_9  and  C_10 
REMARK    4  A    between atoms: N_13  and  C_14 
REMARK    5  A    between atoms: C_18  and  N_19 
REMARK    6  A    between atoms: C_20  and  C_21 
REMARK    7  A    between atoms: C_21  and  N_22 
REMARK    8  A    between atoms: C_30  and  O_31 
ROOT
HETATM    1  C   UNL     1       5.175  31.012  57.916  1.00  0.00     0.170 A 
HETATM    2  N   UNL     1       4.003  31.151  57.232  1.00  0.00    -0.152 NA
HETATM    3  N   UNL     1       3.908  30.153  56.370  1.00  0.00     0.012 NA
HETATM    4  N   UNL     1       5.025  29.381  56.452  1.00  0.00    -0.215 N 
HETATM    5  C   UNL     1       5.828  29.866  57.481  1.00  0.00     0.096 A 
ENDROOT
BRANCH   1   6
HETATM    6  C   UNL     1       5.630  31.947  58.934  1.00  0.00     0.293 C 
HETATM    7  N   UNL     1       5.073  31.740  60.183  1.00  0.00    -0.242 N 
HETATM    8  H   UNL     1       4.404  30.987  60.328  1.00  0.00     0.192 HD
HETATM    9  O   UNL     1       6.431  32.833  58.648  1.00  0.00    -0.264 OA
BRANCH   7  10
HETATM   10  N   UNL     1       5.459  32.528  61.224  1.00  0.00    -0.183 NA
HETATM   11  C   UNL     1       5.230  32.061  62.411  1.00  0.00     0.153 C 
BRANCH  11  12
HETATM   12  C   UNL     1       5.627  32.827  63.611  1.00  0.00     0.017 A 
HETATM   13  C   UNL     1       4.620  33.460  64.349  1.00  0.00     0.034 A 
HETATM   14  C   UNL     1       4.962  34.185  65.492  1.00  0.00     0.012 A 
HETATM   15  C   UNL     1       6.291  34.283  65.904  1.00  0.00     0.022 A 
HETATM   16 BR   UNL     1       3.606  35.042  66.493  1.00  0.00    -0.051 Br
HETATM   17  C   UNL     1       7.293  33.652  65.167  1.00  0.00     0.039 A 
HETATM   18  C   UNL     1       6.962  32.928  64.024  1.00  0.00     0.077 A 
BRANCH  18  19
HETATM   19  O   UNL     1       8.001  32.338  63.357  1.00  0.00    -0.360 OA
HETATM   20  H   UNL     1       8.791  32.913  63.455  1.00  0.00     0.217 HD
ENDBRANCH  18  19
ENDBRANCH  11  12
ENDBRANCH   7  10
ENDBRANCH   1   6
BRANCH   5  21
HETATM   21  C   UNL     1       7.052  29.213  58.001  1.00  0.00     0.296 C 
BRANCH  21  22
HETATM   22  N   UNL     1       8.352  29.860  57.585  1.00  0.00    -0.066 N 
HETATM   23  H   UNL     1       8.103  30.574  56.883  1.00  0.00     0.280 HD
HETATM   24  C   UNL     1       9.088  30.530  58.723  1.00  0.00     0.235 C 
HETATM   25  C   UNL     1      10.302  31.266  58.169  1.00  0.00     0.028 C 
HETATM   26  C   UNL     1      11.222  30.333  57.392  1.00  0.00     0.003 C 
HETATM   27  C   UNL     1      10.458  29.579  56.309  1.00  0.00     0.028 C 
HETATM   28  C   UNL     1       9.241  28.861  56.874  1.00  0.00     0.235 C 
ENDBRANCH  21  22
ENDBRANCH   5  21
BRANCH   4  29
HETATM   29  C   UNL     1       5.285  28.318  55.553  1.00  0.00     0.225 A 
HETATM   30  N   UNL     1       5.765  28.579  54.332  1.00  0.00    -0.081 NA
HETATM   31  O   UNL     1       5.872  27.314  53.744  1.00  0.00    -0.103 OA
HETATM   32  N   UNL     1       5.422  26.323  54.603  1.00  0.00    -0.083 NA
HETATM   33  C   UNL     1       5.057  26.942  55.724  1.00  0.00     0.201 A 
BRANCH  33  34
HETATM   34  N   UNL     1       4.560  26.328  56.807  1.00  0.00    -0.379 N 
HETATM   35  H   UNL     1       4.744  26.697  57.737  1.00  0.00     0.158 HD
HETATM   36  H   UNL     1       4.117  25.412  56.793  1.00  0.00     0.158 HD
ENDBRANCH  33  34
ENDBRANCH   4  29
TORSDOF 8
ENDMDL
MODEL 6
REMARK VINA RESULT:      -8.7      2.125      2.938
REMARK  8 active torsions:
REMARK  status: ('A' for Active; 'I' for Inactive)
REMARK    1  A    between atoms: C_5  and  C_6 
REMARK    2  A    between atoms: N_7  and  N_8 
REMARK       I    between atoms: N_8  and  C_9 
REMARK    3  A    between atoms: C_9  and  C_10 
REMARK    4  A    between atoms: N_13  and  C_14 
REMARK    5  A    between atoms: C_18  and  N_19 
REMARK    6  A    between atoms: C_20  and  C_21 
REMARK    7  A    between atoms: C_21  and  N_22 
REMARK    8  A    between atoms: C_30  and  O_31 
ROOT
HETATM    1  C   UNL     1       5.089  30.147  57.468  1.00  0.00     0.170 A 
HETATM    2  N   UNL     1       3.738  30.005  57.342  1.00  0.00    -0.152 NA
HETATM    3  N   UNL     1       3.157  30.903  58.119  1.00  0.00     0.012 NA
HETATM    4  N   UNL     1       4.111  31.607  58.785  1.00  0.00    -0.215 N 
HETATM    5  C   UNL     1       5.363  31.192  58.340  1.00  0.00     0.096 A 
ENDROOT
BRANCH   1   6
HETATM    6  C   UNL     1       6.056  29.306  56.776  1.00  0.00     0.293 C 
HETATM    7  N   UNL     1       5.672  27.982  56.657  1.00  0.00    -0.242 N 
HETATM    8  H   UNL     1       4.782  27.670  57.039  1.00  0.00     0.192 HD
HETATM    9  O   UNL     1       7.111  29.783  56.367  1.00  0.00    -0.264 OA
BRANCH   7  10
HETATM   10  N   UNL     1       6.478  27.113  55.988  1.00  0.00    -0.183 NA
HETATM   11  C   UNL     1       5.930  26.003  55.604  1.00  0.00     0.153 C 
BRANCH  11  12
HETATM   12  C   UNL     1       6.710  24.997  54.854  1.00  0.00     0.017 A 
HETATM   13  C   UNL     1       6.900  23.741  55.442  1.00  0.00     0.034 A 
HETATM   14  C   UNL     1       7.627  22.767  54.756  1.00  0.00     0.012 A 
HETATM   15  C   UNL     1       8.161  23.031  53.494  1.00  0.00     0.022 A 
HETATM   16 BR   UNL     1       7.887  21.069  55.545  1.00  0.00    -0.051 Br
HETATM   17  C   UNL     1       7.971  24.284  52.910  1.00  0.00     0.039 A 
HETATM   18  C   UNL     1       7.249  25.263  53.588  1.00  0.00     0.077 A 
BRANCH  18  19
HETATM   19  O   UNL     1       7.106  26.464  52.949  1.00  0.00    -0.360 OA
HETATM   20  H   UNL     1       7.786  27.079  53.300  1.00  0.00     0.217 HD
ENDBRANCH  18  19
ENDBRANCH  11  12
ENDBRANCH   7  10
ENDBRANCH   1   6
BRANCH   5  21
HETATM   21  C   UNL     1       6.657  31.821  58.694  1.00  0.00     0.296 C 
BRANCH  21  22
HETATM   22  N   UNL     1       7.184  31.478  60.067  1.00  0.00    -0.066 N 
HETATM   23  H   UNL     1       6.551  30.756  60.444  1.00  0.00     0.280 HD
HETATM   24  C   UNL     1       8.594  30.933  60.057  1.00  0.00     0.235 C 
HETATM   25  C   UNL     1       8.969  30.490  61.466  1.00  0.00     0.028 C 
HETATM   26  C   UNL     1       8.826  31.624  62.472  1.00  0.00     0.003 C 
HETATM   27  C   UNL     1       7.434  32.244  62.411  1.00  0.00     0.028 C 
HETATM   28  C   UNL     1       7.067  32.668  60.997  1.00  0.00     0.235 C 
ENDBRANCH  21  22
ENDBRANCH   5  21
BRANCH   4  29
HETATM   29  C   UNL     1       3.799  32.542  59.801  1.00  0.00     0.225 A 
HETATM   30  N   UNL     1       3.826  33.853  59.532  1.00  0.00    -0.081 NA
HETATM   31  O   UNL     1       3.491  34.446  60.755  1.00  0.00    -0.103 OA
HETATM   32  N   UNL     1       3.307  33.490  61.741  1.00  0.00    -0.083 NA
HETATM   33  C   UNL     1       3.499  32.310  61.154  1.00  0.00     0.201 A 
BRANCH  33  34
HETATM   34  N   UNL     1       3.414  31.126  61.777  1.00  0.00    -0.379 N 
HETATM   35  H   UNL     1       4.218  30.503  61.808  1.00  0.00     0.158 HD
HETATM   36  H   UNL     1       2.544  30.716  62.110  1.00  0.00     0.158 HD
ENDBRANCH  33  34
ENDBRANCH   4  29
TORSDOF 8
ENDMDL
MODEL 7
REMARK VINA RESULT:      -8.5      5.271      8.321
REMARK  8 active torsions:
REMARK  status: ('A' for Active; 'I' for Inactive)
REMARK    1  A    between atoms: C_5  and  C_6 
REMARK    2  A    between atoms: N_7  and  N_8 
REMARK       I    between atoms: N_8  and  C_9 
REMARK    3  A    between atoms: C_9  and  C_10 
REMARK    4  A    between atoms: N_13  and  C_14 
REMARK    5  A    between atoms: C_18  and  N_19 
REMARK    6  A    between atoms: C_20  and  C_21 
REMARK    7  A    between atoms: C_21  and  N_22 
REMARK    8  A    between atoms: C_30  and  O_31 
ROOT
HETATM    1  C   UNL     1       6.935  25.024  52.763  1.00  0.00     0.170 A 
HETATM    2  N   UNL     1       7.820  24.190  52.145  1.00  0.00    -0.152 NA
HETATM    3  N   UNL     1       8.189  23.265  53.015  1.00  0.00     0.012 NA
HETATM    4  N   UNL     1       7.588  23.507  54.210  1.00  0.00    -0.215 N 
HETATM    5  C   UNL     1       6.725  24.590  54.064  1.00  0.00     0.096 A 
ENDROOT
BRANCH   1   6
HETATM    6  C   UNL     1       6.333  26.182  52.117  1.00  0.00     0.293 C 
HETATM    7  N   UNL     1       5.687  25.895  50.928  1.00  0.00    -0.242 N 
HETATM    8  H   UNL     1       5.664  24.942  50.574  1.00  0.00     0.192 HD
HETATM    9  O   UNL     1       6.434  27.297  52.624  1.00  0.00    -0.264 OA
BRANCH   7  10
HETATM   10  N   UNL     1       5.049  26.894  50.259  1.00  0.00    -0.183 NA
HETATM   11  C   UNL     1       4.501  26.568  49.131  1.00  0.00     0.153 C 
BRANCH  11  12
HETATM   12  C   UNL     1       3.767  27.572  48.331  1.00  0.00     0.017 A 
HETATM   13  C   UNL     1       2.526  27.206  47.798  1.00  0.00     0.034 A 
HETATM   14  C   UNL     1       1.805  28.134  47.044  1.00  0.00     0.012 A 
HETATM   15  C   UNL     1       2.306  29.417  46.821  1.00  0.00     0.022 A 
HETATM   16 BR   UNL     1       0.129  27.646  46.320  1.00  0.00    -0.051 Br
HETATM   17  C   UNL     1       3.544  29.779  47.354  1.00  0.00     0.039 A 
HETATM   18  C   UNL     1       4.272  28.859  48.105  1.00  0.00     0.077 A 
BRANCH  18  19
HETATM   19  O   UNL     1       5.474  29.291  48.594  1.00  0.00    -0.360 OA
HETATM   20  H   UNL     1       6.145  29.194  47.883  1.00  0.00     0.217 HD
ENDBRANCH  18  19
ENDBRANCH  11  12
ENDBRANCH   7  10
ENDBRANCH   1   6
BRANCH   5  21
HETATM   21  C   UNL     1       5.762  25.070  55.084  1.00  0.00     0.296 C 
BRANCH  21  22
HETATM   22  N   UNL     1       5.997  26.477  55.578  1.00  0.00    -0.066 N 
HETATM   23  H   UNL     1       5.827  27.096  54.770  1.00  0.00     0.280 HD
HETATM   24  C   UNL     1       5.079  26.886  56.707  1.00  0.00     0.235 C 
HETATM   25  C   UNL     1       5.304  28.358  57.027  1.00  0.00     0.028 C 
HETATM   26  C   UNL     1       6.760  28.645  57.372  1.00  0.00     0.003 C 
HETATM   27  C   UNL     1       7.696  28.141  56.279  1.00  0.00     0.028 C 
HETATM   28  C   UNL     1       7.450  26.673  55.959  1.00  0.00     0.235 C 
ENDBRANCH  21  22
ENDBRANCH   5  21
BRANCH   4  29
HETATM   29  C   UNL     1       7.897  22.775  55.382  1.00  0.00     0.225 A 
HETATM   30  N   UNL     1       8.197  23.422  56.514  1.00  0.00    -0.081 NA
HETATM   31  O   UNL     1       8.457  22.391  57.423  1.00  0.00    -0.103 OA
HETATM   32  N   UNL     1       8.347  21.149  56.817  1.00  0.00    -0.083 NA
HETATM   33  C   UNL     1       8.002  21.384  55.553  1.00  0.00     0.201 A 
BRANCH  33  34
HETATM   34  N   UNL     1       7.798  20.434  54.629  1.00  0.00    -0.379 N 
HETATM   35  H   UNL     1       7.109  20.571  53.894  1.00  0.00     0.158 HD
HETATM   36  H   UNL     1       8.184  19.493  54.680  1.00  0.00     0.158 HD
ENDBRANCH  33  34
ENDBRANCH   4  29
TORSDOF 8
ENDMDL
MODEL 8
REMARK VINA RESULT:      -8.4      1.778      2.283
REMARK  8 active torsions:
REMARK  status: ('A' for Active; 'I' for Inactive)
REMARK    1  A    between atoms: C_5  and  C_6 
REMARK    2  A    between atoms: N_7  and  N_8 
REMARK       I    between atoms: N_8  and  C_9 
REMARK    3  A    between atoms: C_9  and  C_10 
REMARK    4  A    between atoms: N_13  and  C_14 
REMARK    5  A    between atoms: C_18  and  N_19 
REMARK    6  A    between atoms: C_20  and  C_21 
REMARK    7  A    between atoms: C_21  and  N_22 
REMARK    8  A    between atoms: C_30  and  O_31 
ROOT
HETATM    1  C   UNL     1       5.651  28.475  54.782  1.00  0.00     0.170 A 
HETATM    2  N   UNL     1       4.785  29.103  53.936  1.00  0.00    -0.152 NA
HETATM    3  N   UNL     1       4.235  30.115  54.587  1.00  0.00     0.012 NA
HETATM    4  N   UNL     1       4.701  30.134  55.864  1.00  0.00    -0.215 N 
HETATM    5  C   UNL     1       5.662  29.136  56.003  1.00  0.00     0.096 A 
ENDROOT
BRANCH   1   6
HETATM    6  C   UNL     1       6.422  27.296  54.417  1.00  0.00     0.293 C 
HETATM    7  N   UNL     1       6.178  26.190  55.212  1.00  0.00    -0.242 N 
HETATM    8  H   UNL     1       5.509  26.247  55.976  1.00  0.00     0.192 HD
HETATM    9  O   UNL     1       7.217  27.340  53.481  1.00  0.00    -0.264 OA
BRANCH   7  10
HETATM   10  N   UNL     1       6.810  25.017  54.934  1.00  0.00    -0.183 NA
HETATM   11  C   UNL     1       6.986  24.211  55.934  1.00  0.00     0.153 C 
BRANCH  11  12
HETATM   12  C   UNL     1       7.645  22.902  55.740  1.00  0.00     0.017 A 
HETATM   13  C   UNL     1       7.638  22.348  54.455  1.00  0.00     0.034 A 
HETATM   14  C   UNL     1       8.258  21.116  54.239  1.00  0.00     0.012 A 
HETATM   15  C   UNL     1       8.883  20.437  55.285  1.00  0.00     0.022 A 
HETATM   16 BR   UNL     1       8.252  20.361  52.505  1.00  0.00    -0.051 Br
HETATM   17  C   UNL     1       8.888  20.992  56.565  1.00  0.00     0.039 A 
HETATM   18  C   UNL     1       8.270  22.219  56.792  1.00  0.00     0.077 A 
BRANCH  18  19
HETATM   19  O   UNL     1       8.319  22.696  58.073  1.00  0.00    -0.360 OA
HETATM   20  H   UNL     1       7.485  23.184  58.249  1.00  0.00     0.217 HD
ENDBRANCH  18  19
ENDBRANCH  11  12
ENDBRANCH   7  10
ENDBRANCH   1   6
BRANCH   5  21
HETATM   21  C   UNL     1       6.527  28.930  57.188  1.00  0.00     0.296 C 
BRANCH  21  22
HETATM   22  N   UNL     1       7.832  29.689  57.172  1.00  0.00    -0.066 N 
HETATM   23  H   UNL     1       7.683  30.500  56.551  1.00  0.00     0.280 HD
HETATM   24  C   UNL     1       8.262  30.189  58.532  1.00  0.00     0.235 C 
HETATM   25  C   UNL     1       9.505  31.056  58.378  1.00  0.00     0.028 C 
HETATM   26  C   UNL     1      10.636  30.305  57.687  1.00  0.00     0.003 C 
HETATM   27  C   UNL     1      10.174  29.712  56.360  1.00  0.00     0.028 C 
HETATM   28  C   UNL     1       8.925  28.860  56.527  1.00  0.00     0.235 C 
ENDBRANCH  21  22
ENDBRANCH   5  21
BRANCH   4  29
HETATM   29  C   UNL     1       4.190  31.012  56.850  1.00  0.00     0.225 A 
HETATM   30  N   UNL     1       3.615  30.516  57.951  1.00  0.00    -0.081 NA
HETATM   31  O   UNL     1       3.226  31.658  58.661  1.00  0.00    -0.103 OA
HETATM   32  N   UNL     1       3.538  32.813  57.961  1.00  0.00    -0.083 NA
HETATM   33  C   UNL     1       4.133  32.416  56.838  1.00  0.00     0.201 A 
BRANCH  33  34
HETATM   34  N   UNL     1       4.587  33.240  55.883  1.00  0.00    -0.379 N 
HETATM   35  H   UNL     1       5.027  32.864  55.046  1.00  0.00     0.158 HD
HETATM   36  H   UNL     1       4.663  34.250  55.987  1.00  0.00     0.158 HD
ENDBRANCH  33  34
ENDBRANCH   4  29
TORSDOF 8
ENDMDL
MODEL 9
REMARK VINA RESULT:      -8.3      4.014      8.949
REMARK  8 active torsions:
REMARK  status: ('A' for Active; 'I' for Inactive)
REMARK    1  A    between atoms: C_5  and  C_6 
REMARK    2  A    between atoms: N_7  and  N_8 
REMARK       I    between atoms: N_8  and  C_9 
REMARK    3  A    between atoms: C_9  and  C_10 
REMARK    4  A    between atoms: N_13  and  C_14 
REMARK    5  A    between atoms: C_18  and  N_19 
REMARK    6  A    between atoms: C_20  and  C_21 
REMARK    7  A    between atoms: C_21  and  N_22 
REMARK    8  A    between atoms: C_30  and  O_31 
ROOT
HETATM    1  C   UNL     1       4.940  30.543  57.198  1.00  0.00     0.170 A 
HETATM    2  N   UNL     1       3.872  30.510  56.349  1.00  0.00    -0.152 NA
HETATM    3  N   UNL     1       3.994  29.446  55.575  1.00  0.00     0.012 NA
HETATM    4  N   UNL     1       5.152  28.800  55.878  1.00  0.00    -0.215 N 
HETATM    5  C   UNL     1       5.749  29.440  56.961  1.00  0.00     0.096 A 
ENDROOT
BRANCH   1   6
HETATM    6  C   UNL     1       5.156  31.594  58.182  1.00  0.00     0.293 C 
HETATM    7  N   UNL     1       4.427  31.437  59.347  1.00  0.00    -0.242 N 
HETATM    8  H   UNL     1       3.805  30.641  59.460  1.00  0.00     0.192 HD
HETATM    9  O   UNL     1       5.921  32.523  57.938  1.00  0.00    -0.264 OA
BRANCH   7  10
HETATM   10  N   UNL     1       4.584  32.337  60.356  1.00  0.00    -0.183 NA
HETATM   11  C   UNL     1       3.919  32.099  61.443  1.00  0.00     0.153 C 
BRANCH  11  12
HETATM   12  C   UNL     1       4.031  33.003  62.608  1.00  0.00     0.017 A 
HETATM   13  C   UNL     1       5.213  32.966  63.357  1.00  0.00     0.034 A 
HETATM   14  C   UNL     1       5.351  33.812  64.459  1.00  0.00     0.012 A 
HETATM   15  C   UNL     1       4.329  34.691  64.817  1.00  0.00     0.022 A 
HETATM   16 BR   UNL     1       6.945  33.767  65.474  1.00  0.00    -0.051 Br
HETATM   17  C   UNL     1       3.151  34.726  64.069  1.00  0.00     0.039 A 
HETATM   18  C   UNL     1       3.003  33.884  62.970  1.00  0.00     0.077 A 
BRANCH  18  19
HETATM   19  O   UNL     1       1.820  33.978  62.288  1.00  0.00    -0.360 OA
HETATM   20  H   UNL     1       1.889  33.424  61.481  1.00  0.00     0.217 HD
ENDBRANCH  18  19
ENDBRANCH  11  12
ENDBRANCH   7  10
ENDBRANCH   1   6
BRANCH   5  21
HETATM   21  C   UNL     1       6.938  28.956  57.702  1.00  0.00     0.296 C 
BRANCH  21  22
HETATM   22  N   UNL     1       8.216  29.712  57.430  1.00  0.00    -0.066 N 
HETATM   23  H   UNL     1       7.952  30.518  56.843  1.00  0.00     0.280 HD
HETATM   24  C   UNL     1       8.896  30.223  58.680  1.00  0.00     0.235 C 
HETATM   25  C   UNL     1      10.088  31.086  58.285  1.00  0.00     0.028 C 
HETATM   26  C   UNL     1      11.066  30.327  57.398  1.00  0.00     0.003 C 
HETATM   27  C   UNL     1      10.361  29.724  56.188  1.00  0.00     0.028 C 
HETATM   28  C   UNL     1       9.166  28.876  56.597  1.00  0.00     0.235 C 
ENDBRANCH  21  22
ENDBRANCH   5  21
BRANCH   4  29
HETATM   29  C   UNL     1       5.635  27.704  55.123  1.00  0.00     0.225 A 
HETATM   30  N   UNL     1       6.300  27.921  53.983  1.00  0.00    -0.081 NA
HETATM   31  O   UNL     1       6.592  26.632  53.523  1.00  0.00    -0.103 OA
HETATM   32  N   UNL     1       6.068  25.668  54.369  1.00  0.00    -0.083 NA
HETATM   33  C   UNL     1       5.473  26.328  55.360  1.00  0.00     0.201 A 
BRANCH  33  34
HETATM   34  N   UNL     1       4.838  25.749  56.389  1.00  0.00    -0.379 N 
HETATM   35  H   UNL     1       4.208  26.293  56.975  1.00  0.00     0.158 HD
HETATM   36  H   UNL     1       5.044  24.815  56.737  1.00  0.00     0.158 HD
ENDBRANCH  33  34
ENDBRANCH   4  29
TORSDOF 8
ENDMDL
MODEL 10
REMARK VINA RESULT:      -8.2      6.110      8.596
REMARK  8 active torsions:
REMARK  status: ('A' for Active; 'I' for Inactive)
REMARK    1  A    between atoms: C_5  and  C_6 
REMARK    2  A    between atoms: N_7  and  N_8 
REMARK       I    between atoms: N_8  and  C_9 
REMARK    3  A    between atoms: C_9  and  C_10 
REMARK    4  A    between atoms: N_13  and  C_14 
REMARK    5  A    between atoms: C_18  and  N_19 
REMARK    6  A    between atoms: C_20  and  C_21 
REMARK    7  A    between atoms: C_21  and  N_22 
REMARK    8  A    between atoms: C_30  and  O_31 
ROOT
HETATM    1  C   UNL     1       3.695  27.146  48.524  1.00  0.00     0.170 A 
HETATM    2  N   UNL     1       3.744  26.305  47.451  1.00  0.00    -0.152 NA
HETATM    3  N   UNL     1       2.736  26.601  46.649  1.00  0.00     0.012 NA
HETATM    4  N   UNL     1       2.000  27.601  47.203  1.00  0.00    -0.215 N 
HETATM    5  C   UNL     1       2.626  28.019  48.374  1.00  0.00     0.096 A 
ENDROOT
BRANCH   1   6
HETATM    6  C   UNL     1       4.637  27.095  49.632  1.00  0.00     0.293 C 
HETATM    7  N   UNL     1       4.401  26.070  50.531  1.00  0.00    -0.242 N 
HETATM    8  H   UNL     1       3.620  25.433  50.388  1.00  0.00     0.192 HD
HETATM    9  O   UNL     1       5.538  27.926  49.718  1.00  0.00    -0.264 OA
BRANCH   7  10
HETATM   10  N   UNL     1       5.246  25.899  51.583  1.00  0.00    -0.183 NA
HETATM   11  C   UNL     1       5.079  24.821  52.283  1.00  0.00     0.153 C 
BRANCH  11  12
HETATM   12  C   UNL     1       5.954  24.527  53.437  1.00  0.00     0.017 A 
HETATM   13  C   UNL     1       6.911  23.516  53.294  1.00  0.00     0.034 A 
HETATM   14  C   UNL     1       7.758  23.220  54.364  1.00  0.00     0.012 A 
HETATM   15  C   UNL     1       7.661  23.920  55.567  1.00  0.00     0.022 A 
HETATM   16 BR   UNL     1       9.053  21.855  54.178  1.00  0.00    -0.051 Br
HETATM   17  C   UNL     1       6.705  24.927  55.707  1.00  0.00     0.039 A 
HETATM   18  C   UNL     1       5.855  25.228  54.646  1.00  0.00     0.077 A 
BRANCH  18  19
HETATM   19  O   UNL     1       4.947  26.228  54.862  1.00  0.00    -0.360 OA
HETATM   20  H   UNL     1       4.908  26.402  55.827  1.00  0.00     0.217 HD
ENDBRANCH  18  19
ENDBRANCH  11  12
ENDBRANCH   7  10
ENDBRANCH   1   6
BRANCH   5  21
HETATM   21  C   UNL     1       2.237  29.194  49.190  1.00  0.00     0.296 C 
BRANCH  21  22
HETATM   22  N   UNL     1       3.142  29.492  50.361  1.00  0.00    -0.066 N 
HETATM   23  H   UNL     1       3.988  28.918  50.221  1.00  0.00     0.280 HD
HETATM   24  C   UNL     1       3.548  30.944  50.461  1.00  0.00     0.235 C 
HETATM   25  C   UNL     1       4.566  31.104  51.583  1.00  0.00     0.028 C 
HETATM   26  C   UNL     1       4.027  30.592  52.912  1.00  0.00     0.003 C 
HETATM   27  C   UNL     1       3.522  29.159  52.788  1.00  0.00     0.028 C 
HETATM   28  C   UNL     1       2.517  29.011  51.655  1.00  0.00     0.235 C 
ENDBRANCH  21  22
ENDBRANCH   5  21
BRANCH   4  29
HETATM   29  C   UNL     1       0.772  28.041  46.652  1.00  0.00     0.225 A 
HETATM   30  N   UNL     1      -0.295  27.235  46.673  1.00  0.00    -0.081 NA
HETATM   31  O   UNL     1      -1.289  27.988  46.038  1.00  0.00    -0.103 OA
HETATM   32  N   UNL     1      -0.795  29.212  45.613  1.00  0.00    -0.083 NA
HETATM   33  C   UNL     1       0.482  29.247  45.991  1.00  0.00     0.201 A 
BRANCH  33  34
HETATM   34  N   UNL     1       1.317  30.270  45.763  1.00  0.00    -0.379 N 
HETATM   35  H   UNL     1       1.640  30.851  46.533  1.00  0.00     0.158 HD
HETATM   36  H   UNL     1       1.554  30.621  44.837  1.00  0.00     0.158 HD
ENDBRANCH  33  34
ENDBRANCH   4  29
TORSDOF 8
ENDMDL
