MODEL 1
REMARK VINA RESULT:     -10.5      0.000      0.000
REMARK  3 active torsions:
REMARK  status: ('A' for Active; 'I' for Inactive)
REMARK    1  A    between atoms: N_4  and  C_5 
REMARK    2  A    between atoms: C_5  and  C_6 
REMARK       I    between atoms: C_6  and  N_7 
REMARK    3  A    between atoms: N_7  and  C_8 
ROOT
HETATM    1  C   UNL     1       6.843  26.536  56.152  1.00  0.00     0.257 C 
ENDROOT
BRANCH   1   2
HETATM    2  N   UNL     1       7.286  25.369  55.388  1.00  0.00    -0.225 N 
HETATM    3  N   UNL     1       7.356  25.548  54.025  1.00  0.00    -0.173 NA
HETATM    4  C   UNL     1       7.553  24.525  53.253  1.00  0.00     0.062 A 
HETATM    5  C   UNL     1       7.600  24.774  51.762  1.00  0.00     0.073 C 
HETATM    6  C   UNL     1       7.711  23.148  53.756  1.00  0.00     0.006 A 
HETATM    7  C   UNL     1       7.625  22.964  55.132  1.00  0.00     0.046 A 
HETATM    8  C   UNL     1       7.930  22.048  52.917  1.00  0.00     0.014 A 
HETATM    9  C   UNL     1       7.360  24.124  56.003  1.00  0.00     0.275 A 
HETATM   10  C   UNL     1       7.768  21.683  55.680  1.00  0.00     0.018 A 
HETATM   11  O   UNL     1       7.223  23.958  57.215  1.00  0.00    -0.266 OA
HETATM   12  C   UNL     1       7.988  20.587  54.845  1.00  0.00     0.001 A 
HETATM   13  C   UNL     1       8.066  20.771  53.466  1.00  0.00     0.001 A 
ENDBRANCH   1   2
BRANCH   1  14
HETATM   14  C   UNL     1       7.573  27.852  55.867  1.00  0.00     0.238 C 
HETATM   15  N   UNL     1       8.602  28.163  56.728  1.00  0.00    -0.351 N 
HETATM   16  H   UNL     1       8.835  27.502  57.469  1.00  0.00     0.163 HD
HETATM   17  O   UNL     1       7.162  28.652  55.027  1.00  0.00    -0.272 OA
BRANCH  15  18
HETATM   18  C   UNL     1       9.193  29.476  56.756  1.00  0.00     0.118 C 
HETATM   19  C   UNL     1       8.776  30.298  57.945  1.00  0.00    -0.029 A 
HETATM   20  C   UNL     1       9.862  31.032  58.440  1.00  0.00    -0.050 A 
HETATM   21  C   UNL     1       7.512  30.442  58.501  1.00  0.00     0.010 A 
HETATM   22  C   UNL     1       9.710  31.915  59.497  1.00  0.00     0.007 A 
HETATM   23  C   UNL     1      11.097  30.759  57.639  1.00  0.00     0.041 C 
HETATM   24  C   UNL     1       8.444  32.050  60.070  1.00  0.00     0.001 A 
HETATM   25  C   UNL     1       7.353  31.318  59.577  1.00  0.00     0.001 A 
HETATM   26  C   UNL     1      10.721  29.444  56.943  1.00  0.00     0.034 C 
ENDBRANCH  15  18
ENDBRANCH   1  14
TORSDOF 3
ENDMDL
MODEL 2
REMARK VINA RESULT:     -10.3      1.363      8.293
REMARK  3 active torsions:
REMARK  status: ('A' for Active; 'I' for Inactive)
REMARK    1  A    between atoms: N_4  and  C_5 
REMARK    2  A    between atoms: C_5  and  C_6 
REMARK       I    between atoms: C_6  and  N_7 
REMARK    3  A    between atoms: N_7  and  C_8 
ROOT
HETATM    1  C   UNL     1       6.579  28.496  55.681  1.00  0.00     0.257 C 
ENDROOT
BRANCH   1   2
HETATM    2  N   UNL     1       7.358  29.408  56.520  1.00  0.00    -0.225 N 
HETATM    3  N   UNL     1       8.724  29.290  56.409  1.00  0.00    -0.173 NA
HETATM    4  C   UNL     1       9.493  29.918  57.244  1.00  0.00     0.062 A 
HETATM    5  C   UNL     1      10.986  29.736  57.091  1.00  0.00     0.073 C 
HETATM    6  C   UNL     1       8.981  30.772  58.332  1.00  0.00     0.006 A 
HETATM    7  C   UNL     1       7.600  30.879  58.454  1.00  0.00     0.046 A 
HETATM    8  C   UNL     1       9.816  31.452  59.227  1.00  0.00     0.014 A 
HETATM    9  C   UNL     1       6.729  30.132  57.528  1.00  0.00     0.275 A 
HETATM   10  C   UNL     1       7.043  31.675  59.464  1.00  0.00     0.018 A 
HETATM   11  O   UNL     1       5.507  30.176  57.669  1.00  0.00    -0.266 OA
HETATM   12  C   UNL     1       7.874  32.355  60.354  1.00  0.00     0.001 A 
HETATM   13  C   UNL     1       9.259  32.239  60.237  1.00  0.00     0.001 A 
ENDBRANCH   1   2
BRANCH   1  14
HETATM   14  C   UNL     1       6.364  27.082  56.231  1.00  0.00     0.238 C 
HETATM   15  N   UNL     1       7.398  26.198  56.025  1.00  0.00    -0.351 N 
HETATM   16  H   UNL     1       8.240  26.531  55.556  1.00  0.00     0.163 HD
HETATM   17  O   UNL     1       5.277  26.722  56.682  1.00  0.00    -0.272 OA
BRANCH  15  18
HETATM   18  C   UNL     1       7.234  24.782  56.237  1.00  0.00     0.118 C 
HETATM   19  C   UNL     1       7.494  23.956  55.006  1.00  0.00    -0.029 A 
HETATM   20  C   UNL     1       8.183  22.782  55.339  1.00  0.00    -0.050 A 
HETATM   21  C   UNL     1       7.086  24.191  53.701  1.00  0.00     0.010 A 
HETATM   22  C   UNL     1       8.479  21.827  54.381  1.00  0.00     0.007 A 
HETATM   23  C   UNL     1       8.454  22.724  56.811  1.00  0.00     0.041 C 
HETATM   24  C   UNL     1       8.086  22.067  53.063  1.00  0.00     0.001 A 
HETATM   25  C   UNL     1       7.395  23.241  52.725  1.00  0.00     0.001 A 
HETATM   26  C   UNL     1       8.274  24.195  57.209  1.00  0.00     0.034 C 
ENDBRANCH  15  18
ENDBRANCH   1  14
TORSDOF 3
ENDMDL
MODEL 3
REMARK VINA RESULT:     -10.0      1.278      2.108
REMARK  3 active torsions:
REMARK  status: ('A' for Active; 'I' for Inactive)
REMARK    1  A    between atoms: N_4  and  C_5 
REMARK    2  A    between atoms: C_5  and  C_6 
REMARK       I    between atoms: C_6  and  N_7 
REMARK    3  A    between atoms: N_7  and  C_8 
ROOT
HETATM    1  C   UNL     1       6.546  26.900  54.724  1.00  0.00     0.257 C 
ENDROOT
BRANCH   1   2
HETATM    2  N   UNL     1       6.951  25.504  54.894  1.00  0.00    -0.225 N 
HETATM    3  N   UNL     1       7.511  25.197  56.114  1.00  0.00    -0.173 NA
HETATM    4  C   UNL     1       8.071  24.040  56.289  1.00  0.00     0.062 A 
HETATM    5  C   UNL     1       8.689  23.762  57.640  1.00  0.00     0.073 C 
HETATM    6  C   UNL     1       8.146  23.008  55.238  1.00  0.00     0.006 A 
HETATM    7  C   UNL     1       7.595  23.324  54.001  1.00  0.00     0.046 A 
HETATM    8  C   UNL     1       8.747  21.758  55.436  1.00  0.00     0.014 A 
HETATM    9  C   UNL     1       6.996  24.655  53.793  1.00  0.00     0.275 A 
HETATM   10  C   UNL     1       7.630  22.391  52.957  1.00  0.00     0.018 A 
HETATM   11  O   UNL     1       6.561  24.961  52.683  1.00  0.00    -0.266 OA
HETATM   12  C   UNL     1       8.225  21.145  53.154  1.00  0.00     0.001 A 
HETATM   13  C   UNL     1       8.786  20.832  54.391  1.00  0.00     0.001 A 
ENDBRANCH   1   2
BRANCH   1  14
HETATM   14  C   UNL     1       7.664  27.946  54.793  1.00  0.00     0.238 C 
HETATM   15  N   UNL     1       8.043  28.332  56.058  1.00  0.00    -0.351 N 
HETATM   16  H   UNL     1       7.593  27.890  56.860  1.00  0.00     0.163 HD
HETATM   17  O   UNL     1       8.078  28.517  53.785  1.00  0.00    -0.272 OA
BRANCH  15  18
HETATM   18  C   UNL     1       8.874  29.489  56.278  1.00  0.00     0.118 C 
HETATM   19  C   UNL     1       8.519  30.256  57.523  1.00  0.00    -0.029 A 
HETATM   20  C   UNL     1       9.679  30.700  58.172  1.00  0.00    -0.050 A 
HETATM   21  C   UNL     1       7.263  30.598  58.003  1.00  0.00     0.010 A 
HETATM   22  C   UNL     1       9.608  31.487  59.310  1.00  0.00     0.007 A 
HETATM   23  C   UNL     1      10.904  30.263  57.431  1.00  0.00     0.041 C 
HETATM   24  C   UNL     1       8.346  31.819  59.807  1.00  0.00     0.001 A 
HETATM   25  C   UNL     1       7.182  31.377  59.160  1.00  0.00     0.001 A 
HETATM   26  C   UNL     1      10.343  29.128  56.563  1.00  0.00     0.034 C 
ENDBRANCH  15  18
ENDBRANCH   1  14
TORSDOF 3
ENDMDL
MODEL 4
REMARK VINA RESULT:      -9.9      2.619      4.035
REMARK  3 active torsions:
REMARK  status: ('A' for Active; 'I' for Inactive)
REMARK    1  A    between atoms: N_4  and  C_5 
REMARK    2  A    between atoms: C_5  and  C_6 
REMARK       I    between atoms: C_6  and  N_7 
REMARK    3  A    between atoms: N_7  and  C_8 
ROOT
HETATM    1  C   UNL     1       7.837  25.394  57.529  1.00  0.00     0.257 C 
ENDROOT
BRANCH   1   2
HETATM    2  N   UNL     1       8.038  24.539  56.359  1.00  0.00    -0.225 N 
HETATM    3  N   UNL     1       7.782  25.133  55.144  1.00  0.00    -0.173 NA
HETATM    4  C   UNL     1       7.749  24.407  54.069  1.00  0.00     0.062 A 
HETATM    5  C   UNL     1       7.441  25.106  52.764  1.00  0.00     0.073 C 
HETATM    6  C   UNL     1       7.975  22.950  54.068  1.00  0.00     0.006 A 
HETATM    7  C   UNL     1       8.218  22.347  55.297  1.00  0.00     0.046 A 
HETATM    8  C   UNL     1       7.943  22.173  52.904  1.00  0.00     0.014 A 
HETATM    9  C   UNL     1       8.215  23.169  56.521  1.00  0.00     0.275 A 
HETATM   10  C   UNL     1       8.443  20.966  55.371  1.00  0.00     0.018 A 
HETATM   11  O   UNL     1       8.370  22.632  57.618  1.00  0.00    -0.266 OA
HETATM   12  C   UNL     1       8.415  20.192  54.211  1.00  0.00     0.001 A 
HETATM   13  C   UNL     1       8.161  20.795  52.980  1.00  0.00     0.001 A 
ENDBRANCH   1   2
BRANCH   1  14
HETATM   14  C   UNL     1       7.737  26.900  57.263  1.00  0.00     0.238 C 
HETATM   15  N   UNL     1       6.556  27.330  56.702  1.00  0.00    -0.351 N 
HETATM   16  H   UNL     1       5.819  26.646  56.529  1.00  0.00     0.163 HD
HETATM   17  O   UNL     1       8.708  27.645  57.391  1.00  0.00    -0.272 OA
BRANCH  15  18
HETATM   18  C   UNL     1       6.420  28.653  56.148  1.00  0.00     0.118 C 
HETATM   19  C   UNL     1       5.400  28.741  55.045  1.00  0.00    -0.029 A 
HETATM   20  C   UNL     1       4.670  29.933  55.146  1.00  0.00    -0.050 A 
HETATM   21  C   UNL     1       5.186  27.866  53.990  1.00  0.00     0.010 A 
HETATM   22  C   UNL     1       3.714  30.271  54.202  1.00  0.00     0.007 A 
HETATM   23  C   UNL     1       5.126  30.737  56.324  1.00  0.00     0.041 C 
HETATM   24  C   UNL     1       3.483  29.386  53.148  1.00  0.00     0.001 A 
HETATM   25  C   UNL     1       4.212  28.192  53.042  1.00  0.00     0.001 A 
HETATM   26  C   UNL     1       5.854  29.671  57.155  1.00  0.00     0.034 C 
ENDBRANCH  15  18
ENDBRANCH   1  14
TORSDOF 3
ENDMDL
MODEL 5
REMARK VINA RESULT:      -9.6      2.048      3.011
REMARK  3 active torsions:
REMARK  status: ('A' for Active; 'I' for Inactive)
REMARK    1  A    between atoms: N_4  and  C_5 
REMARK    2  A    between atoms: C_5  and  C_6 
REMARK       I    between atoms: C_6  and  N_7 
REMARK    3  A    between atoms: N_7  and  C_8 
ROOT
HETATM    1  C   UNL     1       6.689  28.458  57.311  1.00  0.00     0.257 C 
ENDROOT
BRANCH   1   2
HETATM    2  N   UNL     1       7.201  27.331  56.531  1.00  0.00    -0.225 N 
HETATM    3  N   UNL     1       6.975  27.401  55.175  1.00  0.00    -0.173 NA
HETATM    4  C   UNL     1       7.221  26.369  54.429  1.00  0.00     0.062 A 
HETATM    5  C   UNL     1       6.933  26.492  52.950  1.00  0.00     0.073 C 
HETATM    6  C   UNL     1       7.742  25.094  54.956  1.00  0.00     0.006 A 
HETATM    7  C   UNL     1       7.956  25.017  56.328  1.00  0.00     0.046 A 
HETATM    8  C   UNL     1       8.012  23.985  54.144  1.00  0.00     0.014 A 
HETATM    9  C   UNL     1       7.637  26.179  57.177  1.00  0.00     0.275 A 
HETATM   10  C   UNL     1       8.452  23.837  56.897  1.00  0.00     0.018 A 
HETATM   11  O   UNL     1       7.768  26.096  58.398  1.00  0.00    -0.266 OA
HETATM   12  C   UNL     1       8.724  22.733  56.089  1.00  0.00     0.001 A 
HETATM   13  C   UNL     1       8.500  22.807  54.715  1.00  0.00     0.001 A 
ENDBRANCH   1   2
BRANCH   1  14
HETATM   14  C   UNL     1       7.736  29.379  57.945  1.00  0.00     0.238 C 
HETATM   15  N   UNL     1       7.396  29.922  59.163  1.00  0.00    -0.351 N 
HETATM   16  H   UNL     1       6.502  29.663  59.580  1.00  0.00     0.163 HD
HETATM   17  O   UNL     1       8.741  29.735  57.329  1.00  0.00    -0.272 OA
BRANCH  15  18
HETATM   18  C   UNL     1       8.147  31.006  59.744  1.00  0.00     0.118 C 
HETATM   19  C   UNL     1       7.319  31.911  60.615  1.00  0.00    -0.029 A 
HETATM   20  C   UNL     1       8.044  32.295  61.751  1.00  0.00    -0.050 A 
HETATM   21  C   UNL     1       6.048  32.416  60.381  1.00  0.00     0.010 A 
HETATM   22  C   UNL     1       7.515  33.182  62.674  1.00  0.00     0.007 A 
HETATM   23  C   UNL     1       9.407  31.675  61.747  1.00  0.00     0.041 C 
HETATM   24  C   UNL     1       6.229  33.680  62.452  1.00  0.00     0.001 A 
HETATM   25  C   UNL     1       5.500  33.299  61.315  1.00  0.00     0.001 A 
HETATM   26  C   UNL     1       9.214  30.528  60.745  1.00  0.00     0.034 C 
ENDBRANCH  15  18
ENDBRANCH   1  14
TORSDOF 3
ENDMDL
MODEL 6
REMARK VINA RESULT:      -9.6      3.943      7.601
REMARK  3 active torsions:
REMARK  status: ('A' for Active; 'I' for Inactive)
REMARK    1  A    between atoms: N_4  and  C_5 
REMARK    2  A    between atoms: C_5  and  C_6 
REMARK       I    between atoms: C_6  and  N_7 
REMARK    3  A    between atoms: N_7  and  C_8 
ROOT
HETATM    1  C   UNL     1       4.994  26.747  54.125  1.00  0.00     0.257 C 
ENDROOT
BRANCH   1   2
HETATM    2  N   UNL     1       5.905  25.657  54.479  1.00  0.00    -0.225 N 
HETATM    3  N   UNL     1       6.668  25.868  55.605  1.00  0.00    -0.173 NA
HETATM    4  C   UNL     1       7.633  25.049  55.889  1.00  0.00     0.062 A 
HETATM    5  C   UNL     1       8.454  25.340  57.124  1.00  0.00     0.073 C 
HETATM    6  C   UNL     1       7.970  23.876  55.061  1.00  0.00     0.006 A 
HETATM    7  C   UNL     1       7.210  23.671  53.915  1.00  0.00     0.046 A 
HETATM    8  C   UNL     1       9.009  22.992  55.377  1.00  0.00     0.014 A 
HETATM    9  C   UNL     1       6.140  24.627  53.574  1.00  0.00     0.275 A 
HETATM   10  C   UNL     1       7.473  22.575  53.083  1.00  0.00     0.018 A 
HETATM   11  O   UNL     1       5.504  24.484  52.531  1.00  0.00    -0.266 OA
HETATM   12  C   UNL     1       8.507  21.693  53.398  1.00  0.00     0.001 A 
HETATM   13  C   UNL     1       9.275  21.904  54.542  1.00  0.00     0.001 A 
ENDBRANCH   1   2
BRANCH   1  14
HETATM   14  C   UNL     1       5.362  27.563  52.882  1.00  0.00     0.238 C 
HETATM   15  N   UNL     1       4.538  27.395  51.792  1.00  0.00    -0.351 N 
HETATM   16  H   UNL     1       3.732  26.776  51.879  1.00  0.00     0.163 HD
HETATM   17  O   UNL     1       6.413  28.199  52.813  1.00  0.00    -0.272 OA
BRANCH  15  18
HETATM   18  C   UNL     1       4.908  27.875  50.485  1.00  0.00     0.118 C 
HETATM   19  C   UNL     1       4.191  27.175  49.363  1.00  0.00    -0.029 A 
HETATM   20  C   UNL     1       3.840  28.088  48.359  1.00  0.00    -0.050 A 
HETATM   21  C   UNL     1       3.935  25.820  49.208  1.00  0.00     0.010 A 
HETATM   22  C   UNL     1       3.226  27.669  47.190  1.00  0.00     0.007 A 
HETATM   23  C   UNL     1       4.276  29.473  48.724  1.00  0.00     0.041 C 
HETATM   24  C   UNL     1       2.951  26.309  47.038  1.00  0.00     0.001 A 
HETATM   25  C   UNL     1       3.302  25.391  48.039  1.00  0.00     0.001 A 
HETATM   26  C   UNL     1       4.484  29.335  50.239  1.00  0.00     0.034 C 
ENDBRANCH  15  18
ENDBRANCH   1  14
TORSDOF 3
ENDMDL
MODEL 7
REMARK VINA RESULT:      -9.5      1.935      3.074
REMARK  3 active torsions:
REMARK  status: ('A' for Active; 'I' for Inactive)
REMARK    1  A    between atoms: N_4  and  C_5 
REMARK    2  A    between atoms: C_5  and  C_6 
REMARK       I    between atoms: C_6  and  N_7 
REMARK    3  A    between atoms: N_7  and  C_8 
ROOT
HETATM    1  C   UNL     1       7.012  27.595  53.947  1.00  0.00     0.257 C 
ENDROOT
BRANCH   1   2
HETATM    2  N   UNL     1       7.260  26.204  54.328  1.00  0.00    -0.225 N 
HETATM    3  N   UNL     1       7.574  26.003  55.654  1.00  0.00    -0.173 NA
HETATM    4  C   UNL     1       7.993  24.840  56.045  1.00  0.00     0.062 A 
HETATM    5  C   UNL     1       8.346  24.680  57.506  1.00  0.00     0.073 C 
HETATM    6  C   UNL     1       8.158  23.690  55.136  1.00  0.00     0.006 A 
HETATM    7  C   UNL     1       7.856  23.896  53.794  1.00  0.00     0.046 A 
HETATM    8  C   UNL     1       8.605  22.435  55.565  1.00  0.00     0.014 A 
HETATM    9  C   UNL     1       7.418  25.231  53.347  1.00  0.00     0.275 A 
HETATM   10  C   UNL     1       7.987  22.848  52.874  1.00  0.00     0.018 A 
HETATM   11  O   UNL     1       7.207  25.435  52.151  1.00  0.00    -0.266 OA
HETATM   12  C   UNL     1       8.430  21.596  53.302  1.00  0.00     0.001 A 
HETATM   13  C   UNL     1       8.742  21.392  54.645  1.00  0.00     0.001 A 
ENDBRANCH   1   2
BRANCH   1  14
HETATM   14  C   UNL     1       6.076  28.394  54.859  1.00  0.00     0.238 C 
HETATM   15  N   UNL     1       6.685  29.314  55.681  1.00  0.00    -0.351 N 
HETATM   16  H   UNL     1       7.697  29.433  55.617  1.00  0.00     0.163 HD
HETATM   17  O   UNL     1       4.882  28.115  54.964  1.00  0.00    -0.272 OA
BRANCH  15  18
HETATM   18  C   UNL     1       5.980  29.936  56.773  1.00  0.00     0.118 C 
HETATM   19  C   UNL     1       6.874  30.336  57.915  1.00  0.00    -0.029 A 
HETATM   20  C   UNL     1       6.478  31.574  58.438  1.00  0.00    -0.050 A 
HETATM   21  C   UNL     1       7.913  29.622  58.495  1.00  0.00     0.010 A 
HETATM   22  C   UNL     1       7.110  32.123  59.541  1.00  0.00     0.007 A 
HETATM   23  C   UNL     1       5.299  32.115  57.689  1.00  0.00     0.041 C 
HETATM   24  C   UNL     1       8.168  31.416  60.118  1.00  0.00     0.001 A 
HETATM   25  C   UNL     1       8.567  30.175  59.598  1.00  0.00     0.001 A 
HETATM   26  C   UNL     1       5.362  31.294  56.393  1.00  0.00     0.034 C 
ENDBRANCH  15  18
ENDBRANCH   1  14
TORSDOF 3
ENDMDL
MODEL 8
REMARK VINA RESULT:      -9.5      3.194      5.449
REMARK  3 active torsions:
REMARK  status: ('A' for Active; 'I' for Inactive)
REMARK    1  A    between atoms: N_4  and  C_5 
REMARK    2  A    between atoms: C_5  and  C_6 
REMARK       I    between atoms: C_6  and  N_7 
REMARK    3  A    between atoms: N_7  and  C_8 
ROOT
HETATM    1  C   UNL     1       7.246  26.366  56.198  1.00  0.00     0.257 C 
ENDROOT
BRANCH   1   2
HETATM    2  N   UNL     1       7.612  25.190  55.407  1.00  0.00    -0.225 N 
HETATM    3  N   UNL     1       7.656  25.386  54.046  1.00  0.00    -0.173 NA
HETATM    4  C   UNL     1       7.784  24.365  53.255  1.00  0.00     0.062 A 
HETATM    5  C   UNL     1       7.805  24.634  51.767  1.00  0.00     0.073 C 
HETATM    6  C   UNL     1       7.888  22.975  53.736  1.00  0.00     0.006 A 
HETATM    7  C   UNL     1       7.827  22.775  55.111  1.00  0.00     0.046 A 
HETATM    8  C   UNL     1       8.031  21.878  52.877  1.00  0.00     0.014 A 
HETATM    9  C   UNL     1       7.641  23.934  56.004  1.00  0.00     0.275 A 
HETATM   10  C   UNL     1       7.921  21.481  55.638  1.00  0.00     0.018 A 
HETATM   11  O   UNL     1       7.527  23.757  57.216  1.00  0.00    -0.266 OA
HETATM   12  C   UNL     1       8.067  20.388  54.783  1.00  0.00     0.001 A 
HETATM   13  C   UNL     1       8.118  20.588  53.404  1.00  0.00     0.001 A 
ENDBRANCH   1   2
BRANCH   1  14
HETATM   14  C   UNL     1       6.965  27.652  55.414  1.00  0.00     0.238 C 
HETATM   15  N   UNL     1       5.819  27.648  54.653  1.00  0.00    -0.351 N 
HETATM   16  H   UNL     1       5.219  26.824  54.676  1.00  0.00     0.163 HD
HETATM   17  O   UNL     1       7.792  28.561  55.344  1.00  0.00    -0.272 OA
BRANCH  15  18
HETATM   18  C   UNL     1       5.567  28.663  53.661  1.00  0.00     0.118 C 
HETATM   19  C   UNL     1       5.089  28.112  52.345  1.00  0.00    -0.029 A 
HETATM   20  C   UNL     1       4.090  28.932  51.804  1.00  0.00    -0.050 A 
HETATM   21  C   UNL     1       5.557  27.009  51.645  1.00  0.00     0.010 A 
HETATM   22  C   UNL     1       3.538  28.666  50.562  1.00  0.00     0.007 A 
HETATM   23  C   UNL     1       3.803  30.090  52.709  1.00  0.00     0.041 C 
HETATM   24  C   UNL     1       3.993  27.547  49.861  1.00  0.00     0.001 A 
HETATM   25  C   UNL     1       4.995  26.724  50.399  1.00  0.00     0.001 A 
HETATM   26  C   UNL     1       4.395  29.591  54.034  1.00  0.00     0.034 C 
ENDBRANCH  15  18
ENDBRANCH   1  14
TORSDOF 3
ENDMDL
MODEL 9
REMARK VINA RESULT:      -9.3      2.543      3.372
REMARK  3 active torsions:
REMARK  status: ('A' for Active; 'I' for Inactive)
REMARK    1  A    between atoms: N_4  and  C_5 
REMARK    2  A    between atoms: C_5  and  C_6 
REMARK       I    between atoms: C_6  and  N_7 
REMARK    3  A    between atoms: N_7  and  C_8 
ROOT
HETATM    1  C   UNL     1       7.490  25.651  56.736  1.00  0.00     0.257 C 
ENDROOT
BRANCH   1   2
HETATM    2  N   UNL     1       7.861  24.638  55.747  1.00  0.00    -0.225 N 
HETATM    3  N   UNL     1       7.683  25.005  54.432  1.00  0.00    -0.173 NA
HETATM    4  C   UNL     1       7.803  24.115  53.496  1.00  0.00     0.062 A 
HETATM    5  C   UNL     1       7.576  24.566  52.071  1.00  0.00     0.073 C 
HETATM    6  C   UNL     1       8.126  22.700  53.759  1.00  0.00     0.006 A 
HETATM    7  C   UNL     1       8.290  22.326  55.088  1.00  0.00     0.046 A 
HETATM    8  C   UNL     1       8.260  21.746  52.743  1.00  0.00     0.014 A 
HETATM    9  C   UNL     1       8.113  23.331  56.152  1.00  0.00     0.275 A 
HETATM   10  C   UNL     1       8.601  20.998  55.412  1.00  0.00     0.018 A 
HETATM   11  O   UNL     1       8.199  22.992  57.332  1.00  0.00    -0.266 OA
HETATM   12  C   UNL     1       8.737  20.047  54.400  1.00  0.00     0.001 A 
HETATM   13  C   UNL     1       8.563  20.421  53.068  1.00  0.00     0.001 A 
ENDBRANCH   1   2
BRANCH   1  14
HETATM   14  C   UNL     1       6.117  26.306  56.556  1.00  0.00     0.238 C 
HETATM   15  N   UNL     1       6.104  27.476  55.831  1.00  0.00    -0.351 N 
HETATM   16  H   UNL     1       6.981  27.817  55.437  1.00  0.00     0.163 HD
HETATM   17  O   UNL     1       5.122  25.899  57.156  1.00  0.00    -0.272 OA
BRANCH  15  18
HETATM   18  C   UNL     1       4.951  28.340  55.810  1.00  0.00     0.118 C 
HETATM   19  C   UNL     1       5.204  29.695  56.413  1.00  0.00    -0.029 A 
HETATM   20  C   UNL     1       4.559  30.691  55.668  1.00  0.00    -0.050 A 
HETATM   21  C   UNL     1       5.893  30.013  57.575  1.00  0.00     0.010 A 
HETATM   22  C   UNL     1       4.591  32.018  56.064  1.00  0.00     0.007 A 
HETATM   23  C   UNL     1       3.831  30.096  54.502  1.00  0.00     0.041 C 
HETATM   24  C   UNL     1       5.298  32.345  57.224  1.00  0.00     0.001 A 
HETATM   25  C   UNL     1       5.944  31.351  57.973  1.00  0.00     0.001 A 
HETATM   26  C   UNL     1       4.516  28.728  54.385  1.00  0.00     0.034 C 
ENDBRANCH  15  18
ENDBRANCH   1  14
TORSDOF 3
ENDMDL
MODEL 10
REMARK VINA RESULT:      -9.3      2.429      3.957
REMARK  3 active torsions:
REMARK  status: ('A' for Active; 'I' for Inactive)
REMARK    1  A    between atoms: N_4  and  C_5 
REMARK    2  A    between atoms: C_5  and  C_6 
REMARK       I    between atoms: C_6  and  N_7 
REMARK    3  A    between atoms: N_7  and  C_8 
ROOT
HETATM    1  C   UNL     1       6.293  29.192  57.132  1.00  0.00     0.257 C 
ENDROOT
BRANCH   1   2
HETATM    2  N   UNL     1       6.586  27.927  56.455  1.00  0.00    -0.225 N 
HETATM    3  N   UNL     1       7.206  26.974  57.230  1.00  0.00    -0.173 NA
HETATM    4  C   UNL     1       7.673  25.899  56.673  1.00  0.00     0.062 A 
HETATM    5  C   UNL     1       8.365  24.895  57.566  1.00  0.00     0.073 C 
HETATM    6  C   UNL     1       7.578  25.630  55.226  1.00  0.00     0.006 A 
HETATM    7  C   UNL     1       6.966  26.600  54.441  1.00  0.00     0.046 A 
HETATM    8  C   UNL     1       8.080  24.465  54.632  1.00  0.00     0.014 A 
HETATM    9  C   UNL     1       6.472  27.838  55.072  1.00  0.00     0.275 A 
HETATM   10  C   UNL     1       6.839  26.409  53.058  1.00  0.00     0.018 A 
HETATM   11  O   UNL     1       5.984  28.726  54.373  1.00  0.00    -0.266 OA
HETATM   12  C   UNL     1       7.336  25.248  52.466  1.00  0.00     0.001 A 
HETATM   13  C   UNL     1       7.959  24.280  53.252  1.00  0.00     0.001 A 
ENDBRANCH   1   2
BRANCH   1  14
HETATM   14  C   UNL     1       7.458  29.848  57.879  1.00  0.00     0.238 C 
HETATM   15  N   UNL     1       7.145  30.415  59.094  1.00  0.00    -0.351 N 
HETATM   16  H   UNL     1       6.186  30.341  59.435  1.00  0.00     0.163 HD
HETATM   17  O   UNL     1       8.561  29.999  57.354  1.00  0.00    -0.272 OA
BRANCH  15  18
HETATM   18  C   UNL     1       8.060  31.295  59.776  1.00  0.00     0.118 C 
HETATM   19  C   UNL     1       7.454  31.986  60.966  1.00  0.00    -0.029 A 
HETATM   20  C   UNL     1       8.378  32.053  62.018  1.00  0.00    -0.050 A 
HETATM   21  C   UNL     1       6.204  32.578  61.083  1.00  0.00     0.010 A 
HETATM   22  C   UNL     1       8.072  32.704  63.202  1.00  0.00     0.007 A 
HETATM   23  C   UNL     1       9.671  31.405  61.631  1.00  0.00     0.041 C 
HETATM   24  C   UNL     1       6.809  33.285  63.331  1.00  0.00     0.001 A 
HETATM   25  C   UNL     1       5.881  33.222  62.280  1.00  0.00     0.001 A 
HETATM   26  C   UNL     1       9.234  30.548  60.435  1.00  0.00     0.034 C 
ENDBRANCH  15  18
ENDBRANCH   1  14
TORSDOF 3
ENDMDL
