MODEL 1
REMARK VINA RESULT:      -8.4      0.000      0.000
REMARK  8 active torsions:
REMARK  status: ('A' for Active; 'I' for Inactive)
REMARK    1  A    between atoms: C_2  and  C_3 
REMARK    2  A    between atoms: C_3  and  C_4 
REMARK    3  A    between atoms: C_8  and  C_9 
REMARK       I    between atoms: C_9  and  N_10 
REMARK    4  A    between atoms: N_10  and  C_11 
REMARK    5  A    between atoms: N_10  and  C_17 
REMARK    6  A    between atoms: C_17  and  C_18 
REMARK    7  A    between atoms: C_18  and  O_19 
REMARK    8  A    between atoms: C_18  and  C_20 
ROOT
HETATM    1  C   UNL     1       6.137  28.475  55.126  1.00  0.00     0.272 C 
HETATM    2  N   UNL     1       6.078  27.260  54.436  1.00  0.00    -0.339 N 
HETATM    3  O   UNL     1       5.304  29.360  54.947  1.00  0.00    -0.266 OA
ENDROOT
BRANCH   2   4
HETATM    4  C   UNL     1       4.948  26.979  53.509  1.00  0.00     0.087 C 
HETATM    5  C   UNL     1       5.067  27.756  52.185  1.00  0.00     0.025 C 
HETATM    6  C   UNL     1       5.612  26.962  51.006  1.00  0.00     0.002 C 
HETATM    7  C   UNL     1       4.887  25.635  50.847  1.00  0.00     0.000 C 
HETATM    8  C   UNL     1       5.023  24.777  52.095  1.00  0.00     0.002 C 
HETATM    9  C   UNL     1       4.563  25.492  53.364  1.00  0.00     0.025 C 
ENDBRANCH   2   4
BRANCH   2  10
HETATM   10  C   UNL     1       7.221  26.323  54.343  1.00  0.00     0.163 C 
BRANCH  10  11
HETATM   11  C   UNL     1       7.213  25.227  55.432  1.00  0.00     0.169 C 
BRANCH  11  12
HETATM   12  O   UNL     1       8.172  25.529  56.451  1.00  0.00    -0.389 OA
HETATM   13  H   UNL     1       8.741  26.236  56.098  1.00  0.00     0.210 HD
ENDBRANCH  11  12
BRANCH  11  14
HETATM   14  C   UNL     1       7.542  23.867  54.848  1.00  0.00    -0.028 A 
HETATM   15  C   UNL     1       7.896  23.742  53.498  1.00  0.00     0.010 A 
HETATM   16  C   UNL     1       8.202  22.490  52.961  1.00  0.00     0.001 A 
HETATM   17  C   UNL     1       8.161  21.352  53.765  1.00  0.00     0.000 A 
HETATM   18  C   UNL     1       7.819  21.464  55.110  1.00  0.00     0.001 A 
HETATM   19  C   UNL     1       7.514  22.714  55.650  1.00  0.00     0.010 A 
ENDBRANCH  11  14
ENDBRANCH  10  11
ENDBRANCH   2  10
BRANCH   1  20
HETATM   20  C   UNL     1       7.218  28.741  56.044  1.00  0.00     0.119 A 
HETATM   21  N   UNL     1       7.198  28.214  57.309  1.00  0.00    -0.273 N 
HETATM   22  N   UNL     1       8.265  28.535  58.057  1.00  0.00    -0.179 NA
HETATM   23  H   UNL     1       6.473  27.628  57.711  1.00  0.00     0.189 HD
HETATM   24  C   UNL     1       9.068  29.184  57.207  1.00  0.00     0.057 A 
HETATM   25  C   UNL     1       8.460  29.336  55.936  1.00  0.00     0.065 A 
BRANCH  24  26
HETATM   26  C   UNL     1      10.428  29.619  57.638  1.00  0.00     0.061 C 
BRANCH  26  27
HETATM   27  C   UNL     1      10.524  31.139  57.781  1.00  0.00     0.002 C 
HETATM   28  C   UNL     1       9.766  31.636  59.001  1.00  0.00     0.005 C 
ENDBRANCH  26  27
ENDBRANCH  24  26
ENDBRANCH   1  20
TORSDOF 8
ENDMDL
MODEL 2
REMARK VINA RESULT:      -8.3      2.605      6.342
REMARK  8 active torsions:
REMARK  status: ('A' for Active; 'I' for Inactive)
REMARK    1  A    between atoms: C_2  and  C_3 
REMARK    2  A    between atoms: C_3  and  C_4 
REMARK    3  A    between atoms: C_8  and  C_9 
REMARK       I    between atoms: C_9  and  N_10 
REMARK    4  A    between atoms: N_10  and  C_11 
REMARK    5  A    between atoms: N_10  and  C_17 
REMARK    6  A    between atoms: C_17  and  C_18 
REMARK    7  A    between atoms: C_18  and  O_19 
REMARK    8  A    between atoms: C_18  and  C_20 
ROOT
HETATM    1  C   UNL     1       5.375  27.560  53.046  1.00  0.00     0.272 C 
HETATM    2  N   UNL     1       5.903  26.699  54.014  1.00  0.00    -0.339 N 
HETATM    3  O   UNL     1       5.039  28.710  53.318  1.00  0.00    -0.266 OA
ENDROOT
BRANCH   2   4
HETATM    4  C   UNL     1       6.140  27.186  55.400  1.00  0.00     0.087 C 
HETATM    5  C   UNL     1       5.285  26.439  56.440  1.00  0.00     0.025 C 
HETATM    6  C   UNL     1       6.004  25.338  57.209  1.00  0.00     0.002 C 
HETATM    7  C   UNL     1       7.326  25.830  57.776  1.00  0.00     0.000 C 
HETATM    8  C   UNL     1       8.255  26.316  56.675  1.00  0.00     0.002 C 
HETATM    9  C   UNL     1       7.619  27.387  55.789  1.00  0.00     0.025 C 
ENDBRANCH   2   4
BRANCH   2  10
HETATM   10  C   UNL     1       5.988  25.232  53.835  1.00  0.00     0.163 C 
BRANCH  10  11
HETATM   11  C   UNL     1       7.397  24.738  53.436  1.00  0.00     0.169 C 
BRANCH  11  12
HETATM   12  O   UNL     1       7.583  24.851  52.021  1.00  0.00    -0.389 OA
HETATM   13  H   UNL     1       7.551  25.801  51.810  1.00  0.00     0.210 HD
ENDBRANCH  11  12
BRANCH  11  14
HETATM   14  C   UNL     1       7.607  23.291  53.837  1.00  0.00    -0.028 A 
HETATM   15  C   UNL     1       7.534  22.910  55.184  1.00  0.00     0.010 A 
HETATM   16  C   UNL     1       7.725  21.577  55.553  1.00  0.00     0.001 A 
HETATM   17  C   UNL     1       7.987  20.611  54.583  1.00  0.00     0.000 A 
HETATM   18  C   UNL     1       8.054  20.974  53.239  1.00  0.00     0.001 A 
HETATM   19  C   UNL     1       7.862  22.306  52.868  1.00  0.00     0.010 A 
ENDBRANCH  11  14
ENDBRANCH  10  11
ENDBRANCH   2  10
BRANCH   1  20
HETATM   20  C   UNL     1       5.167  27.098  51.695  1.00  0.00     0.119 A 
HETATM   21  N   UNL     1       4.566  25.888  51.461  1.00  0.00    -0.273 N 
HETATM   22  N   UNL     1       4.431  25.582  50.162  1.00  0.00    -0.179 NA
HETATM   23  H   UNL     1       4.232  25.232  52.159  1.00  0.00     0.189 HD
HETATM   24  C   UNL     1       4.838  26.687  49.528  1.00  0.00     0.057 A 
HETATM   25  C   UNL     1       5.305  27.664  50.442  1.00  0.00     0.065 A 
BRANCH  24  26
HETATM   26  C   UNL     1       4.736  26.785  48.043  1.00  0.00     0.061 C 
BRANCH  26  27
HETATM   27  C   UNL     1       3.558  25.978  47.495  1.00  0.00     0.002 C 
HETATM   28  C   UNL     1       2.280  26.802  47.468  1.00  0.00     0.005 C 
ENDBRANCH  26  27
ENDBRANCH  24  26
ENDBRANCH   1  20
TORSDOF 8
ENDMDL
MODEL 3
REMARK VINA RESULT:      -8.1      2.410      5.960
REMARK  8 active torsions:
REMARK  status: ('A' for Active; 'I' for Inactive)
REMARK    1  A    between atoms: C_2  and  C_3 
REMARK    2  A    between atoms: C_3  and  C_4 
REMARK    3  A    between atoms: C_8  and  C_9 
REMARK       I    between atoms: C_9  and  N_10 
REMARK    4  A    between atoms: N_10  and  C_11 
REMARK    5  A    between atoms: N_10  and  C_17 
REMARK    6  A    between atoms: C_17  and  C_18 
REMARK    7  A    between atoms: C_18  and  O_19 
REMARK    8  A    between atoms: C_18  and  C_20 
ROOT
HETATM    1  C   UNL     1       7.687  24.902  53.790  1.00  0.00     0.272 C 
HETATM    2  N   UNL     1       7.813  24.111  54.938  1.00  0.00    -0.339 N 
HETATM    3  O   UNL     1       8.375  24.705  52.792  1.00  0.00    -0.266 OA
ENDROOT
BRANCH   2   4
HETATM    4  C   UNL     1       8.745  22.951  54.949  1.00  0.00     0.087 C 
HETATM    5  C   UNL     1       8.630  22.116  56.237  1.00  0.00     0.025 C 
HETATM    6  C   UNL     1       7.799  20.845  56.122  1.00  0.00     0.002 C 
HETATM    7  C   UNL     1       8.217  20.016  54.918  1.00  0.00     0.000 C 
HETATM    8  C   UNL     1       8.060  20.798  53.625  1.00  0.00     0.002 C 
HETATM    9  C   UNL     1       8.802  22.134  53.641  1.00  0.00     0.025 C 
ENDBRANCH   2   4
BRANCH   2  10
HETATM   10  C   UNL     1       7.285  24.511  56.262  1.00  0.00     0.163 C 
BRANCH  10  11
HETATM   11  C   UNL     1       8.219  25.466  57.038  1.00  0.00     0.169 C 
BRANCH  11  12
HETATM   12  O   UNL     1       8.393  25.011  58.384  1.00  0.00    -0.389 OA
HETATM   13  H   UNL     1       9.273  25.313  58.669  1.00  0.00     0.210 HD
ENDBRANCH  11  12
BRANCH  11  14
HETATM   14  C   UNL     1       7.662  26.876  57.072  1.00  0.00    -0.028 A 
HETATM   15  C   UNL     1       6.282  27.089  57.198  1.00  0.00     0.010 A 
HETATM   16  C   UNL     1       5.769  28.387  57.233  1.00  0.00     0.001 A 
HETATM   17  C   UNL     1       6.625  29.484  57.147  1.00  0.00     0.000 A 
HETATM   18  C   UNL     1       7.999  29.285  57.031  1.00  0.00     0.001 A 
HETATM   19  C   UNL     1       8.515  27.989  56.997  1.00  0.00     0.010 A 
ENDBRANCH  11  14
ENDBRANCH  10  11
ENDBRANCH   2  10
BRANCH   1  20
HETATM   20  C   UNL     1       6.767  26.013  53.768  1.00  0.00     0.119 A 
HETATM   21  N   UNL     1       7.230  27.294  53.613  1.00  0.00    -0.273 N 
HETATM   22  N   UNL     1       6.270  28.230  53.606  1.00  0.00    -0.179 NA
HETATM   23  H   UNL     1       8.199  27.580  53.510  1.00  0.00     0.189 HD
HETATM   24  C   UNL     1       5.134  27.524  53.625  1.00  0.00     0.057 A 
HETATM   25  C   UNL     1       5.392  26.134  53.724  1.00  0.00     0.065 A 
BRANCH  24  26
HETATM   26  C   UNL     1       3.816  28.214  53.516  1.00  0.00     0.061 C 
BRANCH  26  27
HETATM   27  C   UNL     1       3.964  29.736  53.515  1.00  0.00     0.002 C 
HETATM   28  C   UNL     1       3.630  30.332  54.873  1.00  0.00     0.005 C 
ENDBRANCH  26  27
ENDBRANCH  24  26
ENDBRANCH   1  20
TORSDOF 8
ENDMDL
MODEL 4
REMARK VINA RESULT:      -7.9      2.133      6.839
REMARK  8 active torsions:
REMARK  status: ('A' for Active; 'I' for Inactive)
REMARK    1  A    between atoms: C_2  and  C_3 
REMARK    2  A    between atoms: C_3  and  C_4 
REMARK    3  A    between atoms: C_8  and  C_9 
REMARK       I    between atoms: C_9  and  N_10 
REMARK    4  A    between atoms: N_10  and  C_11 
REMARK    5  A    between atoms: N_10  and  C_17 
REMARK    6  A    between atoms: C_17  and  C_18 
REMARK    7  A    between atoms: C_18  and  O_19 
REMARK    8  A    between atoms: C_18  and  C_20 
ROOT
HETATM    1  C   UNL     1       5.234  25.449  53.314  1.00  0.00     0.272 C 
HETATM    2  N   UNL     1       6.216  25.628  54.295  1.00  0.00    -0.339 N 
HETATM    3  O   UNL     1       4.496  24.467  53.310  1.00  0.00    -0.266 OA
ENDROOT
BRANCH   2   4
HETATM    4  C   UNL     1       6.343  24.653  55.412  1.00  0.00     0.087 C 
HETATM    5  C   UNL     1       7.307  23.500  55.080  1.00  0.00     0.025 C 
HETATM    6  C   UNL     1       8.709  23.630  55.659  1.00  0.00     0.002 C 
HETATM    7  C   UNL     1       8.668  23.954  57.144  1.00  0.00     0.000 C 
HETATM    8  C   UNL     1       7.929  25.256  57.407  1.00  0.00     0.002 C 
HETATM    9  C   UNL     1       6.521  25.272  56.815  1.00  0.00     0.025 C 
ENDBRANCH   2   4
BRANCH   2  10
HETATM   10  C   UNL     1       7.341  26.579  54.153  1.00  0.00     0.163 C 
BRANCH  10  11
HETATM   11  C   UNL     1       6.974  28.032  54.530  1.00  0.00     0.169 C 
BRANCH  11  12
HETATM   12  O   UNL     1       6.932  28.856  53.360  1.00  0.00    -0.389 OA
HETATM   13  H   UNL     1       6.069  29.307  53.368  1.00  0.00     0.210 HD
ENDBRANCH  11  12
BRANCH  11  14
HETATM   14  C   UNL     1       7.981  28.620  55.499  1.00  0.00    -0.028 A 
HETATM   15  C   UNL     1       9.233  29.056  55.044  1.00  0.00     0.010 A 
HETATM   16  C   UNL     1      10.158  29.601  55.937  1.00  0.00     0.001 A 
HETATM   17  C   UNL     1       9.843  29.720  57.289  1.00  0.00     0.000 A 
HETATM   18  C   UNL     1       8.599  29.300  57.753  1.00  0.00     0.001 A 
HETATM   19  C   UNL     1       7.672  28.756  56.863  1.00  0.00     0.010 A 
ENDBRANCH  11  14
ENDBRANCH  10  11
ENDBRANCH   2  10
BRANCH   1  20
HETATM   20  C   UNL     1       5.091  26.405  52.243  1.00  0.00     0.119 A 
HETATM   21  N   UNL     1       4.304  27.515  52.405  1.00  0.00    -0.273 N 
HETATM   22  N   UNL     1       4.262  28.323  51.334  1.00  0.00    -0.179 NA
HETATM   23  H   UNL     1       3.771  27.765  53.231  1.00  0.00     0.189 HD
HETATM   24  C   UNL     1       5.156  27.787  50.495  1.00  0.00     0.057 A 
HETATM   25  C   UNL     1       5.702  26.589  51.018  1.00  0.00     0.065 A 
BRANCH  24  26
HETATM   26  C   UNL     1       5.484  28.468  49.208  1.00  0.00     0.061 C 
BRANCH  26  27
HETATM   27  C   UNL     1       4.422  28.213  48.138  1.00  0.00     0.002 C 
HETATM   28  C   UNL     1       4.431  26.765  47.674  1.00  0.00     0.005 C 
ENDBRANCH  26  27
ENDBRANCH  24  26
ENDBRANCH   1  20
TORSDOF 8
ENDMDL
MODEL 5
REMARK VINA RESULT:      -7.8      2.479      6.100
REMARK  8 active torsions:
REMARK  status: ('A' for Active; 'I' for Inactive)
REMARK    1  A    between atoms: C_2  and  C_3 
REMARK    2  A    between atoms: C_3  and  C_4 
REMARK    3  A    between atoms: C_8  and  C_9 
REMARK       I    between atoms: C_9  and  N_10 
REMARK    4  A    between atoms: N_10  and  C_11 
REMARK    5  A    between atoms: N_10  and  C_17 
REMARK    6  A    between atoms: C_17  and  C_18 
REMARK    7  A    between atoms: C_18  and  O_19 
REMARK    8  A    between atoms: C_18  and  C_20 
ROOT
HETATM    1  C   UNL     1       5.142  28.214  53.530  1.00  0.00     0.272 C 
HETATM    2  N   UNL     1       5.690  27.179  54.295  1.00  0.00    -0.339 N 
HETATM    3  O   UNL     1       4.693  29.233  54.047  1.00  0.00    -0.266 OA
ENDROOT
BRANCH   2   4
HETATM    4  C   UNL     1       5.808  27.323  55.772  1.00  0.00     0.087 C 
HETATM    5  C   UNL     1       5.268  26.095  56.528  1.00  0.00     0.025 C 
HETATM    6  C   UNL     1       6.321  25.108  57.013  1.00  0.00     0.002 C 
HETATM    7  C   UNL     1       7.441  25.815  57.761  1.00  0.00     0.000 C 
HETATM    8  C   UNL     1       8.131  26.844  56.881  1.00  0.00     0.002 C 
HETATM    9  C   UNL     1       7.162  27.861  56.279  1.00  0.00     0.025 C 
ENDBRANCH   2   4
BRANCH   2  10
HETATM   10  C   UNL     1       5.911  25.811  53.773  1.00  0.00     0.163 C 
BRANCH  10  11
HETATM   11  C   UNL     1       7.371  25.542  53.343  1.00  0.00     0.169 C 
BRANCH  11  12
HETATM   12  O   UNL     1       7.523  25.751  51.935  1.00  0.00    -0.389 OA
HETATM   13  H   UNL     1       6.699  26.165  51.623  1.00  0.00     0.210 HD
ENDBRANCH  11  12
BRANCH  11  14
HETATM   14  C   UNL     1       7.788  24.122  53.669  1.00  0.00    -0.028 A 
HETATM   15  C   UNL     1       7.499  23.076  52.781  1.00  0.00     0.010 A 
HETATM   16  C   UNL     1       7.886  21.768  53.080  1.00  0.00     0.001 A 
HETATM   17  C   UNL     1       8.568  21.491  54.263  1.00  0.00     0.000 A 
HETATM   18  C   UNL     1       8.870  22.522  55.150  1.00  0.00     0.001 A 
HETATM   19  C   UNL     1       8.485  23.830  54.853  1.00  0.00     0.010 A 
ENDBRANCH  11  14
ENDBRANCH  10  11
ENDBRANCH   2  10
BRANCH   1  20
HETATM   20  C   UNL     1       5.048  28.088  52.095  1.00  0.00     0.119 A 
HETATM   21  N   UNL     1       5.810  28.882  51.278  1.00  0.00    -0.273 N 
HETATM   22  N   UNL     1       5.629  28.660  49.967  1.00  0.00    -0.179 NA
HETATM   23  H   UNL     1       6.470  29.596  51.570  1.00  0.00     0.189 HD
HETATM   24  C   UNL     1       4.819  27.596  49.933  1.00  0.00     0.057 A 
HETATM   25  C   UNL     1       4.431  27.200  51.236  1.00  0.00     0.065 A 
BRANCH  24  26
HETATM   26  C   UNL     1       4.461  26.963  48.630  1.00  0.00     0.061 C 
BRANCH  26  27
HETATM   27  C   UNL     1       3.768  25.613  48.820  1.00  0.00     0.002 C 
HETATM   28  C   UNL     1       3.041  25.174  47.559  1.00  0.00     0.005 C 
ENDBRANCH  26  27
ENDBRANCH  24  26
ENDBRANCH   1  20
TORSDOF 8
ENDMDL
MODEL 6
REMARK VINA RESULT:      -7.7      2.570      3.579
REMARK  8 active torsions:
REMARK  status: ('A' for Active; 'I' for Inactive)
REMARK    1  A    between atoms: C_2  and  C_3 
REMARK    2  A    between atoms: C_3  and  C_4 
REMARK    3  A    between atoms: C_8  and  C_9 
REMARK       I    between atoms: C_9  and  N_10 
REMARK    4  A    between atoms: N_10  and  C_11 
REMARK    5  A    between atoms: N_10  and  C_17 
REMARK    6  A    between atoms: C_17  and  C_18 
REMARK    7  A    between atoms: C_18  and  O_19 
REMARK    8  A    between atoms: C_18  and  C_20 
ROOT
HETATM    1  C   UNL     1       4.597  29.527  53.828  1.00  0.00     0.272 C 
HETATM    2  N   UNL     1       4.804  28.986  52.554  1.00  0.00    -0.339 N 
HETATM    3  O   UNL     1       4.013  30.595  53.989  1.00  0.00    -0.266 OA
ENDROOT
BRANCH   2   4
HETATM    4  C   UNL     1       4.250  29.668  51.353  1.00  0.00     0.087 C 
HETATM    5  C   UNL     1       5.342  30.051  50.338  1.00  0.00     0.025 C 
HETATM    6  C   UNL     1       5.494  29.109  49.151  1.00  0.00     0.002 C 
HETATM    7  C   UNL     1       4.152  28.825  48.494  1.00  0.00     0.000 C 
HETATM    8  C   UNL     1       3.178  28.192  49.474  1.00  0.00     0.002 C 
HETATM    9  C   UNL     1       2.989  29.020  50.745  1.00  0.00     0.025 C 
ENDBRANCH   2   4
BRANCH   2  10
HETATM   10  C   UNL     1       5.786  27.914  52.277  1.00  0.00     0.163 C 
BRANCH  10  11
HETATM   11  C   UNL     1       5.158  26.505  52.194  1.00  0.00     0.169 C 
BRANCH  11  12
HETATM   12  O   UNL     1       3.931  26.461  52.929  1.00  0.00    -0.389 OA
HETATM   13  H   UNL     1       3.948  27.215  53.546  1.00  0.00     0.210 HD
ENDBRANCH  11  12
BRANCH  11  14
HETATM   14  C   UNL     1       6.094  25.451  52.753  1.00  0.00    -0.028 A 
HETATM   15  C   UNL     1       7.201  25.019  52.010  1.00  0.00     0.010 A 
HETATM   16  C   UNL     1       8.064  24.050  52.526  1.00  0.00     0.001 A 
HETATM   17  C   UNL     1       7.834  23.507  53.789  1.00  0.00     0.000 A 
HETATM   18  C   UNL     1       6.743  23.934  54.542  1.00  0.00     0.001 A 
HETATM   19  C   UNL     1       5.879  24.902  54.029  1.00  0.00     0.010 A 
ENDBRANCH  11  14
ENDBRANCH  10  11
ENDBRANCH   2  10
BRANCH   1  20
HETATM   20  C   UNL     1       5.111  28.855  54.997  1.00  0.00     0.119 A 
HETATM   21  N   UNL     1       4.389  27.856  55.596  1.00  0.00    -0.273 N 
HETATM   22  N   UNL     1       4.983  27.314  56.670  1.00  0.00    -0.179 NA
HETATM   23  H   UNL     1       3.480  27.509  55.309  1.00  0.00     0.189 HD
HETATM   24  C   UNL     1       6.190  27.890  56.692  1.00  0.00     0.057 A 
HETATM   25  C   UNL     1       6.320  28.858  55.666  1.00  0.00     0.065 A 
BRANCH  24  26
HETATM   26  C   UNL     1       7.210  27.466  57.695  1.00  0.00     0.061 C 
BRANCH  26  27
HETATM   27  C   UNL     1       8.339  26.655  57.056  1.00  0.00     0.002 C 
HETATM   28  C   UNL     1       8.346  25.217  57.551  1.00  0.00     0.005 C 
ENDBRANCH  26  27
ENDBRANCH  24  26
ENDBRANCH   1  20
TORSDOF 8
ENDMDL
MODEL 7
REMARK VINA RESULT:      -7.7      1.610      5.758
REMARK  8 active torsions:
REMARK  status: ('A' for Active; 'I' for Inactive)
REMARK    1  A    between atoms: C_2  and  C_3 
REMARK    2  A    between atoms: C_3  and  C_4 
REMARK    3  A    between atoms: C_8  and  C_9 
REMARK       I    between atoms: C_9  and  N_10 
REMARK    4  A    between atoms: N_10  and  C_11 
REMARK    5  A    between atoms: N_10  and  C_17 
REMARK    6  A    between atoms: C_17  and  C_18 
REMARK    7  A    between atoms: C_18  and  O_19 
REMARK    8  A    between atoms: C_18  and  C_20 
ROOT
HETATM    1  C   UNL     1       5.429  27.032  54.954  1.00  0.00     0.272 C 
HETATM    2  N   UNL     1       6.558  26.694  55.708  1.00  0.00    -0.339 N 
HETATM    3  O   UNL     1       4.544  27.755  55.404  1.00  0.00    -0.266 OA
ENDROOT
BRANCH   2   4
HETATM    4  C   UNL     1       6.751  27.271  57.066  1.00  0.00     0.087 C 
HETATM    5  C   UNL     1       8.236  27.358  57.463  1.00  0.00     0.025 C 
HETATM    6  C   UNL     1       8.878  28.729  57.304  1.00  0.00     0.002 C 
HETATM    7  C   UNL     1       8.032  29.816  57.948  1.00  0.00     0.000 C 
HETATM    8  C   UNL     1       6.643  29.874  57.333  1.00  0.00     0.002 C 
HETATM    9  C   UNL     1       5.915  28.531  57.376  1.00  0.00     0.025 C 
ENDBRANCH   2   4
BRANCH   2  10
HETATM   10  C   UNL     1       7.457  25.570  55.364  1.00  0.00     0.163 C 
BRANCH  10  11
HETATM   11  C   UNL     1       7.025  24.221  55.980  1.00  0.00     0.169 C 
BRANCH  11  12
HETATM   12  O   UNL     1       7.649  24.031  57.255  1.00  0.00    -0.389 OA
HETATM   13  H   UNL     1       8.261  23.279  57.156  1.00  0.00     0.210 HD
ENDBRANCH  11  12
BRANCH  11  14
HETATM   14  C   UNL     1       7.399  23.059  55.081  1.00  0.00    -0.028 A 
HETATM   15  C   UNL     1       7.547  23.249  53.701  1.00  0.00     0.010 A 
HETATM   16  C   UNL     1       7.894  22.180  52.873  1.00  0.00     0.001 A 
HETATM   17  C   UNL     1       8.102  20.912  53.414  1.00  0.00     0.000 A 
HETATM   18  C   UNL     1       7.968  20.711  54.786  1.00  0.00     0.001 A 
HETATM   19  C   UNL     1       7.621  21.778  55.616  1.00  0.00     0.010 A 
ENDBRANCH  11  14
ENDBRANCH  10  11
ENDBRANCH   2  10
BRANCH   1  20
HETATM   20  C   UNL     1       5.250  26.493  53.627  1.00  0.00     0.119 A 
HETATM   21  N   UNL     1       4.681  25.258  53.451  1.00  0.00    -0.273 N 
HETATM   22  N   UNL     1       4.571  24.880  52.169  1.00  0.00    -0.179 NA
HETATM   23  H   UNL     1       4.353  24.632  54.180  1.00  0.00     0.189 HD
HETATM   24  C   UNL     1       4.961  25.960  51.482  1.00  0.00     0.057 A 
HETATM   25  C   UNL     1       5.392  26.995  52.348  1.00  0.00     0.065 A 
BRANCH  24  26
HETATM   26  C   UNL     1       4.878  25.976  49.992  1.00  0.00     0.061 C 
BRANCH  26  27
HETATM   27  C   UNL     1       4.985  27.394  49.429  1.00  0.00     0.002 C 
HETATM   28  C   UNL     1       4.865  27.405  47.913  1.00  0.00     0.005 C 
ENDBRANCH  26  27
ENDBRANCH  24  26
ENDBRANCH   1  20
TORSDOF 8
ENDMDL
MODEL 8
REMARK VINA RESULT:      -7.5     10.024     13.217
REMARK  8 active torsions:
REMARK  status: ('A' for Active; 'I' for Inactive)
REMARK    1  A    between atoms: C_2  and  C_3 
REMARK    2  A    between atoms: C_3  and  C_4 
REMARK    3  A    between atoms: C_8  and  C_9 
REMARK       I    between atoms: C_9  and  N_10 
REMARK    4  A    between atoms: N_10  and  C_11 
REMARK    5  A    between atoms: N_10  and  C_17 
REMARK    6  A    between atoms: C_17  and  C_18 
REMARK    7  A    between atoms: C_18  and  O_19 
REMARK    8  A    between atoms: C_18  and  C_20 
ROOT
HETATM    1  C   UNL     1       3.891  35.209  66.342  1.00  0.00     0.272 C 
HETATM    2  N   UNL     1       4.235  35.101  64.990  1.00  0.00    -0.339 N 
HETATM    3  O   UNL     1       2.811  35.672  66.699  1.00  0.00    -0.266 OA
ENDROOT
BRANCH   2   4
HETATM    4  C   UNL     1       3.256  35.484  63.936  1.00  0.00     0.087 C 
HETATM    5  C   UNL     1       3.765  36.637  63.052  1.00  0.00     0.025 C 
HETATM    6  C   UNL     1       4.341  36.224  61.704  1.00  0.00     0.002 C 
HETATM    7  C   UNL     1       3.402  35.284  60.964  1.00  0.00     0.000 C 
HETATM    8  C   UNL     1       3.135  34.022  61.767  1.00  0.00     0.002 C 
HETATM    9  C   UNL     1       2.610  34.309  63.173  1.00  0.00     0.025 C 
ENDBRANCH   2   4
BRANCH   2  10
HETATM   10  C   UNL     1       5.623  34.893  64.520  1.00  0.00     0.163 C 
BRANCH  10  11
HETATM   11  C   UNL     1       6.103  33.429  64.636  1.00  0.00     0.169 C 
BRANCH  11  12
HETATM   12  O   UNL     1       6.995  33.283  65.746  1.00  0.00    -0.389 OA
HETATM   13  H   UNL     1       7.353  32.378  65.699  1.00  0.00     0.210 HD
ENDBRANCH  11  12
BRANCH  11  14
HETATM   14  C   UNL     1       6.821  32.983  63.378  1.00  0.00    -0.028 A 
HETATM   15  C   UNL     1       6.174  33.037  62.135  1.00  0.00     0.010 A 
HETATM   16  C   UNL     1       6.836  32.629  60.976  1.00  0.00     0.001 A 
HETATM   17  C   UNL     1       8.149  32.166  61.044  1.00  0.00     0.000 A 
HETATM   18  C   UNL     1       8.807  32.115  62.271  1.00  0.00     0.001 A 
HETATM   19  C   UNL     1       8.147  32.523  63.431  1.00  0.00     0.010 A 
ENDBRANCH  11  14
ENDBRANCH  10  11
ENDBRANCH   2  10
BRANCH   1  20
HETATM   20  C   UNL     1       4.828  34.816  67.366  1.00  0.00     0.119 A 
HETATM   21  N   UNL     1       5.947  35.571  67.608  1.00  0.00    -0.273 N 
HETATM   22  N   UNL     1       6.731  35.096  68.588  1.00  0.00    -0.179 NA
HETATM   23  H   UNL     1       6.221  36.421  67.126  1.00  0.00     0.189 HD
HETATM   24  C   UNL     1       6.032  34.071  69.088  1.00  0.00     0.057 A 
HETATM   25  C   UNL     1       4.835  33.858  68.361  1.00  0.00     0.065 A 
BRANCH  24  26
HETATM   26  C   UNL     1       6.528  33.335  70.287  1.00  0.00     0.061 C 
BRANCH  26  27
HETATM   27  C   UNL     1       7.896  33.843  70.745  1.00  0.00     0.002 C 
HETATM   28  C   UNL     1       8.245  33.336  72.136  1.00  0.00     0.005 C 
ENDBRANCH  26  27
ENDBRANCH  24  26
ENDBRANCH   1  20
TORSDOF 8
ENDMDL
MODEL 9
REMARK VINA RESULT:      -7.4      2.918      5.591
REMARK  8 active torsions:
REMARK  status: ('A' for Active; 'I' for Inactive)
REMARK    1  A    between atoms: C_2  and  C_3 
REMARK    2  A    between atoms: C_3  and  C_4 
REMARK    3  A    between atoms: C_8  and  C_9 
REMARK       I    between atoms: C_9  and  N_10 
REMARK    4  A    between atoms: N_10  and  C_11 
REMARK    5  A    between atoms: N_10  and  C_17 
REMARK    6  A    between atoms: C_17  and  C_18 
REMARK    7  A    between atoms: C_18  and  O_19 
REMARK    8  A    between atoms: C_18  and  C_20 
ROOT
HETATM    1  C   UNL     1       5.483  26.414  51.459  1.00  0.00     0.272 C 
HETATM    2  N   UNL     1       4.825  27.496  52.054  1.00  0.00    -0.339 N 
HETATM    3  O   UNL     1       5.433  26.215  50.248  1.00  0.00    -0.266 OA
ENDROOT
BRANCH   2   4
HETATM    4  C   UNL     1       4.100  28.486  51.212  1.00  0.00     0.087 C 
HETATM    5  C   UNL     1       2.990  29.218  51.989  1.00  0.00     0.025 C 
HETATM    6  C   UNL     1       3.349  30.611  52.488  1.00  0.00     0.002 C 
HETATM    7  C   UNL     1       3.950  31.460  51.378  1.00  0.00     0.000 C 
HETATM    8  C   UNL     1       5.210  30.824  50.815  1.00  0.00     0.002 C 
HETATM    9  C   UNL     1       4.991  29.390  50.335  1.00  0.00     0.025 C 
ENDBRANCH   2   4
BRANCH   2  10
HETATM   10  C   UNL     1       4.556  27.583  53.507  1.00  0.00     0.163 C 
BRANCH  10  11
HETATM   11  C   UNL     1       5.700  28.243  54.310  1.00  0.00     0.169 C 
BRANCH  11  12
HETATM   12  O   UNL     1       6.783  28.592  53.441  1.00  0.00    -0.389 OA
HETATM   13  H   UNL     1       6.794  27.928  52.729  1.00  0.00     0.210 HD
ENDBRANCH  11  12
BRANCH  11  14
HETATM   14  C   UNL     1       6.225  27.313  55.386  1.00  0.00    -0.028 A 
HETATM   15  C   UNL     1       5.366  26.402  56.017  1.00  0.00     0.010 A 
HETATM   16  C   UNL     1       5.850  25.544  57.007  1.00  0.00     0.001 A 
HETATM   17  C   UNL     1       7.195  25.583  57.373  1.00  0.00     0.000 A 
HETATM   18  C   UNL     1       8.061  26.477  56.748  1.00  0.00     0.001 A 
HETATM   19  C   UNL     1       7.579  27.335  55.758  1.00  0.00     0.010 A 
ENDBRANCH  11  14
ENDBRANCH  10  11
ENDBRANCH   2  10
BRANCH   1  20
HETATM   20  C   UNL     1       6.207  25.466  52.270  1.00  0.00     0.119 A 
HETATM   21  N   UNL     1       7.544  25.645  52.518  1.00  0.00    -0.273 N 
HETATM   22  N   UNL     1       8.094  24.694  53.288  1.00  0.00    -0.179 NA
HETATM   23  H   UNL     1       8.127  26.404  52.179  1.00  0.00     0.189 HD
HETATM   24  C   UNL     1       7.052  23.943  53.661  1.00  0.00     0.057 A 
HETATM   25  C   UNL     1       5.851  24.386  53.053  1.00  0.00     0.065 A 
BRANCH  24  26
HETATM   26  C   UNL     1       7.239  22.822  54.629  1.00  0.00     0.061 C 
BRANCH  26  27
HETATM   27  C   UNL     1       8.634  22.835  55.256  1.00  0.00     0.002 C 
HETATM   28  C   UNL     1       8.948  21.518  55.949  1.00  0.00     0.005 C 
ENDBRANCH  26  27
ENDBRANCH  24  26
ENDBRANCH   1  20
TORSDOF 8
ENDMDL
MODEL 10
REMARK VINA RESULT:      -7.4      1.431      4.398
REMARK  8 active torsions:
REMARK  status: ('A' for Active; 'I' for Inactive)
REMARK    1  A    between atoms: C_2  and  C_3 
REMARK    2  A    between atoms: C_3  and  C_4 
REMARK    3  A    between atoms: C_8  and  C_9 
REMARK       I    between atoms: C_9  and  N_10 
REMARK    4  A    between atoms: N_10  and  C_11 
REMARK    5  A    between atoms: N_10  and  C_17 
REMARK    6  A    between atoms: C_17  and  C_18 
REMARK    7  A    between atoms: C_18  and  O_19 
REMARK    8  A    between atoms: C_18  and  C_20 
ROOT
HETATM    1  C   UNL     1       7.017  25.958  56.553  1.00  0.00     0.272 C 
HETATM    2  N   UNL     1       7.051  25.593  55.203  1.00  0.00    -0.339 N 
HETATM    3  O   UNL     1       6.647  25.176  57.425  1.00  0.00    -0.266 OA
ENDROOT
BRANCH   2   4
HETATM    4  C   UNL     1       6.703  24.206  54.794  1.00  0.00     0.087 C 
HETATM    5  C   UNL     1       6.702  24.026  53.265  1.00  0.00     0.025 C 
HETATM    6  C   UNL     1       7.952  23.381  52.680  1.00  0.00     0.002 C 
HETATM    7  C   UNL     1       8.318  22.106  53.423  1.00  0.00     0.000 C 
HETATM    8  C   UNL     1       8.575  22.377  54.896  1.00  0.00     0.002 C 
HETATM    9  C   UNL     1       7.408  23.084  55.585  1.00  0.00     0.025 C 
ENDBRANCH   2   4
BRANCH   2  10
HETATM   10  C   UNL     1       7.142  26.575  54.099  1.00  0.00     0.163 C 
BRANCH  10  11
HETATM   11  C   UNL     1       5.839  27.376  53.875  1.00  0.00     0.169 C 
BRANCH  11  12
HETATM   12  O   UNL     1       4.723  26.683  54.444  1.00  0.00    -0.389 OA
HETATM   13  H   UNL     1       3.967  26.837  53.849  1.00  0.00     0.210 HD
ENDBRANCH  11  12
BRANCH  11  14
HETATM   14  C   UNL     1       5.572  27.591  52.398  1.00  0.00    -0.028 A 
HETATM   15  C   UNL     1       5.214  26.513  51.578  1.00  0.00     0.010 A 
HETATM   16  C   UNL     1       4.965  26.712  50.218  1.00  0.00     0.001 A 
HETATM   17  C   UNL     1       5.067  27.987  49.665  1.00  0.00     0.000 A 
HETATM   18  C   UNL     1       5.413  29.069  50.471  1.00  0.00     0.001 A 
HETATM   19  C   UNL     1       5.661  28.873  51.830  1.00  0.00     0.010 A 
ENDBRANCH  11  14
ENDBRANCH  10  11
ENDBRANCH   2  10
BRANCH   1  20
HETATM   20  C   UNL     1       7.378  27.296  56.956  1.00  0.00     0.119 A 
HETATM   21  N   UNL     1       6.413  28.179  57.368  1.00  0.00    -0.273 N 
HETATM   22  N   UNL     1       6.884  29.386  57.718  1.00  0.00    -0.179 NA
HETATM   23  H   UNL     1       5.415  28.004  57.424  1.00  0.00     0.189 HD
HETATM   24  C   UNL     1       8.212  29.241  57.657  1.00  0.00     0.057 A 
HETATM   25  C   UNL     1       8.570  27.953  57.189  1.00  0.00     0.065 A 
BRANCH  24  26
HETATM   26  C   UNL     1       9.112  30.351  58.086  1.00  0.00     0.061 C 
BRANCH  26  27
HETATM   27  C   UNL     1       9.041  30.596  59.594  1.00  0.00     0.002 C 
HETATM   28  C   UNL     1       8.886  32.074  59.916  1.00  0.00     0.005 C 
ENDBRANCH  26  27
ENDBRANCH  24  26
ENDBRANCH   1  20
TORSDOF 8
ENDMDL
