MODEL 1
REMARK VINA RESULT:     -11.1      0.000      0.000
REMARK  4 active torsions:
REMARK  status: ('A' for Active; 'I' for Inactive)
REMARK    1  A    between atoms: N_4  and  C_5 
REMARK    2  A    between atoms: C_15  and  N_16 
REMARK       I    between atoms: N_16  and  C_17 
REMARK    3  A    between atoms: C_17  and  C_18 
REMARK       I    between atoms: C_18  and  N_19 
REMARK    4  A    between atoms: N_19  and  C_20 
ROOT
HETATM    1  N   UNL     1       7.813  30.306  59.507  1.00  0.00    -0.303 N 
HETATM    2  C   UNL     1       8.800  30.541  58.567  1.00  0.00     0.315 C 
HETATM    3  O   UNL     1       9.615  31.456  58.547  1.00  0.00    -0.262 OA
HETATM    4  H   UNL     1       7.472  29.350  59.566  1.00  0.00     0.171 HD
ENDROOT
BRANCH   1   5
HETATM    5  C   UNL     1       7.571  31.206  60.528  1.00  0.00     0.152 C 
HETATM    6  N   UNL     1       6.837  32.387  60.436  1.00  0.00    -0.045 N 
HETATM    7  N   UNL     1       7.001  33.157  61.565  1.00  0.00    -0.156 NA
HETATM    8  C   UNL     1       7.614  32.343  62.431  1.00  0.00     0.055 C 
HETATM    9  C   UNL     1       7.901  32.796  63.814  1.00  0.00     0.072 C 
HETATM   10  C   UNL     1       7.945  31.099  61.849  1.00  0.00     0.079 C 
BRANCH   6  11
HETATM   11  C   UNL     1       5.856  32.778  59.494  1.00  0.00     0.732 A 
HETATM   12  N   UNL     1       6.042  32.808  58.208  1.00  0.00    -0.067 NA
HETATM   13  C   UNL     1       4.944  33.175  57.486  1.00  0.00     0.065 A 
HETATM   14  C   UNL     1       3.739  33.459  57.981  1.00  0.00     0.036 A 
HETATM   15  C   UNL     1       4.956  33.279  55.998  1.00  0.00     0.061 C 
HETATM   16  C   UNL     1       2.739  33.795  56.944  1.00  0.00     0.047 C 
HETATM   17  C   UNL     1       3.530  33.392  59.425  1.00  0.00     0.268 A 
HETATM   18  C   UNL     1       3.626  33.988  55.707  1.00  0.00     0.011 C 
HETATM   19  O   UNL     1       2.444  33.604  59.945  1.00  0.00    -0.267 OA
HETATM   20  N   UNL     1       4.658  33.057  60.119  1.00  0.00    -0.152 N 
HETATM   21  H   UNL     1       4.604  32.952  61.127  1.00  0.00     0.188 HD
ENDBRANCH   6  11
ENDBRANCH   1   5
BRANCH   2  22
HETATM   22  C   UNL     1       8.880  29.438  57.492  1.00  0.00     0.310 C 
HETATM   23  N   UNL     1       7.642  29.020  57.057  1.00  0.00    -0.348 N 
HETATM   24  H   UNL     1       6.872  29.438  57.579  1.00  0.00     0.163 HD
HETATM   25  O   UNL     1       9.971  29.029  57.127  1.00  0.00    -0.262 OA
BRANCH  23  26
HETATM   26  C   UNL     1       7.393  27.782  56.319  1.00  0.00     0.084 C 
HETATM   27  C   UNL     1       7.378  28.125  54.807  1.00  0.00     0.025 C 
HETATM   28  C   UNL     1       6.758  27.034  53.924  1.00  0.00     0.002 C 
HETATM   29  C   UNL     1       7.785  26.344  53.017  1.00  0.00     0.000 C 
HETATM   30  C   UNL     1       7.299  24.988  52.480  1.00  0.00     0.000 C 
HETATM   31  C   UNL     1       7.969  23.797  53.184  1.00  0.00     0.000 C 
HETATM   32  C   UNL     1       7.573  23.662  54.656  1.00  0.00     0.000 C 
HETATM   33  C   UNL     1       8.687  23.047  55.500  1.00  0.00     0.000 C 
HETATM   34  C   UNL     1       8.388  23.069  57.004  1.00  0.00     0.000 C 
HETATM   35  C   UNL     1       8.774  24.368  57.731  1.00  0.00     0.000 C 
HETATM   36  C   UNL     1       7.817  25.552  57.528  1.00  0.00     0.002 C 
HETATM   37  C   UNL     1       8.420  26.674  56.662  1.00  0.00     0.025 C 
ENDBRANCH  23  26
ENDBRANCH   2  22
TORSDOF 4
ENDMDL
MODEL 2
REMARK VINA RESULT:     -11.1      0.668      2.301
REMARK  4 active torsions:
REMARK  status: ('A' for Active; 'I' for Inactive)
REMARK    1  A    between atoms: N_4  and  C_5 
REMARK    2  A    between atoms: C_15  and  N_16 
REMARK       I    between atoms: N_16  and  C_17 
REMARK    3  A    between atoms: C_17  and  C_18 
REMARK       I    between atoms: C_18  and  N_19 
REMARK    4  A    between atoms: N_19  and  C_20 
ROOT
HETATM    1  N   UNL     1       8.132  30.497  59.413  1.00  0.00    -0.303 N 
HETATM    2  C   UNL     1       9.069  30.906  58.482  1.00  0.00     0.315 C 
HETATM    3  O   UNL     1       9.742  31.931  58.494  1.00  0.00    -0.262 OA
HETATM    4  H   UNL     1       7.935  29.500  59.439  1.00  0.00     0.171 HD
ENDROOT
BRANCH   1   5
HETATM    5  C   UNL     1       7.767  31.316  60.466  1.00  0.00     0.152 C 
HETATM    6  N   UNL     1       6.911  32.414  60.403  1.00  0.00    -0.045 N 
HETATM    7  N   UNL     1       6.961  33.143  61.570  1.00  0.00    -0.156 NA
HETATM    8  C   UNL     1       7.637  32.359  62.418  1.00  0.00     0.055 C 
HETATM    9  C   UNL     1       7.837  32.775  63.827  1.00  0.00     0.072 C 
HETATM   10  C   UNL     1       8.117  31.188  61.791  1.00  0.00     0.079 C 
BRANCH   6  11
HETATM   11  C   UNL     1       5.918  32.742  59.450  1.00  0.00     0.732 A 
HETATM   12  N   UNL     1       6.094  32.704  58.162  1.00  0.00    -0.067 NA
HETATM   13  C   UNL     1       4.986  33.017  57.430  1.00  0.00     0.065 A 
HETATM   14  C   UNL     1       3.781  33.313  57.919  1.00  0.00     0.036 A 
HETATM   15  C   UNL     1       4.985  33.041  55.939  1.00  0.00     0.061 C 
HETATM   16  C   UNL     1       2.769  33.579  56.874  1.00  0.00     0.047 C 
HETATM   17  C   UNL     1       3.584  33.321  59.367  1.00  0.00     0.268 A 
HETATM   18  C   UNL     1       3.644  33.716  55.621  1.00  0.00     0.011 C 
HETATM   19  O   UNL     1       2.500  33.548  59.884  1.00  0.00    -0.267 OA
HETATM   20  N   UNL     1       4.722  33.039  60.068  1.00  0.00    -0.152 N 
HETATM   21  H   UNL     1       4.676  32.988  61.081  1.00  0.00     0.188 HD
ENDBRANCH   6  11
ENDBRANCH   1   5
BRANCH   2  22
HETATM   22  C   UNL     1       9.304  29.864  57.369  1.00  0.00     0.310 C 
HETATM   23  N   UNL     1       8.241  29.004  57.205  1.00  0.00    -0.348 N 
HETATM   24  H   UNL     1       7.510  29.133  57.904  1.00  0.00     0.163 HD
HETATM   25  O   UNL     1      10.356  29.868  56.750  1.00  0.00    -0.262 OA
BRANCH  23  26
HETATM   26  C   UNL     1       8.303  27.731  56.488  1.00  0.00     0.084 C 
HETATM   27  C   UNL     1       8.291  26.591  57.540  1.00  0.00     0.025 C 
HETATM   28  C   UNL     1       8.733  25.228  56.991  1.00  0.00     0.002 C 
HETATM   29  C   UNL     1       7.589  24.208  56.935  1.00  0.00     0.000 C 
HETATM   30  C   UNL     1       7.882  23.027  55.996  1.00  0.00     0.000 C 
HETATM   31  C   UNL     1       7.106  23.115  54.673  1.00  0.00     0.000 C 
HETATM   32  C   UNL     1       7.549  24.280  53.787  1.00  0.00     0.000 C 
HETATM   33  C   UNL     1       6.409  24.819  52.925  1.00  0.00     0.000 C 
HETATM   34  C   UNL     1       6.777  26.099  52.166  1.00  0.00     0.000 C 
HETATM   35  C   UNL     1       6.585  27.407  52.953  1.00  0.00     0.000 C 
HETATM   36  C   UNL     1       7.668  27.719  53.995  1.00  0.00     0.002 C 
HETATM   37  C   UNL     1       7.166  27.584  55.446  1.00  0.00     0.025 C 
ENDBRANCH  23  26
ENDBRANCH   2  22
TORSDOF 4
ENDMDL
MODEL 3
REMARK VINA RESULT:     -10.9      6.097      9.175
REMARK  4 active torsions:
REMARK  status: ('A' for Active; 'I' for Inactive)
REMARK    1  A    between atoms: N_4  and  C_5 
REMARK    2  A    between atoms: C_15  and  N_16 
REMARK       I    between atoms: N_16  and  C_17 
REMARK    3  A    between atoms: C_17  and  C_18 
REMARK       I    between atoms: C_18  and  N_19 
REMARK    4  A    between atoms: N_19  and  C_20 
ROOT
HETATM    1  N   UNL     1       5.642  29.936  51.279  1.00  0.00    -0.303 N 
HETATM    2  C   UNL     1       4.588  29.673  52.136  1.00  0.00     0.315 C 
HETATM    3  O   UNL     1       3.447  30.116  52.081  1.00  0.00    -0.262 OA
HETATM    4  H   UNL     1       6.383  29.241  51.259  1.00  0.00     0.171 HD
ENDROOT
BRANCH   1   5
HETATM    5  C   UNL     1       5.522  30.871  50.268  1.00  0.00     0.152 C 
HETATM    6  N   UNL     1       5.115  30.627  48.957  1.00  0.00    -0.045 N 
HETATM    7  N   UNL     1       5.343  31.725  48.159  1.00  0.00    -0.156 NA
HETATM    8  C   UNL     1       5.644  32.701  49.023  1.00  0.00     0.055 C 
HETATM    9  C   UNL     1       5.886  34.082  48.539  1.00  0.00     0.072 C 
HETATM   10  C   UNL     1       5.719  32.230  50.352  1.00  0.00     0.079 C 
BRANCH   6  11
HETATM   11  C   UNL     1       4.364  29.553  48.422  1.00  0.00     0.732 A 
HETATM   12  N   UNL     1       4.579  28.299  48.691  1.00  0.00    -0.067 NA
HETATM   13  C   UNL     1       3.705  27.435  48.098  1.00  0.00     0.065 A 
HETATM   14  C   UNL     1       2.672  27.773  47.325  1.00  0.00     0.036 A 
HETATM   15  C   UNL     1       3.790  25.957  48.273  1.00  0.00     0.061 C 
HETATM   16  C   UNL     1       1.886  26.612  46.851  1.00  0.00     0.047 C 
HETATM   17  C   UNL     1       2.419  29.186  47.054  1.00  0.00     0.268 A 
HETATM   18  C   UNL     1       2.812  25.442  47.207  1.00  0.00     0.011 C 
HETATM   19  O   UNL     1       1.470  29.569  46.384  1.00  0.00    -0.267 OA
HETATM   20  N   UNL     1       3.333  30.019  47.633  1.00  0.00    -0.152 N 
HETATM   21  H   UNL     1       3.219  31.023  47.530  1.00  0.00     0.188 HD
ENDBRANCH   6  11
ENDBRANCH   1   5
BRANCH   2  22
HETATM   22  C   UNL     1       4.940  28.629  53.216  1.00  0.00     0.310 C 
HETATM   23  N   UNL     1       5.987  27.811  52.853  1.00  0.00    -0.348 N 
HETATM   24  H   UNL     1       6.300  27.964  51.895  1.00  0.00     0.163 HD
HETATM   25  O   UNL     1       4.300  28.596  54.255  1.00  0.00    -0.262 OA
BRANCH  23  26
HETATM   26  C   UNL     1       6.313  26.540  53.499  1.00  0.00     0.084 C 
HETATM   27  C   UNL     1       6.671  25.520  52.388  1.00  0.00     0.025 C 
HETATM   28  C   UNL     1       6.663  24.058  52.855  1.00  0.00     0.002 C 
HETATM   29  C   UNL     1       8.063  23.430  52.876  1.00  0.00     0.000 C 
HETATM   30  C   UNL     1       8.142  22.165  53.745  1.00  0.00     0.000 C 
HETATM   31  C   UNL     1       8.855  22.409  55.084  1.00  0.00     0.000 C 
HETATM   32  C   UNL     1       8.078  23.334  56.024  1.00  0.00     0.000 C 
HETATM   33  C   UNL     1       9.001  24.143  56.933  1.00  0.00     0.000 C 
HETATM   34  C   UNL     1       8.262  25.207  57.753  1.00  0.00     0.000 C 
HETATM   35  C   UNL     1       8.049  26.554  57.041  1.00  0.00     0.000 C 
HETATM   36  C   UNL     1       6.922  26.581  55.998  1.00  0.00     0.002 C 
HETATM   37  C   UNL     1       7.441  26.686  54.552  1.00  0.00     0.025 C 
ENDBRANCH  23  26
ENDBRANCH   2  22
TORSDOF 4
ENDMDL
MODEL 4
REMARK VINA RESULT:     -10.8      1.867      4.687
REMARK  4 active torsions:
REMARK  status: ('A' for Active; 'I' for Inactive)
REMARK    1  A    between atoms: N_4  and  C_5 
REMARK    2  A    between atoms: C_15  and  N_16 
REMARK       I    between atoms: N_16  and  C_17 
REMARK    3  A    between atoms: C_17  and  C_18 
REMARK       I    between atoms: C_18  and  N_19 
REMARK    4  A    between atoms: N_19  and  C_20 
ROOT
HETATM    1  N   UNL     1       4.549  30.313  57.621  1.00  0.00    -0.303 N 
HETATM    2  C   UNL     1       5.793  30.018  57.094  1.00  0.00     0.315 C 
HETATM    3  O   UNL     1       6.699  30.798  56.824  1.00  0.00    -0.262 OA
HETATM    4  H   UNL     1       4.074  29.550  58.096  1.00  0.00     0.171 HD
ENDROOT
BRANCH   1   5
HETATM    5  C   UNL     1       4.146  31.622  57.809  1.00  0.00     0.152 C 
HETATM    6  N   UNL     1       4.368  32.403  58.942  1.00  0.00    -0.045 N 
HETATM    7  N   UNL     1       3.627  33.561  58.893  1.00  0.00    -0.156 NA
HETATM    8  C   UNL     1       3.165  33.602  57.639  1.00  0.00     0.055 C 
HETATM    9  C   UNL     1       2.368  34.762  57.170  1.00  0.00     0.072 C 
HETATM   10  C   UNL     1       3.503  32.441  56.910  1.00  0.00     0.079 C 
BRANCH   6  11
HETATM   11  C   UNL     1       5.338  32.269  59.964  1.00  0.00     0.732 A 
HETATM   12  N   UNL     1       6.619  32.402  59.784  1.00  0.00    -0.067 NA
HETATM   13  C   UNL     1       7.366  32.274  60.919  1.00  0.00     0.065 A 
HETATM   14  C   UNL     1       6.894  32.067  62.149  1.00  0.00     0.036 A 
HETATM   15  C   UNL     1       8.853  32.383  60.921  1.00  0.00     0.061 C 
HETATM   16  C   UNL     1       7.950  32.004  63.184  1.00  0.00     0.047 C 
HETATM   17  C   UNL     1       5.451  31.951  62.347  1.00  0.00     0.268 A 
HETATM   18  C   UNL     1       9.218  31.886  62.328  1.00  0.00     0.011 C 
HETATM   19  O   UNL     1       4.947  31.796  63.450  1.00  0.00    -0.267 OA
HETATM   20  N   UNL     1       4.738  32.047  61.186  1.00  0.00    -0.152 N 
HETATM   21  H   UNL     1       3.724  32.013  61.226  1.00  0.00     0.188 HD
ENDBRANCH   6  11
ENDBRANCH   1   5
BRANCH   2  22
HETATM   22  C   UNL     1       6.031  28.502  56.928  1.00  0.00     0.310 C 
HETATM   23  N   UNL     1       7.356  28.185  56.728  1.00  0.00    -0.348 N 
HETATM   24  H   UNL     1       7.953  29.004  56.628  1.00  0.00     0.163 HD
HETATM   25  O   UNL     1       5.083  27.734  56.976  1.00  0.00    -0.262 OA
BRANCH  23  26
HETATM   26  C   UNL     1       7.835  26.904  56.207  1.00  0.00     0.084 C 
HETATM   27  C   UNL     1       7.861  25.893  57.382  1.00  0.00     0.025 C 
HETATM   28  C   UNL     1       8.689  24.631  57.104  1.00  0.00     0.002 C 
HETATM   29  C   UNL     1       7.829  23.367  56.985  1.00  0.00     0.000 C 
HETATM   30  C   UNL     1       8.552  22.211  56.276  1.00  0.00     0.000 C 
HETATM   31  C   UNL     1       8.056  21.994  54.838  1.00  0.00     0.000 C 
HETATM   32  C   UNL     1       8.404  23.149  53.896  1.00  0.00     0.000 C 
HETATM   33  C   UNL     1       7.369  23.321  52.786  1.00  0.00     0.000 C 
HETATM   34  C   UNL     1       7.594  24.580  51.940  1.00  0.00     0.000 C 
HETATM   35  C   UNL     1       6.970  25.869  52.502  1.00  0.00     0.000 C 
HETATM   36  C   UNL     1       7.729  26.521  53.666  1.00  0.00     0.002 C 
HETATM   37  C   UNL     1       6.989  26.399  55.012  1.00  0.00     0.025 C 
ENDBRANCH  23  26
ENDBRANCH   2  22
TORSDOF 4
ENDMDL
MODEL 5
REMARK VINA RESULT:     -10.6      5.856      9.094
REMARK  4 active torsions:
REMARK  status: ('A' for Active; 'I' for Inactive)
REMARK    1  A    between atoms: N_4  and  C_5 
REMARK    2  A    between atoms: C_15  and  N_16 
REMARK       I    between atoms: N_16  and  C_17 
REMARK    3  A    between atoms: C_17  and  C_18 
REMARK       I    between atoms: C_18  and  N_19 
REMARK    4  A    between atoms: N_19  and  C_20 
ROOT
HETATM    1  N   UNL     1       5.469  30.065  51.626  1.00  0.00    -0.303 N 
HETATM    2  C   UNL     1       4.539  29.757  52.602  1.00  0.00     0.315 C 
HETATM    3  O   UNL     1       3.386  30.163  52.695  1.00  0.00    -0.262 OA
HETATM    4  H   UNL     1       6.224  29.395  51.503  1.00  0.00     0.171 HD
ENDROOT
BRANCH   1   5
HETATM    5  C   UNL     1       5.196  31.008  50.652  1.00  0.00     0.152 C 
HETATM    6  N   UNL     1       4.804  30.755  49.339  1.00  0.00    -0.045 N 
HETATM    7  N   UNL     1       4.856  31.902  48.581  1.00  0.00    -0.156 NA
HETATM    8  C   UNL     1       5.028  32.880  49.477  1.00  0.00     0.055 C 
HETATM    9  C   UNL     1       5.059  34.298  49.043  1.00  0.00     0.072 C 
HETATM   10  C   UNL     1       5.195  32.378  50.786  1.00  0.00     0.079 C 
BRANCH   6  11
HETATM   11  C   UNL     1       4.207  29.603  48.774  1.00  0.00     0.732 A 
HETATM   12  N   UNL     1       4.478  28.383  49.133  1.00  0.00    -0.067 NA
HETATM   13  C   UNL     1       3.751  27.428  48.483  1.00  0.00     0.065 A 
HETATM   14  C   UNL     1       2.802  27.648  47.572  1.00  0.00     0.036 A 
HETATM   15  C   UNL     1       3.921  25.969  48.745  1.00  0.00     0.061 C 
HETATM   16  C   UNL     1       2.169  26.410  47.068  1.00  0.00     0.047 C 
HETATM   17  C   UNL     1       2.482  29.024  47.199  1.00  0.00     0.268 A 
HETATM   18  C   UNL     1       3.126  25.334  47.595  1.00  0.00     0.011 C 
HETATM   19  O   UNL     1       1.600  29.302  46.399  1.00  0.00    -0.267 OA
HETATM   20  N   UNL     1       3.253  29.951  47.841  1.00  0.00    -0.152 N 
HETATM   21  H   UNL     1       3.080  30.938  47.672  1.00  0.00     0.188 HD
ENDBRANCH   6  11
ENDBRANCH   1   5
BRANCH   2  22
HETATM   22  C   UNL     1       5.053  28.711  53.613  1.00  0.00     0.310 C 
HETATM   23  N   UNL     1       6.428  28.666  53.686  1.00  0.00    -0.348 N 
HETATM   24  H   UNL     1       6.886  29.261  52.997  1.00  0.00     0.163 HD
HETATM   25  O   UNL     1       4.255  28.031  54.238  1.00  0.00    -0.262 OA
BRANCH  23  26
HETATM   26  C   UNL     1       7.194  27.569  54.280  1.00  0.00     0.084 C 
HETATM   27  C   UNL     1       7.123  27.720  55.821  1.00  0.00     0.025 C 
HETATM   28  C   UNL     1       8.171  26.895  56.580  1.00  0.00     0.002 C 
HETATM   29  C   UNL     1       7.555  25.747  57.389  1.00  0.00     0.000 C 
HETATM   30  C   UNL     1       8.578  24.665  57.772  1.00  0.00     0.000 C 
HETATM   31  C   UNL     1       8.435  23.389  56.928  1.00  0.00     0.000 C 
HETATM   32  C   UNL     1       8.796  23.592  55.455  1.00  0.00     0.000 C 
HETATM   33  C   UNL     1       8.005  22.666  54.533  1.00  0.00     0.000 C 
HETATM   34  C   UNL     1       8.211  22.975  53.045  1.00  0.00     0.000 C 
HETATM   35  C   UNL     1       7.295  24.068  52.468  1.00  0.00     0.000 C 
HETATM   36  C   UNL     1       7.685  25.512  52.817  1.00  0.00     0.002 C 
HETATM   37  C   UNL     1       6.705  26.180  53.800  1.00  0.00     0.025 C 
ENDBRANCH  23  26
ENDBRANCH   2  22
TORSDOF 4
ENDMDL
MODEL 6
REMARK VINA RESULT:     -10.5      2.909      9.593
REMARK  4 active torsions:
REMARK  status: ('A' for Active; 'I' for Inactive)
REMARK    1  A    between atoms: N_4  and  C_5 
REMARK    2  A    between atoms: C_15  and  N_16 
REMARK       I    between atoms: N_16  and  C_17 
REMARK    3  A    between atoms: C_17  and  C_18 
REMARK       I    between atoms: C_18  and  N_19 
REMARK    4  A    between atoms: N_19  and  C_20 
ROOT
HETATM    1  N   UNL     1       6.612  28.544  54.425  1.00  0.00    -0.303 N 
HETATM    2  C   UNL     1       7.955  28.750  54.685  1.00  0.00     0.315 C 
HETATM    3  O   UNL     1       8.909  28.488  53.963  1.00  0.00    -0.262 OA
HETATM    4  H   UNL     1       5.962  29.119  54.953  1.00  0.00     0.171 HD
ENDROOT
BRANCH   1   5
HETATM    5  C   UNL     1       6.201  27.880  53.284  1.00  0.00     0.152 C 
HETATM    6  N   UNL     1       6.521  26.572  52.925  1.00  0.00    -0.045 N 
HETATM    7  N   UNL     1       6.152  26.315  51.624  1.00  0.00    -0.156 NA
HETATM    8  C   UNL     1       5.392  27.362  51.286  1.00  0.00     0.055 C 
HETATM    9  C   UNL     1       4.736  27.415  49.957  1.00  0.00     0.072 C 
HETATM   10  C   UNL     1       5.351  28.340  52.304  1.00  0.00     0.079 C 
BRANCH   6  11
HETATM   11  C   UNL     1       6.956  25.489  53.725  1.00  0.00     0.732 A 
HETATM   12  N   UNL     1       7.101  25.540  55.017  1.00  0.00    -0.067 NA
HETATM   13  C   UNL     1       7.490  24.364  55.589  1.00  0.00     0.065 A 
HETATM   14  C   UNL     1       7.689  23.209  54.952  1.00  0.00     0.036 A 
HETATM   15  C   UNL     1       7.720  24.220  57.056  1.00  0.00     0.061 C 
HETATM   16  C   UNL     1       8.077  22.099  55.850  1.00  0.00     0.047 C 
HETATM   17  C   UNL     1       7.493  23.153  53.506  1.00  0.00     0.268 A 
HETATM   18  C   UNL     1       8.405  22.848  57.148  1.00  0.00     0.011 C 
HETATM   19  O   UNL     1       7.623  22.122  52.862  1.00  0.00    -0.267 OA
HETATM   20  N   UNL     1       7.140  24.355  52.961  1.00  0.00    -0.152 N 
HETATM   21  H   UNL     1       6.948  24.408  51.966  1.00  0.00     0.188 HD
ENDBRANCH   6  11
ENDBRANCH   1   5
BRANCH   2  22
HETATM   22  C   UNL     1       8.202  29.473  56.026  1.00  0.00     0.310 C 
HETATM   23  N   UNL     1       7.040  29.909  56.623  1.00  0.00    -0.348 N 
HETATM   24  H   UNL     1       6.214  29.769  56.042  1.00  0.00     0.163 HD
HETATM   25  O   UNL     1       9.343  29.607  56.439  1.00  0.00    -0.262 OA
BRANCH  23  26
HETATM   26  C   UNL     1       6.977  30.902  57.696  1.00  0.00     0.084 C 
HETATM   27  C   UNL     1       5.505  31.371  57.824  1.00  0.00     0.025 C 
HETATM   28  C   UNL     1       5.329  32.669  58.624  1.00  0.00     0.002 C 
HETATM   29  C   UNL     1       4.618  32.452  59.965  1.00  0.00     0.000 C 
HETATM   30  C   UNL     1       4.832  33.609  60.954  1.00  0.00     0.000 C 
HETATM   31  C   UNL     1       5.824  33.257  62.073  1.00  0.00     0.000 C 
HETATM   32  C   UNL     1       7.257  33.060  61.573  1.00  0.00     0.000 C 
HETATM   33  C   UNL     1       8.032  32.053  62.420  1.00  0.00     0.000 C 
HETATM   34  C   UNL     1       9.405  31.701  61.835  1.00  0.00     0.000 C 
HETATM   35  C   UNL     1       9.403  30.574  60.788  1.00  0.00     0.000 C 
HETATM   36  C   UNL     1       8.913  30.971  59.388  1.00  0.00     0.002 C 
HETATM   37  C   UNL     1       7.543  30.362  59.033  1.00  0.00     0.025 C 
ENDBRANCH  23  26
ENDBRANCH   2  22
TORSDOF 4
ENDMDL
MODEL 7
REMARK VINA RESULT:     -10.5      1.995      4.331
REMARK  4 active torsions:
REMARK  status: ('A' for Active; 'I' for Inactive)
REMARK    1  A    between atoms: N_4  and  C_5 
REMARK    2  A    between atoms: C_15  and  N_16 
REMARK       I    between atoms: N_16  and  C_17 
REMARK    3  A    between atoms: C_17  and  C_18 
REMARK       I    between atoms: C_18  and  N_19 
REMARK    4  A    between atoms: N_19  and  C_20 
ROOT
HETATM    1  N   UNL     1       5.341  31.489  56.540  1.00  0.00    -0.303 N 
HETATM    2  C   UNL     1       4.681  30.274  56.550  1.00  0.00     0.315 C 
HETATM    3  O   UNL     1       3.549  30.037  56.957  1.00  0.00    -0.262 OA
HETATM    4  H   UNL     1       6.101  31.577  55.871  1.00  0.00     0.171 HD
ENDROOT
BRANCH   1   5
HETATM    5  C   UNL     1       4.782  32.609  57.126  1.00  0.00     0.152 C 
HETATM    6  N   UNL     1       4.895  32.990  58.461  1.00  0.00    -0.045 N 
HETATM    7  N   UNL     1       4.022  34.012  58.756  1.00  0.00    -0.156 NA
HETATM    8  C   UNL     1       3.574  34.416  57.563  1.00  0.00     0.055 C 
HETATM    9  C   UNL     1       2.650  35.572  57.459  1.00  0.00     0.072 C 
HETATM   10  C   UNL     1       4.057  33.605  56.512  1.00  0.00     0.079 C 
BRANCH   6  11
HETATM   11  C   UNL     1       5.861  32.632  59.431  1.00  0.00     0.732 A 
HETATM   12  N   UNL     1       7.130  32.485  59.187  1.00  0.00    -0.067 NA
HETATM   13  C   UNL     1       7.885  32.180  60.281  1.00  0.00     0.065 A 
HETATM   14  C   UNL     1       7.441  32.061  61.533  1.00  0.00     0.036 A 
HETATM   15  C   UNL     1       9.359  31.961  60.208  1.00  0.00     0.061 C 
HETATM   16  C   UNL     1       8.506  31.753  62.512  1.00  0.00     0.047 C 
HETATM   17  C   UNL     1       6.019  32.261  61.804  1.00  0.00     0.268 A 
HETATM   18  C   UNL     1       9.674  31.374  61.591  1.00  0.00     0.011 C 
HETATM   19  O   UNL     1       5.548  32.202  62.931  1.00  0.00    -0.267 OA
HETATM   20  N   UNL     1       5.288  32.528  60.682  1.00  0.00    -0.152 N 
HETATM   21  H   UNL     1       4.294  32.716  60.774  1.00  0.00     0.188 HD
ENDBRANCH   6  11
ENDBRANCH   1   5
BRANCH   2  22
HETATM   22  C   UNL     1       5.491  29.144  55.881  1.00  0.00     0.310 C 
HETATM   23  N   UNL     1       4.753  27.999  55.682  1.00  0.00    -0.348 N 
HETATM   24  H   UNL     1       3.821  28.046  56.090  1.00  0.00     0.163 HD
HETATM   25  O   UNL     1       6.664  29.330  55.596  1.00  0.00    -0.262 OA
BRANCH  23  26
HETATM   26  C   UNL     1       5.322  26.682  55.394  1.00  0.00     0.084 C 
HETATM   27  C   UNL     1       5.286  26.473  53.858  1.00  0.00     0.025 C 
HETATM   28  C   UNL     1       5.483  25.015  53.420  1.00  0.00     0.002 C 
HETATM   29  C   UNL     1       6.813  24.786  52.692  1.00  0.00     0.000 C 
HETATM   30  C   UNL     1       7.231  23.307  52.653  1.00  0.00     0.000 C 
HETATM   31  C   UNL     1       8.368  22.985  53.634  1.00  0.00     0.000 C 
HETATM   32  C   UNL     1       7.955  23.110  55.102  1.00  0.00     0.000 C 
HETATM   33  C   UNL     1       9.121  23.524  55.998  1.00  0.00     0.000 C 
HETATM   34  C   UNL     1       8.696  23.834  57.439  1.00  0.00     0.000 C 
HETATM   35  C   UNL     1       8.207  25.272  57.684  1.00  0.00     0.000 C 
HETATM   36  C   UNL     1       6.782  25.579  57.203  1.00  0.00     0.002 C 
HETATM   37  C   UNL     1       6.747  26.514  55.979  1.00  0.00     0.025 C 
ENDBRANCH  23  26
ENDBRANCH   2  22
TORSDOF 4
ENDMDL
MODEL 8
REMARK VINA RESULT:     -10.5      4.548      8.288
REMARK  4 active torsions:
REMARK  status: ('A' for Active; 'I' for Inactive)
REMARK    1  A    between atoms: N_4  and  C_5 
REMARK    2  A    between atoms: C_15  and  N_16 
REMARK       I    between atoms: N_16  and  C_17 
REMARK    3  A    between atoms: C_17  and  C_18 
REMARK       I    between atoms: C_18  and  N_19 
REMARK    4  A    between atoms: N_19  and  C_20 
ROOT
HETATM    1  N   UNL     1       6.316  29.472  55.141  1.00  0.00    -0.303 N 
HETATM    2  C   UNL     1       4.966  29.773  55.155  1.00  0.00     0.315 C 
HETATM    3  O   UNL     1       4.254  29.989  56.129  1.00  0.00    -0.262 OA
HETATM    4  H   UNL     1       6.807  29.667  54.273  1.00  0.00     0.171 HD
ENDROOT
BRANCH   1   5
HETATM    5  C   UNL     1       7.014  29.272  56.317  1.00  0.00     0.152 C 
HETATM    6  N   UNL     1       7.390  28.044  56.859  1.00  0.00    -0.045 N 
HETATM    7  N   UNL     1       7.850  28.196  58.147  1.00  0.00    -0.156 NA
HETATM    8  C   UNL     1       7.993  29.518  58.291  1.00  0.00     0.055 C 
HETATM    9  C   UNL     1       8.549  30.081  59.545  1.00  0.00     0.072 C 
HETATM   10  C   UNL     1       7.532  30.228  57.161  1.00  0.00     0.079 C 
BRANCH   6  11
HETATM   11  C   UNL     1       7.542  26.782  56.237  1.00  0.00     0.732 A 
HETATM   12  N   UNL     1       7.337  26.557  54.972  1.00  0.00    -0.067 NA
HETATM   13  C   UNL     1       7.587  25.274  54.579  1.00  0.00     0.065 A 
HETATM   14  C   UNL     1       8.039  24.289  55.357  1.00  0.00     0.036 A 
HETATM   15  C   UNL     1       7.403  24.812  53.173  1.00  0.00     0.061 C 
HETATM   16  C   UNL     1       8.243  23.014  54.635  1.00  0.00     0.047 C 
HETATM   17  C   UNL     1       8.298  24.561  56.769  1.00  0.00     0.268 A 
HETATM   18  C   UNL     1       7.521  23.287  53.309  1.00  0.00     0.011 C 
HETATM   19  O   UNL     1       8.746  23.716  57.531  1.00  0.00    -0.267 OA
HETATM   20  N   UNL     1       8.002  25.843  57.135  1.00  0.00    -0.152 N 
HETATM   21  H   UNL     1       8.182  26.136  58.091  1.00  0.00     0.188 HD
ENDBRANCH   6  11
ENDBRANCH   1   5
BRANCH   2  22
HETATM   22  C   UNL     1       4.369  29.918  53.739  1.00  0.00     0.310 C 
HETATM   23  N   UNL     1       4.332  28.729  53.047  1.00  0.00    -0.348 N 
HETATM   24  H   UNL     1       4.789  27.963  53.541  1.00  0.00     0.163 HD
HETATM   25  O   UNL     1       3.998  31.014  53.350  1.00  0.00    -0.262 OA
BRANCH  23  26
HETATM   26  C   UNL     1       4.149  28.613  51.600  1.00  0.00     0.084 C 
HETATM   27  C   UNL     1       4.692  27.229  51.161  1.00  0.00     0.025 C 
HETATM   28  C   UNL     1       4.928  27.099  49.650  1.00  0.00     0.002 C 
HETATM   29  C   UNL     1       3.956  26.124  48.975  1.00  0.00     0.000 C 
HETATM   30  C   UNL     1       3.870  26.318  47.452  1.00  0.00     0.000 C 
HETATM   31  C   UNL     1       2.574  27.019  47.016  1.00  0.00     0.000 C 
HETATM   32  C   UNL     1       2.487  28.475  47.478  1.00  0.00     0.000 C 
HETATM   33  C   UNL     1       1.046  28.920  47.721  1.00  0.00     0.000 C 
HETATM   34  C   UNL     1       0.942  30.311  48.359  1.00  0.00     0.000 C 
HETATM   35  C   UNL     1       1.040  30.338  49.893  1.00  0.00     0.000 C 
HETATM   36  C   UNL     1       2.455  30.185  50.471  1.00  0.00     0.002 C 
HETATM   37  C   UNL     1       2.676  28.831  51.172  1.00  0.00     0.025 C 
ENDBRANCH  23  26
ENDBRANCH   2  22
TORSDOF 4
ENDMDL
MODEL 9
REMARK VINA RESULT:     -10.4      3.283     10.119
REMARK  4 active torsions:
REMARK  status: ('A' for Active; 'I' for Inactive)
REMARK    1  A    between atoms: N_4  and  C_5 
REMARK    2  A    between atoms: C_15  and  N_16 
REMARK       I    between atoms: N_16  and  C_17 
REMARK    3  A    between atoms: C_17  and  C_18 
REMARK       I    between atoms: C_18  and  N_19 
REMARK    4  A    between atoms: N_19  and  C_20 
ROOT
HETATM    1  N   UNL     1       5.115  27.530  54.274  1.00  0.00    -0.303 N 
HETATM    2  C   UNL     1       6.115  28.328  54.799  1.00  0.00     0.315 C 
HETATM    3  O   UNL     1       7.145  28.701  54.250  1.00  0.00    -0.262 OA
HETATM    4  H   UNL     1       4.203  27.609  54.717  1.00  0.00     0.171 HD
ENDROOT
BRANCH   1   5
HETATM    5  C   UNL     1       5.245  26.953  53.024  1.00  0.00     0.152 C 
HETATM    6  N   UNL     1       6.078  25.888  52.686  1.00  0.00    -0.045 N 
HETATM    7  N   UNL     1       6.143  25.730  51.320  1.00  0.00    -0.156 NA
HETATM    8  C   UNL     1       5.168  26.517  50.852  1.00  0.00     0.055 C 
HETATM    9  C   UNL     1       4.870  26.560  49.400  1.00  0.00     0.072 C 
HETATM   10  C   UNL     1       4.547  27.261  51.879  1.00  0.00     0.079 C 
BRANCH   6  11
HETATM   11  C   UNL     1       6.661  24.893  53.505  1.00  0.00     0.732 A 
HETATM   12  N   UNL     1       6.784  24.982  54.797  1.00  0.00    -0.067 NA
HETATM   13  C   UNL     1       7.337  23.885  55.389  1.00  0.00     0.065 A 
HETATM   14  C   UNL     1       7.712  22.764  54.771  1.00  0.00     0.036 A 
HETATM   15  C   UNL     1       7.572  23.795  56.859  1.00  0.00     0.061 C 
HETATM   16  C   UNL     1       8.251  21.736  55.687  1.00  0.00     0.047 C 
HETATM   17  C   UNL     1       7.541  22.660  53.323  1.00  0.00     0.268 A 
HETATM   18  C   UNL     1       8.451  22.542  56.977  1.00  0.00     0.011 C 
HETATM   19  O   UNL     1       7.829  21.651  52.696  1.00  0.00    -0.267 OA
HETATM   20  N   UNL     1       7.019  23.789  52.759  1.00  0.00    -0.152 N 
HETATM   21  H   UNL     1       6.831  23.800  51.761  1.00  0.00     0.188 HD
ENDBRANCH   6  11
ENDBRANCH   1   5
BRANCH   2  22
HETATM   22  C   UNL     1       5.791  28.840  56.218  1.00  0.00     0.310 C 
HETATM   23  N   UNL     1       6.644  29.836  56.638  1.00  0.00    -0.348 N 
HETATM   24  H   UNL     1       7.408  30.011  55.986  1.00  0.00     0.163 HD
HETATM   25  O   UNL     1       4.859  28.353  56.838  1.00  0.00    -0.262 OA
BRANCH  23  26
HETATM   26  C   UNL     1       6.802  30.267  58.027  1.00  0.00     0.084 C 
HETATM   27  C   UNL     1       8.313  30.216  58.372  1.00  0.00     0.025 C 
HETATM   28  C   UNL     1       8.613  30.263  59.876  1.00  0.00     0.002 C 
HETATM   29  C   UNL     1       9.298  31.565  60.308  1.00  0.00     0.000 C 
HETATM   30  C   UNL     1       9.196  31.827  61.819  1.00  0.00     0.000 C 
HETATM   31  C   UNL     1       8.173  32.919  62.165  1.00  0.00     0.000 C 
HETATM   32  C   UNL     1       6.728  32.515  61.863  1.00  0.00     0.000 C 
HETATM   33  C   UNL     1       5.857  33.712  61.491  1.00  0.00     0.000 C 
HETATM   34  C   UNL     1       4.457  33.315  61.007  1.00  0.00     0.000 C 
HETATM   35  C   UNL     1       4.351  32.978  59.510  1.00  0.00     0.000 C 
HETATM   36  C   UNL     1       4.879  31.594  59.103  1.00  0.00     0.002 C 
HETATM   37  C   UNL     1       6.184  31.664  58.286  1.00  0.00     0.025 C 
ENDBRANCH  23  26
ENDBRANCH   2  22
TORSDOF 4
ENDMDL
MODEL 10
REMARK VINA RESULT:     -10.0      3.737      9.054
REMARK  4 active torsions:
REMARK  status: ('A' for Active; 'I' for Inactive)
REMARK    1  A    between atoms: N_4  and  C_5 
REMARK    2  A    between atoms: C_15  and  N_16 
REMARK       I    between atoms: N_16  and  C_17 
REMARK    3  A    between atoms: C_17  and  C_18 
REMARK       I    between atoms: C_18  and  N_19 
REMARK    4  A    between atoms: N_19  and  C_20 
ROOT
HETATM    1  N   UNL     1       6.092  26.576  55.382  1.00  0.00    -0.303 N 
HETATM    2  C   UNL     1       6.914  27.671  55.574  1.00  0.00     0.315 C 
HETATM    3  O   UNL     1       7.947  27.948  54.977  1.00  0.00    -0.262 OA
HETATM    4  H   UNL     1       5.131  26.679  55.699  1.00  0.00     0.171 HD
ENDROOT
BRANCH   1   5
HETATM    5  C   UNL     1       6.441  25.566  54.505  1.00  0.00     0.152 C 
HETATM    6  N   UNL     1       6.012  25.429  53.186  1.00  0.00    -0.045 N 
HETATM    7  N   UNL     1       6.352  24.193  52.685  1.00  0.00    -0.156 NA
HETATM    8  C   UNL     1       7.194  23.690  53.595  1.00  0.00     0.055 C 
HETATM    9  C   UNL     1       7.845  22.377  53.370  1.00  0.00     0.072 C 
HETATM   10  C   UNL     1       7.321  24.530  54.723  1.00  0.00     0.079 C 
BRANCH   6  11
HETATM   11  C   UNL     1       5.493  26.395  52.292  1.00  0.00     0.732 A 
HETATM   12  N   UNL     1       5.535  27.679  52.493  1.00  0.00    -0.067 NA
HETATM   13  C   UNL     1       5.013  28.427  51.477  1.00  0.00     0.065 A 
HETATM   14  C   UNL     1       4.518  27.958  50.331  1.00  0.00     0.036 A 
HETATM   15  C   UNL     1       4.958  29.917  51.520  1.00  0.00     0.061 C 
HETATM   16  C   UNL     1       4.053  29.018  49.410  1.00  0.00     0.047 C 
HETATM   17  C   UNL     1       4.505  26.515  50.102  1.00  0.00     0.268 A 
HETATM   18  C   UNL     1       4.048  30.247  50.328  1.00  0.00     0.011 C 
HETATM   19  O   UNL     1       4.099  26.016  49.061  1.00  0.00    -0.267 OA
HETATM   20  N   UNL     1       5.000  25.796  51.152  1.00  0.00    -0.152 N 
HETATM   21  H   UNL     1       5.064  24.786  51.071  1.00  0.00     0.188 HD
ENDBRANCH   6  11
ENDBRANCH   1   5
BRANCH   2  22
HETATM   22  C   UNL     1       6.362  28.660  56.621  1.00  0.00     0.310 C 
HETATM   23  N   UNL     1       6.979  29.890  56.577  1.00  0.00    -0.348 N 
HETATM   24  H   UNL     1       7.763  29.922  55.926  1.00  0.00     0.163 HD
HETATM   25  O   UNL     1       5.471  28.305  57.378  1.00  0.00    -0.262 OA
BRANCH  23  26
HETATM   26  C   UNL     1       6.916  30.892  57.641  1.00  0.00     0.084 C 
HETATM   27  C   UNL     1       5.438  31.337  57.788  1.00  0.00     0.025 C 
HETATM   28  C   UNL     1       5.252  32.640  58.578  1.00  0.00     0.002 C 
HETATM   29  C   UNL     1       4.565  32.423  59.932  1.00  0.00     0.000 C 
HETATM   30  C   UNL     1       4.774  33.594  60.906  1.00  0.00     0.000 C 
HETATM   31  C   UNL     1       5.789  33.270  62.013  1.00  0.00     0.000 C 
HETATM   32  C   UNL     1       7.217  33.093  61.493  1.00  0.00     0.000 C 
HETATM   33  C   UNL     1       8.023  32.108  62.338  1.00  0.00     0.000 C 
HETATM   34  C   UNL     1       9.393  31.774  61.735  1.00  0.00     0.000 C 
HETATM   35  C   UNL     1       9.394  30.637  60.698  1.00  0.00     0.000 C 
HETATM   36  C   UNL     1       8.876  31.012  59.302  1.00  0.00     0.002 C 
HETATM   37  C   UNL     1       7.511  30.376  58.975  1.00  0.00     0.025 C 
ENDBRANCH  23  26
ENDBRANCH   2  22
TORSDOF 4
ENDMDL
