MODEL 1
REMARK VINA RESULT:      -9.8      0.000      0.000
REMARK  6 active torsions:
REMARK  status: ('A' for Active; 'I' for Inactive)
REMARK    1  A    between atoms: C_2  and  C_3 
REMARK    2  A    between atoms: C_3  and  N_4 
REMARK       I    between atoms: N_4  and  C_5 
REMARK    3  A    between atoms: C_5  and  C_6 
REMARK    4  A    between atoms: C_8  and  N_9 
REMARK       I    between atoms: N_9  and  C_10 
REMARK    5  A    between atoms: C_10  and  C_11 
REMARK    6  A    between atoms: C_15  and  C_16 
ROOT
HETATM    1  N   UNL     1       7.894  28.756  57.022  1.00  0.00    -0.322 N 
HETATM    2  C   UNL     1       9.047  29.458  57.319  1.00  0.00     0.274 C 
HETATM    3  O   UNL     1      10.131  29.293  56.770  1.00  0.00    -0.266 OA
HETATM    4  H   UNL     1       7.028  29.131  57.383  1.00  0.00     0.169 HD
ENDROOT
BRANCH   1   5
HETATM    5  C   UNL     1       7.783  27.615  56.199  1.00  0.00     0.036 A 
HETATM    6  C   UNL     1       7.999  26.312  56.660  1.00  0.00     0.046 A 
HETATM    7  C   UNL     1       7.842  25.218  55.798  1.00  0.00     0.034 A 
HETATM    8  C   UNL     1       7.448  25.430  54.472  1.00  0.00     0.017 A 
HETATM    9  C   UNL     1       7.224  26.726  54.009  1.00  0.00     0.003 A 
HETATM   10  C   UNL     1       7.386  27.812  54.872  1.00  0.00     0.029 A 
BRANCH   7  11
HETATM   11  C   UNL     1       8.020  23.814  56.267  1.00  0.00     0.251 C 
HETATM   12  N   UNL     1       7.630  22.815  55.398  1.00  0.00    -0.357 N 
HETATM   13  H   UNL     1       7.107  23.049  54.564  1.00  0.00     0.162 HD
HETATM   14  O   UNL     1       8.478  23.597  57.383  1.00  0.00    -0.268 OA
BRANCH  12  15
HETATM   15  C   UNL     1       7.762  21.414  55.740  1.00  0.00     0.122 C 
BRANCH  15  16
HETATM   16  C   UNL     1       7.986  20.523  54.520  1.00  0.00     0.015 C 
HETATM   17  C   UNL     1       8.000  21.307  53.216  1.00  0.00     0.006 C 
ENDBRANCH  15  16
ENDBRANCH  12  15
ENDBRANCH   7  11
ENDBRANCH   1   5
BRANCH   2  18
HETATM   18  C   UNL     1       8.886  30.462  58.340  1.00  0.00     0.120 A 
HETATM   19  N   UNL     1       9.726  31.537  58.422  1.00  0.00    -0.272 N 
HETATM   20  H   UNL     1      10.501  31.752  57.800  1.00  0.00     0.189 HD
HETATM   21  N   UNL     1       9.478  32.354  59.453  1.00  0.00    -0.174 NA
HETATM   22  C   UNL     1       8.446  31.788  60.099  1.00  0.00     0.089 A 
HETATM   23  C   UNL     1       8.030  30.608  59.415  1.00  0.00     0.071 A 
BRANCH  22  24
HETATM   24  C   UNL     1       7.915  32.351  61.346  1.00  0.00    -0.006 A 
HETATM   25  C   UNL     1       6.784  33.180  61.324  1.00  0.00     0.014 A 
HETATM   26  C   UNL     1       6.288  33.756  62.496  1.00  0.00     0.007 A 
HETATM   27  C   UNL     1       6.913  33.514  63.722  1.00  0.00    -0.062 A 
HETATM   28  C   UNL     1       6.396  34.130  64.988  1.00  0.00     0.048 C 
HETATM   29  C   UNL     1       8.032  32.675  63.757  1.00  0.00     0.007 A 
HETATM   30  C   UNL     1       8.529  32.100  62.582  1.00  0.00     0.014 A 
ENDBRANCH  22  24
ENDBRANCH   2  18
TORSDOF 6
ENDMDL
MODEL 2
REMARK VINA RESULT:      -9.8      2.126     10.460
REMARK  6 active torsions:
REMARK  status: ('A' for Active; 'I' for Inactive)
REMARK    1  A    between atoms: C_2  and  C_3 
REMARK    2  A    between atoms: C_3  and  N_4 
REMARK       I    between atoms: N_4  and  C_5 
REMARK    3  A    between atoms: C_5  and  C_6 
REMARK    4  A    between atoms: C_8  and  N_9 
REMARK       I    between atoms: N_9  and  C_10 
REMARK    5  A    between atoms: C_10  and  C_11 
REMARK    6  A    between atoms: C_15  and  C_16 
ROOT
HETATM    1  N   UNL     1       8.208  28.912  57.449  1.00  0.00    -0.322 N 
HETATM    2  C   UNL     1       6.900  28.568  57.162  1.00  0.00     0.274 C 
HETATM    3  O   UNL     1       5.913  29.208  57.507  1.00  0.00    -0.266 OA
HETATM    4  H   UNL     1       8.929  28.432  56.929  1.00  0.00     0.169 HD
ENDROOT
BRANCH   1   5
HETATM    5  C   UNL     1       8.646  29.921  58.333  1.00  0.00     0.036 A 
HETATM    6  C   UNL     1       8.131  30.089  59.622  1.00  0.00     0.046 A 
HETATM    7  C   UNL     1       8.632  31.093  60.463  1.00  0.00     0.034 A 
HETATM    8  C   UNL     1       9.667  31.921  60.014  1.00  0.00     0.017 A 
HETATM    9  C   UNL     1      10.188  31.754  58.733  1.00  0.00     0.003 A 
HETATM   10  C   UNL     1       9.683  30.755  57.899  1.00  0.00     0.029 A 
BRANCH   7  11
HETATM   11  C   UNL     1       8.138  31.270  61.859  1.00  0.00     0.251 C 
HETATM   12  N   UNL     1       7.264  32.315  62.079  1.00  0.00    -0.357 N 
HETATM   13  H   UNL     1       7.109  33.004  61.354  1.00  0.00     0.162 HD
HETATM   14  O   UNL     1       8.524  30.516  62.744  1.00  0.00    -0.268 OA
BRANCH  12  15
HETATM   15  C   UNL     1       6.711  32.581  63.391  1.00  0.00     0.122 C 
BRANCH  15  16
HETATM   16  C   UNL     1       7.685  33.318  64.309  1.00  0.00     0.015 C 
HETATM   17  C   UNL     1       7.028  33.803  65.593  1.00  0.00     0.006 C 
ENDBRANCH  15  16
ENDBRANCH  12  15
ENDBRANCH   7  11
ENDBRANCH   1   5
BRANCH   2  18
HETATM   18  C   UNL     1       6.761  27.372  56.371  1.00  0.00     0.120 A 
HETATM   19  N   UNL     1       5.542  26.965  55.902  1.00  0.00    -0.272 N 
HETATM   20  H   UNL     1       4.653  27.439  56.031  1.00  0.00     0.189 HD
HETATM   21  N   UNL     1       5.569  25.809  55.228  1.00  0.00    -0.174 NA
HETATM   22  C   UNL     1       6.852  25.417  55.269  1.00  0.00     0.089 A 
HETATM   23  C   UNL     1       7.637  26.386  55.959  1.00  0.00     0.071 A 
BRANCH  22  24
HETATM   24  C   UNL     1       7.286  24.137  54.694  1.00  0.00    -0.006 A 
HETATM   25  C   UNL     1       7.592  24.043  53.328  1.00  0.00     0.014 A 
HETATM   26  C   UNL     1       7.969  22.824  52.756  1.00  0.00     0.007 A 
HETATM   27  C   UNL     1       8.050  21.670  53.540  1.00  0.00    -0.062 A 
HETATM   28  C   UNL     1       8.446  20.355  52.938  1.00  0.00     0.048 C 
HETATM   29  C   UNL     1       7.762  21.758  54.906  1.00  0.00     0.007 A 
HETATM   30  C   UNL     1       7.383  22.979  55.477  1.00  0.00     0.014 A 
ENDBRANCH  22  24
ENDBRANCH   2  18
TORSDOF 6
ENDMDL
MODEL 3
REMARK VINA RESULT:      -9.1      3.203     10.186
REMARK  6 active torsions:
REMARK  status: ('A' for Active; 'I' for Inactive)
REMARK    1  A    between atoms: C_2  and  C_3 
REMARK    2  A    between atoms: C_3  and  N_4 
REMARK       I    between atoms: N_4  and  C_5 
REMARK    3  A    between atoms: C_5  and  C_6 
REMARK    4  A    between atoms: C_8  and  N_9 
REMARK       I    between atoms: N_9  and  C_10 
REMARK    5  A    between atoms: C_10  and  C_11 
REMARK    6  A    between atoms: C_15  and  C_16 
ROOT
HETATM    1  N   UNL     1       7.831  30.861  60.808  1.00  0.00    -0.322 N 
HETATM    2  C   UNL     1       7.839  31.135  59.453  1.00  0.00     0.274 C 
HETATM    3  O   UNL     1       7.621  32.234  58.956  1.00  0.00    -0.266 OA
HETATM    4  H   UNL     1       8.236  29.982  61.097  1.00  0.00     0.169 HD
ENDROOT
BRANCH   1   5
HETATM    5  C   UNL     1       7.390  31.713  61.843  1.00  0.00     0.036 A 
HETATM    6  C   UNL     1       6.071  32.164  61.958  1.00  0.00     0.046 A 
HETATM    7  C   UNL     1       5.691  32.984  63.029  1.00  0.00     0.034 A 
HETATM    8  C   UNL     1       6.634  33.340  64.000  1.00  0.00     0.017 A 
HETATM    9  C   UNL     1       7.948  32.888  63.894  1.00  0.00     0.003 A 
HETATM   10  C   UNL     1       8.322  32.074  62.823  1.00  0.00     0.029 A 
BRANCH   7  11
HETATM   11  C   UNL     1       4.284  33.445  63.207  1.00  0.00     0.251 C 
HETATM   12  N   UNL     1       3.614  33.847  62.069  1.00  0.00    -0.357 N 
HETATM   13  H   UNL     1       4.122  33.965  61.201  1.00  0.00     0.162 HD
HETATM   14  O   UNL     1       3.786  33.468  64.326  1.00  0.00    -0.268 OA
BRANCH  12  15
HETATM   15  C   UNL     1       2.242  34.306  62.115  1.00  0.00     0.122 C 
BRANCH  15  16
HETATM   16  C   UNL     1       1.781  34.938  60.803  1.00  0.00     0.015 C 
HETATM   17  C   UNL     1       2.717  34.629  59.643  1.00  0.00     0.006 C 
ENDBRANCH  15  16
ENDBRANCH  12  15
ENDBRANCH   7  11
ENDBRANCH   1   5
BRANCH   2  18
HETATM   18  C   UNL     1       8.163  30.004  58.621  1.00  0.00     0.120 A 
HETATM   19  N   UNL     1       9.353  29.928  57.952  1.00  0.00    -0.272 N 
HETATM   20  H   UNL     1      10.110  30.606  57.979  1.00  0.00     0.189 HD
HETATM   21  N   UNL     1       9.485  28.841  57.181  1.00  0.00    -0.174 NA
HETATM   22  C   UNL     1       8.326  28.178  57.322  1.00  0.00     0.089 A 
HETATM   23  C   UNL     1       7.478  28.866  58.239  1.00  0.00     0.071 A 
BRANCH  22  24
HETATM   24  C   UNL     1       8.044  26.950  56.569  1.00  0.00    -0.006 A 
HETATM   25  C   UNL     1       7.534  27.022  55.264  1.00  0.00     0.014 A 
HETATM   26  C   UNL     1       7.223  25.863  54.546  1.00  0.00     0.007 A 
HETATM   27  C   UNL     1       7.419  24.603  55.118  1.00  0.00    -0.062 A 
HETATM   28  C   UNL     1       7.083  23.352  54.363  1.00  0.00     0.048 C 
HETATM   29  C   UNL     1       7.942  24.522  56.412  1.00  0.00     0.007 A 
HETATM   30  C   UNL     1       8.252  25.683  57.131  1.00  0.00     0.014 A 
ENDBRANCH  22  24
ENDBRANCH   2  18
TORSDOF 6
ENDMDL
MODEL 4
REMARK VINA RESULT:      -8.9      3.190     10.385
REMARK  6 active torsions:
REMARK  status: ('A' for Active; 'I' for Inactive)
REMARK    1  A    between atoms: C_2  and  C_3 
REMARK    2  A    between atoms: C_3  and  N_4 
REMARK       I    between atoms: N_4  and  C_5 
REMARK    3  A    between atoms: C_5  and  C_6 
REMARK    4  A    between atoms: C_8  and  N_9 
REMARK       I    between atoms: N_9  and  C_10 
REMARK    5  A    between atoms: C_10  and  C_11 
REMARK    6  A    between atoms: C_15  and  C_16 
ROOT
HETATM    1  N   UNL     1       6.037  30.361  56.067  1.00  0.00    -0.322 N 
HETATM    2  C   UNL     1       5.285  29.266  55.685  1.00  0.00     0.274 C 
HETATM    3  O   UNL     1       4.064  29.188  55.765  1.00  0.00    -0.266 OA
HETATM    4  H   UNL     1       6.996  30.387  55.751  1.00  0.00     0.169 HD
ENDROOT
BRANCH   1   5
HETATM    5  C   UNL     1       5.587  31.491  56.784  1.00  0.00     0.036 A 
HETATM    6  C   UNL     1       5.715  31.622  58.170  1.00  0.00     0.046 A 
HETATM    7  C   UNL     1       5.275  32.785  58.818  1.00  0.00     0.034 A 
HETATM    8  C   UNL     1       4.721  33.829  58.069  1.00  0.00     0.017 A 
HETATM    9  C   UNL     1       4.596  33.706  56.686  1.00  0.00     0.003 A 
HETATM   10  C   UNL     1       5.033  32.544  56.047  1.00  0.00     0.029 A 
BRANCH   7  11
HETATM   11  C   UNL     1       5.438  32.977  60.288  1.00  0.00     0.251 C 
HETATM   12  N   UNL     1       6.019  31.940  60.988  1.00  0.00    -0.357 N 
HETATM   13  H   UNL     1       6.170  31.048  60.534  1.00  0.00     0.162 HD
HETATM   14  O   UNL     1       5.047  34.012  60.815  1.00  0.00    -0.268 OA
BRANCH  12  15
HETATM   15  C   UNL     1       6.236  32.014  62.418  1.00  0.00     0.122 C 
BRANCH  15  16
HETATM   16  C   UNL     1       7.653  32.456  62.782  1.00  0.00     0.015 C 
HETATM   17  C   UNL     1       7.736  33.070  64.172  1.00  0.00     0.006 C 
ENDBRANCH  15  16
ENDBRANCH  12  15
ENDBRANCH   7  11
ENDBRANCH   1   5
BRANCH   2  18
HETATM   18  C   UNL     1       6.056  28.179  55.135  1.00  0.00     0.120 A 
HETATM   19  N   UNL     1       7.025  28.397  54.196  1.00  0.00    -0.272 N 
HETATM   20  H   UNL     1       7.313  29.294  53.815  1.00  0.00     0.189 HD
HETATM   21  N   UNL     1       7.617  27.283  53.746  1.00  0.00    -0.174 NA
HETATM   22  C   UNL     1       7.001  26.281  54.393  1.00  0.00     0.089 A 
HETATM   23  C   UNL     1       6.029  26.807  55.294  1.00  0.00     0.071 A 
BRANCH  22  24
HETATM   24  C   UNL     1       7.320  24.875  54.118  1.00  0.00    -0.006 A 
HETATM   25  C   UNL     1       7.657  24.467  52.819  1.00  0.00     0.014 A 
HETATM   26  C   UNL     1       7.925  23.125  52.531  1.00  0.00     0.007 A 
HETATM   27  C   UNL     1       7.864  22.160  53.540  1.00  0.00    -0.062 A 
HETATM   28  C   UNL     1       8.143  20.717  53.244  1.00  0.00     0.048 C 
HETATM   29  C   UNL     1       7.545  22.560  54.841  1.00  0.00     0.007 A 
HETATM   30  C   UNL     1       7.275  23.904  55.128  1.00  0.00     0.014 A 
ENDBRANCH  22  24
ENDBRANCH   2  18
TORSDOF 6
ENDMDL
MODEL 5
REMARK VINA RESULT:      -8.8      2.915     10.723
REMARK  6 active torsions:
REMARK  status: ('A' for Active; 'I' for Inactive)
REMARK    1  A    between atoms: C_2  and  C_3 
REMARK    2  A    between atoms: C_3  and  N_4 
REMARK       I    between atoms: N_4  and  C_5 
REMARK    3  A    between atoms: C_5  and  C_6 
REMARK    4  A    between atoms: C_8  and  N_9 
REMARK       I    between atoms: N_9  and  C_10 
REMARK    5  A    between atoms: C_10  and  C_11 
REMARK    6  A    between atoms: C_15  and  C_16 
ROOT
HETATM    1  N   UNL     1       7.576  30.658  59.903  1.00  0.00    -0.322 N 
HETATM    2  C   UNL     1       7.132  31.038  58.650  1.00  0.00     0.274 C 
HETATM    3  O   UNL     1       6.847  32.185  58.323  1.00  0.00    -0.266 OA
HETATM    4  H   UNL     1       7.981  29.736  59.981  1.00  0.00     0.169 HD
ENDROOT
BRANCH   1   5
HETATM    5  C   UNL     1       7.600  31.450  61.071  1.00  0.00     0.036 A 
HETATM    6  C   UNL     1       6.446  31.946  61.686  1.00  0.00     0.046 A 
HETATM    7  C   UNL     1       6.537  32.701  62.864  1.00  0.00     0.034 A 
HETATM    8  C   UNL     1       7.790  32.944  63.437  1.00  0.00     0.017 A 
HETATM    9  C   UNL     1       8.943  32.448  62.831  1.00  0.00     0.003 A 
HETATM   10  C   UNL     1       8.847  31.699  61.657  1.00  0.00     0.029 A 
BRANCH   7  11
HETATM   11  C   UNL     1       5.325  33.206  63.571  1.00  0.00     0.251 C 
HETATM   12  N   UNL     1       5.030  34.545  63.417  1.00  0.00    -0.357 N 
HETATM   13  H   UNL     1       5.702  35.161  62.977  1.00  0.00     0.162 HD
HETATM   14  O   UNL     1       4.658  32.443  64.259  1.00  0.00    -0.268 OA
BRANCH  12  15
HETATM   15  C   UNL     1       3.875  35.148  64.048  1.00  0.00     0.122 C 
BRANCH  15  16
HETATM   16  C   UNL     1       4.230  35.947  65.301  1.00  0.00     0.015 C 
HETATM   17  C   UNL     1       3.381  35.560  66.503  1.00  0.00     0.006 C 
ENDBRANCH  15  16
ENDBRANCH  12  15
ENDBRANCH   7  11
ENDBRANCH   1   5
BRANCH   2  18
HETATM   18  C   UNL     1       7.047  29.960  57.698  1.00  0.00     0.120 A 
HETATM   19  N   UNL     1       6.395  30.111  56.506  1.00  0.00    -0.272 N 
HETATM   20  H   UNL     1       5.941  30.954  56.164  1.00  0.00     0.189 HD
HETATM   21  N   UNL     1       6.359  29.005  55.753  1.00  0.00    -0.174 NA
HETATM   22  C   UNL     1       6.991  28.072  56.482  1.00  0.00     0.089 A 
HETATM   23  C   UNL     1       7.460  28.641  57.702  1.00  0.00     0.071 A 
BRANCH  22  24
HETATM   24  C   UNL     1       7.100  26.681  56.026  1.00  0.00    -0.006 A 
HETATM   25  C   UNL     1       7.019  25.626  56.947  1.00  0.00     0.014 A 
HETATM   26  C   UNL     1       7.160  24.297  56.537  1.00  0.00     0.007 A 
HETATM   27  C   UNL     1       7.384  23.993  55.192  1.00  0.00    -0.062 A 
HETATM   28  C   UNL     1       7.544  22.573  54.738  1.00  0.00     0.048 C 
HETATM   29  C   UNL     1       7.450  25.037  54.263  1.00  0.00     0.007 A 
HETATM   30  C   UNL     1       7.311  26.368  54.676  1.00  0.00     0.014 A 
ENDBRANCH  22  24
ENDBRANCH   2  18
TORSDOF 6
ENDMDL
MODEL 6
REMARK VINA RESULT:      -8.7      2.361     10.784
REMARK  6 active torsions:
REMARK  status: ('A' for Active; 'I' for Inactive)
REMARK    1  A    between atoms: C_2  and  C_3 
REMARK    2  A    between atoms: C_3  and  N_4 
REMARK       I    between atoms: N_4  and  C_5 
REMARK    3  A    between atoms: C_5  and  C_6 
REMARK    4  A    between atoms: C_8  and  N_9 
REMARK       I    between atoms: N_9  and  C_10 
REMARK    5  A    between atoms: C_10  and  C_11 
REMARK    6  A    between atoms: C_15  and  C_16 
ROOT
HETATM    1  N   UNL     1       7.886  29.565  57.572  1.00  0.00    -0.322 N 
HETATM    2  C   UNL     1       6.751  28.855  57.228  1.00  0.00     0.274 C 
HETATM    3  O   UNL     1       5.628  29.065  57.674  1.00  0.00    -0.266 OA
HETATM    4  H   UNL     1       8.695  29.442  56.980  1.00  0.00     0.169 HD
ENDROOT
BRANCH   1   5
HETATM    5  C   UNL     1       8.014  30.508  58.614  1.00  0.00     0.036 A 
HETATM    6  C   UNL     1       6.964  31.327  59.042  1.00  0.00     0.046 A 
HETATM    7  C   UNL     1       7.149  32.222  60.106  1.00  0.00     0.034 A 
HETATM    8  C   UNL     1       8.387  32.283  60.754  1.00  0.00     0.017 A 
HETATM    9  C   UNL     1       9.435  31.464  60.336  1.00  0.00     0.003 A 
HETATM   10  C   UNL     1       9.246  30.578  59.274  1.00  0.00     0.029 A 
BRANCH   7  11
HETATM   11  C   UNL     1       6.039  33.077  60.617  1.00  0.00     0.251 C 
HETATM   12  N   UNL     1       6.204  33.621  61.874  1.00  0.00    -0.357 N 
HETATM   13  H   UNL     1       6.970  33.313  62.460  1.00  0.00     0.162 HD
HETATM   14  O   UNL     1       5.038  33.250  59.933  1.00  0.00    -0.268 OA
BRANCH  12  15
HETATM   15  C   UNL     1       5.199  34.474  62.473  1.00  0.00     0.122 C 
BRANCH  15  16
HETATM   16  C   UNL     1       5.531  35.960  62.353  1.00  0.00     0.015 C 
HETATM   17  C   UNL     1       5.535  36.670  63.699  1.00  0.00     0.006 C 
ENDBRANCH  15  16
ENDBRANCH  12  15
ENDBRANCH   7  11
ENDBRANCH   1   5
BRANCH   2  18
HETATM   18  C   UNL     1       6.970  27.823  56.247  1.00  0.00     0.120 A 
HETATM   19  N   UNL     1       6.830  28.069  54.910  1.00  0.00    -0.272 N 
HETATM   20  H   UNL     1       6.591  28.957  54.477  1.00  0.00     0.189 HD
HETATM   21  N   UNL     1       7.017  26.997  54.129  1.00  0.00    -0.174 NA
HETATM   22  C   UNL     1       7.268  25.991  54.982  1.00  0.00     0.089 A 
HETATM   23  C   UNL     1       7.271  26.476  56.322  1.00  0.00     0.071 A 
BRANCH  22  24
HETATM   24  C   UNL     1       7.459  24.613  54.513  1.00  0.00    -0.006 A 
HETATM   25  C   UNL     1       7.353  23.539  55.409  1.00  0.00     0.014 A 
HETATM   26  C   UNL     1       7.571  22.224  54.988  1.00  0.00     0.007 A 
HETATM   27  C   UNL     1       7.898  21.953  53.657  1.00  0.00    -0.062 A 
HETATM   28  C   UNL     1       8.141  20.548  53.193  1.00  0.00     0.048 C 
HETATM   29  C   UNL     1       7.990  23.016  52.753  1.00  0.00     0.007 A 
HETATM   30  C   UNL     1       7.774  24.333  53.176  1.00  0.00     0.014 A 
ENDBRANCH  22  24
ENDBRANCH   2  18
TORSDOF 6
ENDMDL
MODEL 7
REMARK VINA RESULT:      -8.7      1.820      2.259
REMARK  6 active torsions:
REMARK  status: ('A' for Active; 'I' for Inactive)
REMARK    1  A    between atoms: C_2  and  C_3 
REMARK    2  A    between atoms: C_3  and  N_4 
REMARK       I    between atoms: N_4  and  C_5 
REMARK    3  A    between atoms: C_5  and  C_6 
REMARK    4  A    between atoms: C_8  and  N_9 
REMARK       I    between atoms: N_9  and  C_10 
REMARK    5  A    between atoms: C_10  and  C_11 
REMARK    6  A    between atoms: C_15  and  C_16 
ROOT
HETATM    1  N   UNL     1       6.657  28.579  55.583  1.00  0.00    -0.322 N 
HETATM    2  C   UNL     1       7.681  29.312  56.152  1.00  0.00     0.274 C 
HETATM    3  O   UNL     1       8.834  29.352  55.734  1.00  0.00    -0.266 OA
HETATM    4  H   UNL     1       5.719  28.799  55.885  1.00  0.00     0.169 HD
ENDROOT
BRANCH   1   5
HETATM    5  C   UNL     1       6.772  27.608  54.565  1.00  0.00     0.036 A 
HETATM    6  C   UNL     1       7.380  26.364  54.755  1.00  0.00     0.046 A 
HETATM    7  C   UNL     1       7.434  25.431  53.710  1.00  0.00     0.034 A 
HETATM    8  C   UNL     1       6.857  25.742  52.473  1.00  0.00     0.017 A 
HETATM    9  C   UNL     1       6.244  26.978  52.280  1.00  0.00     0.003 A 
HETATM   10  C   UNL     1       6.197  27.904  53.323  1.00  0.00     0.029 A 
BRANCH   7  11
HETATM   11  C   UNL     1       8.034  24.078  53.892  1.00  0.00     0.251 C 
HETATM   12  N   UNL     1       8.445  23.748  55.167  1.00  0.00    -0.357 N 
HETATM   13  H   UNL     1       8.474  24.459  55.886  1.00  0.00     0.162 HD
HETATM   14  O   UNL     1       8.155  23.330  52.929  1.00  0.00    -0.268 OA
BRANCH  12  15
HETATM   15  C   UNL     1       9.035  22.460  55.467  1.00  0.00     0.122 C 
BRANCH  15  16
HETATM   16  C   UNL     1       7.993  21.359  55.659  1.00  0.00     0.015 C 
HETATM   17  C   UNL     1       8.440  20.023  55.083  1.00  0.00     0.006 C 
ENDBRANCH  15  16
ENDBRANCH  12  15
ENDBRANCH   7  11
ENDBRANCH   1   5
BRANCH   2  18
HETATM   18  C   UNL     1       7.290  30.087  57.303  1.00  0.00     0.120 A 
HETATM   19  N   UNL     1       6.213  30.928  57.263  1.00  0.00    -0.272 N 
HETATM   20  H   UNL     1       5.589  31.080  56.476  1.00  0.00     0.189 HD
HETATM   21  N   UNL     1       6.008  31.615  58.394  1.00  0.00    -0.174 NA
HETATM   22  C   UNL     1       7.003  31.235  59.212  1.00  0.00     0.089 A 
HETATM   23  C   UNL     1       7.816  30.256  58.569  1.00  0.00     0.071 A 
BRANCH  22  24
HETATM   24  C   UNL     1       7.174  31.827  60.544  1.00  0.00    -0.006 A 
HETATM   25  C   UNL     1       8.225  31.410  61.374  1.00  0.00     0.014 A 
HETATM   26  C   UNL     1       8.380  31.933  62.661  1.00  0.00     0.007 A 
HETATM   27  C   UNL     1       7.486  32.892  63.146  1.00  0.00    -0.062 A 
HETATM   28  C   UNL     1       7.635  33.458  64.526  1.00  0.00     0.048 C 
HETATM   29  C   UNL     1       6.444  33.326  62.319  1.00  0.00     0.007 A 
HETATM   30  C   UNL     1       6.289  32.799  61.031  1.00  0.00     0.014 A 
ENDBRANCH  22  24
ENDBRANCH   2  18
TORSDOF 6
ENDMDL
MODEL 8
REMARK VINA RESULT:      -8.6      2.744     10.401
REMARK  6 active torsions:
REMARK  status: ('A' for Active; 'I' for Inactive)
REMARK    1  A    between atoms: C_2  and  C_3 
REMARK    2  A    between atoms: C_3  and  N_4 
REMARK       I    between atoms: N_4  and  C_5 
REMARK    3  A    between atoms: C_5  and  C_6 
REMARK    4  A    between atoms: C_8  and  N_9 
REMARK       I    between atoms: N_9  and  C_10 
REMARK    5  A    between atoms: C_10  and  C_11 
REMARK    6  A    between atoms: C_15  and  C_16 
ROOT
HETATM    1  N   UNL     1       6.125  29.323  57.518  1.00  0.00    -0.322 N 
HETATM    2  C   UNL     1       7.336  28.908  56.998  1.00  0.00     0.274 C 
HETATM    3  O   UNL     1       8.287  29.644  56.756  1.00  0.00    -0.266 OA
HETATM    4  H   UNL     1       5.512  28.602  57.872  1.00  0.00     0.169 HD
ENDROOT
BRANCH   1   5
HETATM    5  C   UNL     1       5.683  30.653  57.682  1.00  0.00     0.036 A 
HETATM    6  C   UNL     1       5.709  31.325  58.908  1.00  0.00     0.046 A 
HETATM    7  C   UNL     1       5.284  32.658  58.998  1.00  0.00     0.034 A 
HETATM    8  C   UNL     1       4.849  33.326  57.848  1.00  0.00     0.017 A 
HETATM    9  C   UNL     1       4.827  32.664  56.622  1.00  0.00     0.003 A 
HETATM   10  C   UNL     1       5.248  31.335  56.539  1.00  0.00     0.029 A 
BRANCH   7  11
HETATM   11  C   UNL     1       5.341  33.418  60.280  1.00  0.00     0.251 C 
HETATM   12  N   UNL     1       6.160  32.910  61.266  1.00  0.00    -0.357 N 
HETATM   13  H   UNL     1       6.563  31.987  61.160  1.00  0.00     0.162 HD
HETATM   14  O   UNL     1       4.666  34.431  60.419  1.00  0.00    -0.268 OA
BRANCH  12  15
HETATM   15  C   UNL     1       6.303  33.565  62.550  1.00  0.00     0.122 C 
BRANCH  15  16
HETATM   16  C   UNL     1       7.483  33.033  63.361  1.00  0.00     0.015 C 
HETATM   17  C   UNL     1       7.361  33.343  64.846  1.00  0.00     0.006 C 
ENDBRANCH  15  16
ENDBRANCH  12  15
ENDBRANCH   7  11
ENDBRANCH   1   5
BRANCH   2  18
HETATM   18  C   UNL     1       7.431  27.488  56.772  1.00  0.00     0.120 A 
HETATM   19  N   UNL     1       7.639  26.614  57.804  1.00  0.00    -0.272 N 
HETATM   20  H   UNL     1       7.725  26.847  58.789  1.00  0.00     0.189 HD
HETATM   21  N   UNL     1       7.755  25.334  57.428  1.00  0.00    -0.174 NA
HETATM   22  C   UNL     1       7.643  25.358  56.090  1.00  0.00     0.089 A 
HETATM   23  C   UNL     1       7.414  26.692  55.643  1.00  0.00     0.071 A 
BRANCH  22  24
HETATM   24  C   UNL     1       7.789  24.141  55.283  1.00  0.00    -0.006 A 
HETATM   25  C   UNL     1       7.959  24.229  53.893  1.00  0.00     0.014 A 
HETATM   26  C   UNL     1       8.061  23.080  53.104  1.00  0.00     0.007 A 
HETATM   27  C   UNL     1       7.999  21.813  53.690  1.00  0.00    -0.062 A 
HETATM   28  C   UNL     1       8.100  20.571  52.855  1.00  0.00     0.048 C 
HETATM   29  C   UNL     1       7.846  21.714  55.076  1.00  0.00     0.007 A 
HETATM   30  C   UNL     1       7.742  22.867  55.866  1.00  0.00     0.014 A 
ENDBRANCH  22  24
ENDBRANCH   2  18
TORSDOF 6
ENDMDL
MODEL 9
REMARK VINA RESULT:      -8.6      8.294     11.777
REMARK  6 active torsions:
REMARK  status: ('A' for Active; 'I' for Inactive)
REMARK    1  A    between atoms: C_2  and  C_3 
REMARK    2  A    between atoms: C_3  and  N_4 
REMARK       I    between atoms: N_4  and  C_5 
REMARK    3  A    between atoms: C_5  and  C_6 
REMARK    4  A    between atoms: C_8  and  N_9 
REMARK       I    between atoms: N_9  and  C_10 
REMARK    5  A    between atoms: C_10  and  C_11 
REMARK    6  A    between atoms: C_15  and  C_16 
ROOT
HETATM    1  N   UNL     1       5.010  26.492  49.731  1.00  0.00    -0.322 N 
HETATM    2  C   UNL     1       5.018  26.571  51.110  1.00  0.00     0.274 C 
HETATM    3  O   UNL     1       4.301  27.310  51.777  1.00  0.00    -0.266 OA
HETATM    4  H   UNL     1       5.482  25.700  49.318  1.00  0.00     0.169 HD
ENDROOT
BRANCH   1   5
HETATM    5  C   UNL     1       4.343  27.355  48.835  1.00  0.00     0.036 A 
HETATM    6  C   UNL     1       3.040  27.133  48.380  1.00  0.00     0.046 A 
HETATM    7  C   UNL     1       2.423  28.047  47.514  1.00  0.00     0.034 A 
HETATM    8  C   UNL     1       3.111  29.199  47.118  1.00  0.00     0.017 A 
HETATM    9  C   UNL     1       4.408  29.429  47.573  1.00  0.00     0.003 A 
HETATM   10  C   UNL     1       5.018  28.514  48.432  1.00  0.00     0.029 A 
BRANCH   7  11
HETATM   11  C   UNL     1       1.019  27.864  47.047  1.00  0.00     0.251 C 
HETATM   12  N   UNL     1       0.607  28.657  45.995  1.00  0.00    -0.357 N 
HETATM   13  H   UNL     1       1.191  29.422  45.684  1.00  0.00     0.162 HD
HETATM   14  O   UNL     1       0.291  27.050  47.604  1.00  0.00    -0.268 OA
BRANCH  12  15
HETATM   15  C   UNL     1      -0.731  28.563  45.450  1.00  0.00     0.122 C 
BRANCH  15  16
HETATM   16  C   UNL     1      -1.344  29.928  45.140  1.00  0.00     0.015 C 
HETATM   17  C   UNL     1      -0.489  31.082  45.643  1.00  0.00     0.006 C 
ENDBRANCH  15  16
ENDBRANCH  12  15
ENDBRANCH   7  11
ENDBRANCH   1   5
BRANCH   2  18
HETATM   18  C   UNL     1       5.942  25.670  51.752  1.00  0.00     0.120 A 
HETATM   19  N   UNL     1       7.218  25.507  51.288  1.00  0.00    -0.272 N 
HETATM   20  H   UNL     1       7.644  25.987  50.500  1.00  0.00     0.189 HD
HETATM   21  N   UNL     1       7.937  24.599  51.959  1.00  0.00    -0.174 NA
HETATM   22  C   UNL     1       7.100  24.120  52.893  1.00  0.00     0.089 A 
HETATM   23  C   UNL     1       5.842  24.787  52.810  1.00  0.00     0.071 A 
BRANCH  22  24
HETATM   24  C   UNL     1       7.496  23.036  53.800  1.00  0.00    -0.006 A 
HETATM   25  C   UNL     1       7.768  21.755  53.295  1.00  0.00     0.014 A 
HETATM   26  C   UNL     1       8.108  20.701  54.148  1.00  0.00     0.007 A 
HETATM   27  C   UNL     1       8.188  20.905  55.528  1.00  0.00    -0.062 A 
HETATM   28  C   UNL     1       8.545  19.783  56.455  1.00  0.00     0.048 C 
HETATM   29  C   UNL     1       7.935  22.183  56.039  1.00  0.00     0.007 A 
HETATM   30  C   UNL     1       7.591  23.237  55.184  1.00  0.00     0.014 A 
ENDBRANCH  22  24
ENDBRANCH   2  18
TORSDOF 6
ENDMDL
MODEL 10
REMARK VINA RESULT:      -8.5      8.305     11.674
REMARK  6 active torsions:
REMARK  status: ('A' for Active; 'I' for Inactive)
REMARK    1  A    between atoms: C_2  and  C_3 
REMARK    2  A    between atoms: C_3  and  N_4 
REMARK       I    between atoms: N_4  and  C_5 
REMARK    3  A    between atoms: C_5  and  C_6 
REMARK    4  A    between atoms: C_8  and  N_9 
REMARK       I    between atoms: N_9  and  C_10 
REMARK    5  A    between atoms: C_10  and  C_11 
REMARK    6  A    between atoms: C_15  and  C_16 
ROOT
HETATM    1  N   UNL     1       4.286  26.380  49.647  1.00  0.00    -0.322 N 
HETATM    2  C   UNL     1       4.619  26.787  50.926  1.00  0.00     0.274 C 
HETATM    3  O   UNL     1       4.141  27.758  51.501  1.00  0.00    -0.266 OA
HETATM    4  H   UNL     1       4.580  25.453  49.374  1.00  0.00     0.169 HD
ENDROOT
BRANCH   1   5
HETATM    5  C   UNL     1       3.507  27.089  48.707  1.00  0.00     0.036 A 
HETATM    6  C   UNL     1       3.845  28.359  48.232  1.00  0.00     0.046 A 
HETATM    7  C   UNL     1       3.044  28.996  47.274  1.00  0.00     0.034 A 
HETATM    8  C   UNL     1       1.909  28.347  46.776  1.00  0.00     0.017 A 
HETATM    9  C   UNL     1       1.571  27.077  47.241  1.00  0.00     0.003 A 
HETATM   10  C   UNL     1       2.370  26.449  48.198  1.00  0.00     0.029 A 
BRANCH   7  11
HETATM   11  C   UNL     1       3.399  30.332  46.713  1.00  0.00     0.251 C 
HETATM   12  N   UNL     1       4.612  30.863  47.097  1.00  0.00    -0.357 N 
HETATM   13  H   UNL     1       5.139  30.427  47.843  1.00  0.00     0.162 HD
HETATM   14  O   UNL     1       2.618  30.905  45.962  1.00  0.00    -0.268 OA
BRANCH  12  15
HETATM   15  C   UNL     1       5.069  32.149  46.611  1.00  0.00     0.122 C 
BRANCH  15  16
HETATM   16  C   UNL     1       5.534  33.077  47.732  1.00  0.00     0.015 C 
HETATM   17  C   UNL     1       6.092  32.319  48.928  1.00  0.00     0.006 C 
ENDBRANCH  15  16
ENDBRANCH  12  15
ENDBRANCH   7  11
ENDBRANCH   1   5
BRANCH   2  18
HETATM   18  C   UNL     1       5.585  25.945  51.584  1.00  0.00     0.120 A 
HETATM   19  N   UNL     1       6.910  25.984  51.250  1.00  0.00    -0.272 N 
HETATM   20  H   UNL     1       7.345  26.588  50.558  1.00  0.00     0.189 HD
HETATM   21  N   UNL     1       7.673  25.107  51.915  1.00  0.00    -0.174 NA
HETATM   22  C   UNL     1       6.818  24.440  52.707  1.00  0.00     0.089 A 
HETATM   23  C   UNL     1       5.499  24.955  52.545  1.00  0.00     0.071 A 
BRANCH  22  24
HETATM   24  C   UNL     1       7.262  23.327  53.554  1.00  0.00    -0.006 A 
HETATM   25  C   UNL     1       7.752  22.147  52.974  1.00  0.00     0.014 A 
HETATM   26  C   UNL     1       8.142  21.062  53.765  1.00  0.00     0.007 A 
HETATM   27  C   UNL     1       8.054  21.135  55.157  1.00  0.00    -0.062 A 
HETATM   28  C   UNL     1       8.463  19.977  56.018  1.00  0.00     0.048 C 
HETATM   29  C   UNL     1       7.583  22.313  55.746  1.00  0.00     0.007 A 
HETATM   30  C   UNL     1       7.190  23.398  54.953  1.00  0.00     0.014 A 
ENDBRANCH  22  24
ENDBRANCH   2  18
TORSDOF 6
ENDMDL
