MODEL 1
REMARK VINA RESULT:      -8.4      0.000      0.000
REMARK  8 active torsions:
REMARK  status: ('A' for Active; 'I' for Inactive)
REMARK    1  A    between atoms: C_2  and  O_3 
REMARK    2  A    between atoms: O_3  and  C_4 
REMARK    3  A    between atoms: C_6  and  O_7 
REMARK    4  A    between atoms: O_7  and  C_8 
REMARK    5  A    between atoms: C_11  and  C_12 
REMARK       I    between atoms: C_12  and  N_13 
REMARK    6  A    between atoms: N_13  and  C_14 
REMARK    7  A    between atoms: C_14  and  N_15 
REMARK    8  A    between atoms: N_15  and  C_16 
ROOT
HETATM    1  C   UNL     1       5.002  25.842  52.401  1.00  0.00     0.237 C 
HETATM    2  N   UNL     1       3.966  26.497  53.043  1.00  0.00    -0.201 NA
HETATM    3  O   UNL     1       4.984  25.621  51.195  1.00  0.00    -0.274 OA
HETATM    4  H   UNL     1       3.133  26.364  52.478  1.00  0.00     0.139 HD
ENDROOT
BRANCH   2   5
HETATM    5  C   UNL     1       3.942  27.820  53.425  1.00  0.00     0.157 C 
HETATM    6  S   UNL     1       3.636  29.135  52.439  1.00  0.00    -0.047 SA
BRANCH   5   7
HETATM    7  N   UNL     1       4.098  28.058  54.769  1.00  0.00    -0.337 N 
HETATM    8  H   UNL     1       3.239  27.923  55.295  1.00  0.00     0.168 HD
BRANCH   7   9
HETATM    9  C   UNL     1       5.200  28.549  55.507  1.00  0.00     0.036 A 
HETATM   10  C   UNL     1       6.434  28.591  54.836  1.00  0.00     0.061 A 
HETATM   11  C   UNL     1       7.530  29.019  55.552  1.00  0.00     0.065 A 
HETATM   12  C   UNL     1       7.445  29.390  56.890  1.00  0.00     0.063 A 
HETATM   13  N   UNL     1       8.857  29.151  55.157  1.00  0.00    -0.306 N 
HETATM   14  N   UNL     1       8.717  29.747  57.321  1.00  0.00    -0.307 N 
HETATM   15  C   UNL     1       6.261  29.353  57.581  1.00  0.00     0.034 A 
HETATM   16  C   UNL     1       9.612  29.599  56.251  1.00  0.00     0.325 A 
HETATM   17  H   UNL     1       8.992  30.048  58.241  1.00  0.00     0.170 HD
HETATM   18  O   UNL     1      10.810  29.813  56.269  1.00  0.00    -0.247 OA
HETATM   19  C   UNL     1       5.129  28.919  56.873  1.00  0.00     0.032 A 
HETATM   20  H   UNL     1       9.252  28.953  54.252  1.00  0.00     0.170 HD
ENDBRANCH   7   9
ENDBRANCH   5   7
ENDBRANCH   2   5
BRANCH   1  21
HETATM   21  C   UNL     1       5.927  25.098  53.290  1.00  0.00     0.032 A 
HETATM   22  C   UNL     1       6.902  24.319  52.655  1.00  0.00     0.053 A 
HETATM   23  C   UNL     1       7.764  23.539  53.416  1.00  0.00     0.072 A 
HETATM   24  C   UNL     1       7.649  23.537  54.805  1.00  0.00     0.073 A 
HETATM   25  C   UNL     1       6.703  24.342  55.447  1.00  0.00     0.072 A 
HETATM   26  C   UNL     1       5.825  25.116  54.684  1.00  0.00     0.053 A 
BRANCH  23  27
HETATM   27  O   UNL     1       8.683  22.687  52.874  1.00  0.00    -0.351 OA
BRANCH  27  28
HETATM   28  C   UNL     1       8.915  21.494  53.631  1.00  0.00     0.171 C 
HETATM   29  C   UNL     1       8.337  20.295  52.900  1.00  0.00     0.034 C 
ENDBRANCH  27  28
ENDBRANCH  23  27
BRANCH  25  30
HETATM   30  O   UNL     1       6.742  24.275  56.812  1.00  0.00    -0.351 OA
BRANCH  30  31
HETATM   31  C   UNL     1       6.744  25.505  57.535  1.00  0.00     0.171 C 
HETATM   32  C   UNL     1       8.181  25.990  57.619  1.00  0.00     0.034 C 
ENDBRANCH  30  31
ENDBRANCH  25  30
ENDBRANCH   1  21
TORSDOF 8
ENDMDL
MODEL 2
REMARK VINA RESULT:      -8.4      0.387      3.009
REMARK  8 active torsions:
REMARK  status: ('A' for Active; 'I' for Inactive)
REMARK    1  A    between atoms: C_2  and  O_3 
REMARK    2  A    between atoms: O_3  and  C_4 
REMARK    3  A    between atoms: C_6  and  O_7 
REMARK    4  A    between atoms: O_7  and  C_8 
REMARK    5  A    between atoms: C_11  and  C_12 
REMARK       I    between atoms: C_12  and  N_13 
REMARK    6  A    between atoms: N_13  and  C_14 
REMARK    7  A    between atoms: C_14  and  N_15 
REMARK    8  A    between atoms: N_15  and  C_16 
ROOT
HETATM    1  C   UNL     1       4.900  25.296  52.571  1.00  0.00     0.237 C 
HETATM    2  N   UNL     1       4.049  26.156  53.242  1.00  0.00    -0.201 NA
HETATM    3  O   UNL     1       4.654  24.887  51.442  1.00  0.00    -0.274 OA
HETATM    4  H   UNL     1       3.122  26.025  52.850  1.00  0.00     0.139 HD
ENDROOT
BRANCH   2   5
HETATM    5  C   UNL     1       4.200  27.518  53.382  1.00  0.00     0.157 C 
HETATM    6  S   UNL     1       4.219  28.648  52.150  1.00  0.00    -0.047 SA
BRANCH   5   7
HETATM    7  N   UNL     1       4.246  27.987  54.672  1.00  0.00    -0.337 N 
HETATM    8  H   UNL     1       3.333  28.002  55.118  1.00  0.00     0.168 HD
BRANCH   7   9
HETATM    9  C   UNL     1       5.309  28.535  55.427  1.00  0.00     0.036 A 
HETATM   10  C   UNL     1       6.577  28.529  54.820  1.00  0.00     0.061 A 
HETATM   11  C   UNL     1       7.634  29.013  55.557  1.00  0.00     0.065 A 
HETATM   12  C   UNL     1       7.480  29.485  56.856  1.00  0.00     0.063 A 
HETATM   13  N   UNL     1       8.980  29.118  55.222  1.00  0.00    -0.306 N 
HETATM   14  N   UNL     1       8.728  29.877  57.324  1.00  0.00    -0.307 N 
HETATM   15  C   UNL     1       6.262  29.498  57.486  1.00  0.00     0.034 A 
HETATM   16  C   UNL     1       9.677  29.651  56.317  1.00  0.00     0.325 A 
HETATM   17  H   UNL     1       8.955  30.248  58.232  1.00  0.00     0.170 HD
HETATM   18  O   UNL     1      10.873  29.868  56.380  1.00  0.00    -0.247 OA
HETATM   19  C   UNL     1       5.168  29.008  56.755  1.00  0.00     0.032 A 
HETATM   20  H   UNL     1       9.422  28.852  54.357  1.00  0.00     0.170 HD
ENDBRANCH   7   9
ENDBRANCH   5   7
ENDBRANCH   2   5
BRANCH   1  21
HETATM   21  C   UNL     1       5.904  24.609  53.420  1.00  0.00     0.032 A 
HETATM   22  C   UNL     1       5.770  24.786  54.802  1.00  0.00     0.053 A 
HETATM   23  C   UNL     1       6.710  24.231  55.662  1.00  0.00     0.072 A 
HETATM   24  C   UNL     1       7.779  23.505  55.141  1.00  0.00     0.073 A 
HETATM   25  C   UNL     1       7.897  23.292  53.764  1.00  0.00     0.072 A 
HETATM   26  C   UNL     1       6.962  23.861  52.896  1.00  0.00     0.053 A 
BRANCH  23  27
HETATM   27  O   UNL     1       6.701  24.430  57.013  1.00  0.00    -0.351 OA
BRANCH  27  28
HETATM   28  C   UNL     1       6.934  25.782  57.422  1.00  0.00     0.171 C 
HETATM   29  C   UNL     1       8.426  26.060  57.468  1.00  0.00     0.034 C 
ENDBRANCH  27  28
ENDBRANCH  23  27
BRANCH  25  30
HETATM   30  O   UNL     1       8.966  22.518  53.405  1.00  0.00    -0.351 OA
BRANCH  30  31
HETATM   31  C   UNL     1       8.951  21.146  53.796  1.00  0.00     0.171 C 
HETATM   32  C   UNL     1       8.068  20.395  52.815  1.00  0.00     0.034 C 
ENDBRANCH  30  31
ENDBRANCH  25  30
ENDBRANCH   1  21
TORSDOF 8
ENDMDL
MODEL 3
REMARK VINA RESULT:      -8.1      3.404      6.429
REMARK  8 active torsions:
REMARK  status: ('A' for Active; 'I' for Inactive)
REMARK    1  A    between atoms: C_2  and  O_3 
REMARK    2  A    between atoms: O_3  and  C_4 
REMARK    3  A    between atoms: C_6  and  O_7 
REMARK    4  A    between atoms: O_7  and  C_8 
REMARK    5  A    between atoms: C_11  and  C_12 
REMARK       I    between atoms: C_12  and  N_13 
REMARK    6  A    between atoms: N_13  and  C_14 
REMARK    7  A    between atoms: C_14  and  N_15 
REMARK    8  A    between atoms: N_15  and  C_16 
ROOT
HETATM    1  C   UNL     1       4.888  25.307  52.719  1.00  0.00     0.237 C 
HETATM    2  N   UNL     1       4.158  26.461  52.939  1.00  0.00    -0.201 NA
HETATM    3  O   UNL     1       4.542  24.464  51.899  1.00  0.00    -0.274 OA
HETATM    4  H   UNL     1       3.202  26.268  52.658  1.00  0.00     0.139 HD
ENDROOT
BRANCH   2   5
HETATM    5  C   UNL     1       4.439  27.717  52.447  1.00  0.00     0.157 C 
HETATM    6  S   UNL     1       4.411  29.150  53.308  1.00  0.00    -0.047 SA
BRANCH   5   7
HETATM    7  N   UNL     1       4.869  27.768  51.144  1.00  0.00    -0.337 N 
HETATM    8  H   UNL     1       5.781  28.205  51.048  1.00  0.00     0.168 HD
BRANCH   7   9
HETATM    9  C   UNL     1       4.225  27.417  49.935  1.00  0.00     0.036 A 
HETATM   10  C   UNL     1       2.990  28.039  49.680  1.00  0.00     0.061 A 
HETATM   11  C   UNL     1       2.322  27.673  48.532  1.00  0.00     0.065 A 
HETATM   12  C   UNL     1       2.825  26.723  47.651  1.00  0.00     0.063 A 
HETATM   13  N   UNL     1       1.097  28.109  48.037  1.00  0.00    -0.306 N 
HETATM   14  N   UNL     1       1.911  26.568  46.615  1.00  0.00    -0.307 N 
HETATM   15  C   UNL     1       4.020  26.088  47.870  1.00  0.00     0.034 A 
HETATM   16  C   UNL     1       0.824  27.424  46.843  1.00  0.00     0.325 A 
HETATM   17  H   UNL     1       1.976  25.946  45.827  1.00  0.00     0.170 HD
HETATM   18  O   UNL     1      -0.166  27.546  46.146  1.00  0.00    -0.247 OA
HETATM   19  C   UNL     1       4.720  26.442  49.034  1.00  0.00     0.032 A 
HETATM   20  H   UNL     1       0.474  28.787  48.445  1.00  0.00     0.170 HD
ENDBRANCH   7   9
ENDBRANCH   5   7
ENDBRANCH   2   5
BRANCH   1  21
HETATM   21  C   UNL     1       5.872  24.970  53.775  1.00  0.00     0.032 A 
HETATM   22  C   UNL     1       6.792  23.960  53.465  1.00  0.00     0.053 A 
HETATM   23  C   UNL     1       7.704  23.539  54.426  1.00  0.00     0.072 A 
HETATM   24  C   UNL     1       7.694  24.125  55.691  1.00  0.00     0.073 A 
HETATM   25  C   UNL     1       6.804  25.160  55.994  1.00  0.00     0.072 A 
HETATM   26  C   UNL     1       5.877  25.575  55.036  1.00  0.00     0.053 A 
BRANCH  23  27
HETATM   27  O   UNL     1       8.573  22.504  54.233  1.00  0.00    -0.351 OA
BRANCH  27  28
HETATM   28  C   UNL     1       7.968  21.207  54.227  1.00  0.00     0.171 C 
HETATM   29  C   UNL     1       8.223  20.522  52.895  1.00  0.00     0.034 C 
ENDBRANCH  27  28
ENDBRANCH  23  27
BRANCH  25  30
HETATM   30  O   UNL     1       6.946  25.670  57.255  1.00  0.00    -0.351 OA
BRANCH  30  31
HETATM   31  C   UNL     1       6.988  27.090  57.393  1.00  0.00     0.171 C 
HETATM   32  C   UNL     1       8.419  27.536  57.145  1.00  0.00     0.034 C 
ENDBRANCH  30  31
ENDBRANCH  25  30
ENDBRANCH   1  21
TORSDOF 8
ENDMDL
MODEL 4
REMARK VINA RESULT:      -8.0      4.188      5.874
REMARK  8 active torsions:
REMARK  status: ('A' for Active; 'I' for Inactive)
REMARK    1  A    between atoms: C_2  and  O_3 
REMARK    2  A    between atoms: O_3  and  C_4 
REMARK    3  A    between atoms: C_6  and  O_7 
REMARK    4  A    between atoms: O_7  and  C_8 
REMARK    5  A    between atoms: C_11  and  C_12 
REMARK       I    between atoms: C_12  and  N_13 
REMARK    6  A    between atoms: N_13  and  C_14 
REMARK    7  A    between atoms: C_14  and  N_15 
REMARK    8  A    between atoms: N_15  and  C_16 
ROOT
HETATM    1  C   UNL     1       7.162  28.309  57.482  1.00  0.00     0.237 C 
HETATM    2  N   UNL     1       8.225  28.794  58.223  1.00  0.00    -0.201 NA
HETATM    3  O   UNL     1       6.014  28.702  57.655  1.00  0.00    -0.274 OA
HETATM    4  H   UNL     1       7.844  29.140  59.099  1.00  0.00     0.139 HD
ENDROOT
BRANCH   2   5
HETATM    5  C   UNL     1       9.143  29.738  57.823  1.00  0.00     0.157 C 
HETATM    6  S   UNL     1      10.265  29.576  56.594  1.00  0.00    -0.047 SA
BRANCH   5   7
HETATM    7  N   UNL     1       9.056  30.960  58.444  1.00  0.00    -0.337 N 
HETATM    8  H   UNL     1       9.414  31.719  57.871  1.00  0.00     0.168 HD
BRANCH   7   9
HETATM    9  C   UNL     1       8.657  31.314  59.754  1.00  0.00     0.036 A 
HETATM   10  C   UNL     1       7.273  31.373  59.992  1.00  0.00     0.061 A 
HETATM   11  C   UNL     1       6.862  31.764  61.248  1.00  0.00     0.065 A 
HETATM   12  C   UNL     1       7.763  32.100  62.252  1.00  0.00     0.063 A 
HETATM   13  N   UNL     1       5.577  31.919  61.757  1.00  0.00    -0.306 N 
HETATM   14  N   UNL     1       7.036  32.466  63.378  1.00  0.00    -0.307 N 
HETATM   15  C   UNL     1       9.119  32.063  62.056  1.00  0.00     0.034 A 
HETATM   16  C   UNL     1       5.669  32.363  63.085  1.00  0.00     0.325 A 
HETATM   17  H   UNL     1       7.395  32.776  64.267  1.00  0.00     0.170 HD
HETATM   18  O   UNL     1       4.742  32.613  63.833  1.00  0.00    -0.247 OA
HETATM   19  C   UNL     1       9.563  31.670  60.783  1.00  0.00     0.032 A 
HETATM   20  H   UNL     1       4.704  31.766  61.280  1.00  0.00     0.170 HD
ENDBRANCH   7   9
ENDBRANCH   5   7
ENDBRANCH   2   5
BRANCH   1  21
HETATM   21  C   UNL     1       7.423  27.043  56.756  1.00  0.00     0.032 A 
HETATM   22  C   UNL     1       7.191  27.062  55.375  1.00  0.00     0.053 A 
HETATM   23  C   UNL     1       7.347  25.897  54.633  1.00  0.00     0.072 A 
HETATM   24  C   UNL     1       7.731  24.719  55.271  1.00  0.00     0.073 A 
HETATM   25  C   UNL     1       8.002  24.702  56.643  1.00  0.00     0.072 A 
HETATM   26  C   UNL     1       7.831  25.867  57.393  1.00  0.00     0.053 A 
BRANCH  23  27
HETATM   27  O   UNL     1       7.058  25.810  53.301  1.00  0.00    -0.351 OA
BRANCH  27  28
HETATM   28  C   UNL     1       6.409  24.597  52.907  1.00  0.00     0.171 C 
HETATM   29  C   UNL     1       4.941  24.862  52.624  1.00  0.00     0.034 C 
ENDBRANCH  27  28
ENDBRANCH  23  27
BRANCH  25  30
HETATM   30  O   UNL     1       8.417  23.489  57.118  1.00  0.00    -0.351 OA
BRANCH  30  31
HETATM   31  C   UNL     1       8.619  22.441  56.170  1.00  0.00     0.171 C 
HETATM   32  C   UNL     1       8.398  21.120  56.887  1.00  0.00     0.034 C 
ENDBRANCH  30  31
ENDBRANCH  25  30
ENDBRANCH   1  21
TORSDOF 8
ENDMDL
MODEL 5
REMARK VINA RESULT:      -7.9      2.912      7.181
REMARK  8 active torsions:
REMARK  status: ('A' for Active; 'I' for Inactive)
REMARK    1  A    between atoms: C_2  and  O_3 
REMARK    2  A    between atoms: O_3  and  C_4 
REMARK    3  A    between atoms: C_6  and  O_7 
REMARK    4  A    between atoms: O_7  and  C_8 
REMARK    5  A    between atoms: C_11  and  C_12 
REMARK       I    between atoms: C_12  and  N_13 
REMARK    6  A    between atoms: N_13  and  C_14 
REMARK    7  A    between atoms: C_14  and  N_15 
REMARK    8  A    between atoms: N_15  and  C_16 
ROOT
HETATM    1  C   UNL     1       5.233  26.942  56.510  1.00  0.00     0.237 C 
HETATM    2  N   UNL     1       4.812  27.108  55.202  1.00  0.00    -0.201 NA
HETATM    3  O   UNL     1       4.845  26.011  57.206  1.00  0.00    -0.274 OA
HETATM    4  H   UNL     1       3.916  26.639  55.116  1.00  0.00     0.139 HD
ENDROOT
BRANCH   2   5
HETATM    5  C   UNL     1       5.513  26.774  54.065  1.00  0.00     0.157 C 
HETATM    6  S   UNL     1       4.958  26.871  52.491  1.00  0.00    -0.047 SA
BRANCH   5   7
HETATM    7  N   UNL     1       6.825  26.413  54.253  1.00  0.00    -0.337 N 
HETATM    8  H   UNL     1       7.471  27.179  54.088  1.00  0.00     0.168 HD
BRANCH   7   9
HETATM    9  C   UNL     1       7.416  25.158  54.530  1.00  0.00     0.036 A 
HETATM   10  C   UNL     1       7.379  24.207  53.496  1.00  0.00     0.061 A 
HETATM   11  C   UNL     1       7.905  22.962  53.761  1.00  0.00     0.065 A 
HETATM   12  C   UNL     1       8.448  22.634  54.998  1.00  0.00     0.063 A 
HETATM   13  N   UNL     1       7.993  21.840  52.945  1.00  0.00    -0.306 N 
HETATM   14  N   UNL     1       8.867  21.310  54.948  1.00  0.00    -0.307 N 
HETATM   15  C   UNL     1       8.494  23.531  56.034  1.00  0.00     0.034 A 
HETATM   16  C   UNL     1       8.587  20.798  53.673  1.00  0.00     0.325 A 
HETATM   17  H   UNL     1       9.290  20.771  55.686  1.00  0.00     0.170 HD
HETATM   18  O   UNL     1       8.810  19.669  53.276  1.00  0.00    -0.247 OA
HETATM   19  C   UNL     1       7.962  24.807  55.789  1.00  0.00     0.032 A 
HETATM   20  H   UNL     1       7.680  21.745  51.992  1.00  0.00     0.170 HD
ENDBRANCH   7   9
ENDBRANCH   5   7
ENDBRANCH   2   5
BRANCH   1  21
HETATM   21  C   UNL     1       5.858  28.136  57.129  1.00  0.00     0.032 A 
HETATM   22  C   UNL     1       5.066  29.290  57.186  1.00  0.00     0.053 A 
HETATM   23  C   UNL     1       5.602  30.469  57.690  1.00  0.00     0.072 A 
HETATM   24  C   UNL     1       6.923  30.494  58.133  1.00  0.00     0.073 A 
HETATM   25  C   UNL     1       7.706  29.336  58.116  1.00  0.00     0.072 A 
HETATM   26  C   UNL     1       7.176  28.153  57.596  1.00  0.00     0.053 A 
BRANCH  23  27
HETATM   27  O   UNL     1       4.927  31.656  57.700  1.00  0.00    -0.351 OA
BRANCH  27  28
HETATM   28  C   UNL     1       4.778  32.251  58.993  1.00  0.00     0.171 C 
HETATM   29  C   UNL     1       3.488  31.773  59.638  1.00  0.00     0.034 C 
ENDBRANCH  27  28
ENDBRANCH  23  27
BRANCH  25  30
HETATM   30  O   UNL     1       8.963  29.500  58.628  1.00  0.00    -0.351 OA
BRANCH  30  31
HETATM   31  C   UNL     1       9.776  30.531  58.068  1.00  0.00     0.171 C 
HETATM   32  C   UNL     1      10.745  29.879  57.098  1.00  0.00     0.034 C 
ENDBRANCH  30  31
ENDBRANCH  25  30
ENDBRANCH   1  21
TORSDOF 8
ENDMDL
MODEL 6
REMARK VINA RESULT:      -7.9      6.151      8.237
REMARK  8 active torsions:
REMARK  status: ('A' for Active; 'I' for Inactive)
REMARK    1  A    between atoms: C_2  and  O_3 
REMARK    2  A    between atoms: O_3  and  C_4 
REMARK    3  A    between atoms: C_6  and  O_7 
REMARK    4  A    between atoms: O_7  and  C_8 
REMARK    5  A    between atoms: C_11  and  C_12 
REMARK       I    between atoms: C_12  and  N_13 
REMARK    6  A    between atoms: N_13  and  C_14 
REMARK    7  A    between atoms: C_14  and  N_15 
REMARK    8  A    between atoms: N_15  and  C_16 
ROOT
HETATM    1  C   UNL     1       6.539  31.406  58.359  1.00  0.00     0.237 C 
HETATM    2  N   UNL     1       6.486  31.249  59.733  1.00  0.00    -0.201 NA
HETATM    3  O   UNL     1       6.114  32.411  57.802  1.00  0.00    -0.274 OA
HETATM    4  H   UNL     1       5.730  31.838  60.071  1.00  0.00     0.139 HD
ENDROOT
BRANCH   2   5
HETATM    5  C   UNL     1       7.521  31.433  60.622  1.00  0.00     0.157 C 
HETATM    6  S   UNL     1       9.043  32.027  60.267  1.00  0.00    -0.047 SA
BRANCH   5   7
HETATM    7  N   UNL     1       7.229  31.184  61.941  1.00  0.00    -0.337 N 
HETATM    8  H   UNL     1       7.149  30.192  62.146  1.00  0.00     0.168 HD
BRANCH   7   9
HETATM    9  C   UNL     1       6.927  32.059  63.010  1.00  0.00     0.036 A 
HETATM   10  C   UNL     1       5.563  32.270  63.281  1.00  0.00     0.061 A 
HETATM   11  C   UNL     1       5.247  33.157  64.285  1.00  0.00     0.065 A 
HETATM   12  C   UNL     1       6.220  33.836  65.011  1.00  0.00     0.063 A 
HETATM   13  N   UNL     1       4.003  33.562  64.757  1.00  0.00    -0.306 N 
HETATM   14  N   UNL     1       5.578  34.661  65.926  1.00  0.00    -0.307 N 
HETATM   15  C   UNL     1       7.558  33.664  64.770  1.00  0.00     0.034 A 
HETATM   16  C   UNL     1       4.192  34.505  65.778  1.00  0.00     0.325 A 
HETATM   17  H   UNL     1       6.001  35.292  66.587  1.00  0.00     0.170 HD
HETATM   18  O   UNL     1       3.323  35.079  66.407  1.00  0.00    -0.247 OA
HETATM   19  C   UNL     1       7.907  32.766  63.749  1.00  0.00     0.032 A 
HETATM   20  H   UNL     1       3.096  33.264  64.435  1.00  0.00     0.170 HD
ENDBRANCH   7   9
ENDBRANCH   5   7
ENDBRANCH   2   5
BRANCH   1  21
HETATM   21  C   UNL     1       6.778  30.162  57.589  1.00  0.00     0.032 A 
HETATM   22  C   UNL     1       6.199  30.101  56.316  1.00  0.00     0.053 A 
HETATM   23  C   UNL     1       6.320  28.942  55.558  1.00  0.00     0.072 A 
HETATM   24  C   UNL     1       7.014  27.849  56.074  1.00  0.00     0.073 A 
HETATM   25  C   UNL     1       7.628  27.917  57.328  1.00  0.00     0.072 A 
HETATM   26  C   UNL     1       7.496  29.075  58.098  1.00  0.00     0.053 A 
BRANCH  23  27
HETATM   27  O   UNL     1       5.713  28.770  54.347  1.00  0.00    -0.351 OA
BRANCH  27  28
HETATM   28  C   UNL     1       5.225  27.446  54.104  1.00  0.00     0.171 C 
HETATM   29  C   UNL     1       5.608  27.002  52.703  1.00  0.00     0.034 C 
ENDBRANCH  27  28
ENDBRANCH  23  27
BRANCH  25  30
HETATM   30  O   UNL     1       8.316  26.789  57.679  1.00  0.00    -0.351 OA
BRANCH  30  31
HETATM   31  C   UNL     1       7.973  25.573  57.015  1.00  0.00     0.171 C 
HETATM   32  C   UNL     1       8.922  24.494  57.508  1.00  0.00     0.034 C 
ENDBRANCH  30  31
ENDBRANCH  25  30
ENDBRANCH   1  21
TORSDOF 8
ENDMDL
MODEL 7
REMARK VINA RESULT:      -7.9      3.398      5.130
REMARK  8 active torsions:
REMARK  status: ('A' for Active; 'I' for Inactive)
REMARK    1  A    between atoms: C_2  and  O_3 
REMARK    2  A    between atoms: O_3  and  C_4 
REMARK    3  A    between atoms: C_6  and  O_7 
REMARK    4  A    between atoms: O_7  and  C_8 
REMARK    5  A    between atoms: C_11  and  C_12 
REMARK       I    between atoms: C_12  and  N_13 
REMARK    6  A    between atoms: N_13  and  C_14 
REMARK    7  A    between atoms: C_14  and  N_15 
REMARK    8  A    between atoms: N_15  and  C_16 
ROOT
HETATM    1  C   UNL     1       7.935  26.614  57.206  1.00  0.00     0.237 C 
HETATM    2  N   UNL     1       9.036  27.452  57.222  1.00  0.00    -0.201 NA
HETATM    3  O   UNL     1       7.424  26.190  58.237  1.00  0.00    -0.274 OA
HETATM    4  H   UNL     1       9.521  27.290  58.100  1.00  0.00     0.139 HD
ENDROOT
BRANCH   2   5
HETATM    5  C   UNL     1       9.031  28.819  57.052  1.00  0.00     0.157 C 
HETATM    6  S   UNL     1      10.248  29.740  56.372  1.00  0.00    -0.047 SA
BRANCH   5   7
HETATM    7  N   UNL     1       7.867  29.461  57.396  1.00  0.00    -0.337 N 
HETATM    8  H   UNL     1       7.103  29.264  56.756  1.00  0.00     0.168 HD
BRANCH   7   9
HETATM    9  C   UNL     1       7.590  30.409  58.409  1.00  0.00     0.036 A 
HETATM   10  C   UNL     1       8.340  30.299  59.593  1.00  0.00     0.061 A 
HETATM   11  C   UNL     1       8.052  31.181  60.610  1.00  0.00     0.065 A 
HETATM   12  C   UNL     1       7.056  32.145  60.498  1.00  0.00     0.063 A 
HETATM   13  N   UNL     1       8.617  31.296  61.876  1.00  0.00    -0.306 N 
HETATM   14  N   UNL     1       7.003  32.852  61.693  1.00  0.00    -0.307 N 
HETATM   15  C   UNL     1       6.297  32.278  59.364  1.00  0.00     0.034 A 
HETATM   16  C   UNL     1       7.969  32.332  62.566  1.00  0.00     0.325 A 
HETATM   17  H   UNL     1       6.379  33.604  61.934  1.00  0.00     0.170 HD
HETATM   18  O   UNL     1       8.198  32.702  63.703  1.00  0.00    -0.247 OA
HETATM   19  C   UNL     1       6.571  31.389  58.312  1.00  0.00     0.032 A 
HETATM   20  H   UNL     1       9.356  30.739  62.273  1.00  0.00     0.170 HD
ENDBRANCH   7   9
ENDBRANCH   5   7
ENDBRANCH   2   5
BRANCH   1  21
HETATM   21  C   UNL     1       7.655  25.963  55.904  1.00  0.00     0.032 A 
HETATM   22  C   UNL     1       7.961  24.599  55.814  1.00  0.00     0.053 A 
HETATM   23  C   UNL     1       7.791  23.932  54.607  1.00  0.00     0.072 A 
HETATM   24  C   UNL     1       7.319  24.627  53.495  1.00  0.00     0.073 A 
HETATM   25  C   UNL     1       6.974  25.979  53.587  1.00  0.00     0.072 A 
HETATM   26  C   UNL     1       7.158  26.656  54.795  1.00  0.00     0.053 A 
BRANCH  23  27
HETATM   27  O   UNL     1       8.147  22.628  54.413  1.00  0.00    -0.351 OA
BRANCH  27  28
HETATM   28  C   UNL     1       7.881  22.123  53.101  1.00  0.00     0.171 C 
HETATM   29  C   UNL     1       8.251  20.652  53.026  1.00  0.00     0.034 C 
ENDBRANCH  27  28
ENDBRANCH  23  27
BRANCH  25  30
HETATM   30  O   UNL     1       6.478  26.512  52.430  1.00  0.00    -0.351 OA
BRANCH  30  31
HETATM   31  C   UNL     1       5.258  25.972  51.924  1.00  0.00     0.171 C 
HETATM   32  C   UNL     1       5.100  26.452  50.491  1.00  0.00     0.034 C 
ENDBRANCH  30  31
ENDBRANCH  25  30
ENDBRANCH   1  21
TORSDOF 8
ENDMDL
MODEL 8
REMARK VINA RESULT:      -7.8      1.830      3.707
REMARK  8 active torsions:
REMARK  status: ('A' for Active; 'I' for Inactive)
REMARK    1  A    between atoms: C_2  and  O_3 
REMARK    2  A    between atoms: O_3  and  C_4 
REMARK    3  A    between atoms: C_6  and  O_7 
REMARK    4  A    between atoms: O_7  and  C_8 
REMARK    5  A    between atoms: C_11  and  C_12 
REMARK       I    between atoms: C_12  and  N_13 
REMARK    6  A    between atoms: N_13  and  C_14 
REMARK    7  A    between atoms: C_14  and  N_15 
REMARK    8  A    between atoms: N_15  and  C_16 
ROOT
HETATM    1  C   UNL     1       4.936  25.136  52.721  1.00  0.00     0.237 C 
HETATM    2  N   UNL     1       4.144  26.125  53.276  1.00  0.00    -0.201 NA
HETATM    3  O   UNL     1       4.624  24.556  51.687  1.00  0.00    -0.274 OA
HETATM    4  H   UNL     1       3.195  25.964  52.952  1.00  0.00     0.139 HD
ENDROOT
BRANCH   2   5
HETATM    5  C   UNL     1       4.339  27.485  53.182  1.00  0.00     0.157 C 
HETATM    6  S   UNL     1       5.131  28.292  51.951  1.00  0.00    -0.047 SA
BRANCH   5   7
HETATM    7  N   UNL     1       3.739  28.246  54.155  1.00  0.00    -0.337 N 
HETATM    8  H   UNL     1       2.752  28.033  54.269  1.00  0.00     0.168 HD
BRANCH   7   9
HETATM    9  C   UNL     1       4.230  29.320  54.933  1.00  0.00     0.036 A 
HETATM   10  C   UNL     1       4.987  28.978  56.067  1.00  0.00     0.061 A 
HETATM   11  C   UNL     1       5.432  30.007  56.866  1.00  0.00     0.065 A 
HETATM   12  C   UNL     1       5.150  31.340  56.587  1.00  0.00     0.063 A 
HETATM   13  N   UNL     1       6.181  29.966  58.038  1.00  0.00    -0.306 N 
HETATM   14  N   UNL     1       5.719  32.120  57.586  1.00  0.00    -0.307 N 
HETATM   15  C   UNL     1       4.408  31.713  55.496  1.00  0.00     0.034 A 
HETATM   16  C   UNL     1       6.363  31.278  58.502  1.00  0.00     0.325 A 
HETATM   17  H   UNL     1       5.681  33.122  57.679  1.00  0.00     0.170 HD
HETATM   18  O   UNL     1       6.960  31.616  59.508  1.00  0.00    -0.247 OA
HETATM   19  C   UNL     1       3.940  30.681  54.666  1.00  0.00     0.032 A 
HETATM   20  H   UNL     1       6.536  29.153  58.513  1.00  0.00     0.170 HD
ENDBRANCH   7   9
ENDBRANCH   5   7
ENDBRANCH   2   5
BRANCH   1  21
HETATM   21  C   UNL     1       5.960  24.563  53.627  1.00  0.00     0.032 A 
HETATM   22  C   UNL     1       5.887  24.952  54.970  1.00  0.00     0.053 A 
HETATM   23  C   UNL     1       6.850  24.513  55.870  1.00  0.00     0.072 A 
HETATM   24  C   UNL     1       7.883  23.689  55.427  1.00  0.00     0.073 A 
HETATM   25  C   UNL     1       7.941  23.264  54.096  1.00  0.00     0.072 A 
HETATM   26  C   UNL     1       6.983  23.717  53.186  1.00  0.00     0.053 A 
BRANCH  23  27
HETATM   27  O   UNL     1       6.900  24.916  57.174  1.00  0.00    -0.351 OA
BRANCH  27  28
HETATM   28  C   UNL     1       8.139  25.513  57.569  1.00  0.00     0.171 C 
HETATM   29  C   UNL     1       8.143  26.988  57.208  1.00  0.00     0.034 C 
ENDBRANCH  27  28
ENDBRANCH  23  27
BRANCH  25  30
HETATM   30  O   UNL     1       8.980  22.419  53.821  1.00  0.00    -0.351 OA
BRANCH  30  31
HETATM   31  C   UNL     1       8.800  21.034  54.114  1.00  0.00     0.171 C 
HETATM   32  C   UNL     1       8.365  20.343  52.833  1.00  0.00     0.034 C 
ENDBRANCH  30  31
ENDBRANCH  25  30
ENDBRANCH   1  21
TORSDOF 8
ENDMDL
MODEL 9
REMARK VINA RESULT:      -7.8      3.413      5.422
REMARK  8 active torsions:
REMARK  status: ('A' for Active; 'I' for Inactive)
REMARK    1  A    between atoms: C_2  and  O_3 
REMARK    2  A    between atoms: O_3  and  C_4 
REMARK    3  A    between atoms: C_6  and  O_7 
REMARK    4  A    between atoms: O_7  and  C_8 
REMARK    5  A    between atoms: C_11  and  C_12 
REMARK       I    between atoms: C_12  and  N_13 
REMARK    6  A    between atoms: N_13  and  C_14 
REMARK    7  A    between atoms: C_14  and  N_15 
REMARK    8  A    between atoms: N_15  and  C_16 
ROOT
HETATM    1  C   UNL     1       8.033  26.592  57.260  1.00  0.00     0.237 C 
HETATM    2  N   UNL     1       9.100  27.471  57.319  1.00  0.00    -0.201 NA
HETATM    3  O   UNL     1       7.460  26.195  58.269  1.00  0.00    -0.274 OA
HETATM    4  H   UNL     1       9.523  27.366  58.236  1.00  0.00     0.139 HD
ENDROOT
BRANCH   2   5
HETATM    5  C   UNL     1       9.062  28.828  57.086  1.00  0.00     0.157 C 
HETATM    6  S   UNL     1      10.244  29.741  56.336  1.00  0.00    -0.047 SA
BRANCH   5   7
HETATM    7  N   UNL     1       7.892  29.461  57.426  1.00  0.00    -0.337 N 
HETATM    8  H   UNL     1       7.131  29.255  56.785  1.00  0.00     0.168 HD
BRANCH   7   9
HETATM    9  C   UNL     1       7.605  30.411  58.435  1.00  0.00     0.036 A 
HETATM   10  C   UNL     1       8.353  30.309  59.621  1.00  0.00     0.061 A 
HETATM   11  C   UNL     1       8.056  31.192  60.635  1.00  0.00     0.065 A 
HETATM   12  C   UNL     1       7.053  32.149  60.517  1.00  0.00     0.063 A 
HETATM   13  N   UNL     1       8.616  31.316  61.902  1.00  0.00    -0.306 N 
HETATM   14  N   UNL     1       6.992  32.859  61.709  1.00  0.00    -0.307 N 
HETATM   15  C   UNL     1       6.297  32.273  59.380  1.00  0.00     0.034 A 
HETATM   16  C   UNL     1       7.959  32.349  62.587  1.00  0.00     0.325 A 
HETATM   17  H   UNL     1       6.362  33.608  61.946  1.00  0.00     0.170 HD
HETATM   18  O   UNL     1       8.182  32.724  63.723  1.00  0.00    -0.247 OA
HETATM   19  C   UNL     1       6.580  31.382  58.332  1.00  0.00     0.032 A 
HETATM   20  H   UNL     1       9.358  30.765  62.303  1.00  0.00     0.170 HD
ENDBRANCH   7   9
ENDBRANCH   5   7
ENDBRANCH   2   5
BRANCH   1  21
HETATM   21  C   UNL     1       7.874  25.875  55.972  1.00  0.00     0.032 A 
HETATM   22  C   UNL     1       7.221  26.575  54.950  1.00  0.00     0.053 A 
HETATM   23  C   UNL     1       6.973  25.949  53.735  1.00  0.00     0.072 A 
HETATM   24  C   UNL     1       7.375  24.629  53.544  1.00  0.00     0.073 A 
HETATM   25  C   UNL     1       8.062  23.937  54.546  1.00  0.00     0.072 A 
HETATM   26  C   UNL     1       8.300  24.558  55.774  1.00  0.00     0.053 A 
BRANCH  23  27
HETATM   27  O   UNL     1       6.267  26.531  52.721  1.00  0.00    -0.351 OA
BRANCH  27  28
HETATM   28  C   UNL     1       6.085  25.704  51.567  1.00  0.00     0.171 C 
HETATM   29  C   UNL     1       5.112  26.363  50.605  1.00  0.00     0.034 C 
ENDBRANCH  27  28
ENDBRANCH  23  27
BRANCH  25  30
HETATM   30  O   UNL     1       8.437  22.669  54.197  1.00  0.00    -0.351 OA
BRANCH  30  31
HETATM   31  C   UNL     1       7.804  22.082  53.061  1.00  0.00     0.171 C 
HETATM   32  C   UNL     1       8.065  20.586  53.108  1.00  0.00     0.034 C 
ENDBRANCH  30  31
ENDBRANCH  25  30
ENDBRANCH   1  21
TORSDOF 8
ENDMDL
MODEL 10
REMARK VINA RESULT:      -7.8      2.879      4.849
REMARK  8 active torsions:
REMARK  status: ('A' for Active; 'I' for Inactive)
REMARK    1  A    between atoms: C_2  and  O_3 
REMARK    2  A    between atoms: O_3  and  C_4 
REMARK    3  A    between atoms: C_6  and  O_7 
REMARK    4  A    between atoms: O_7  and  C_8 
REMARK    5  A    between atoms: C_11  and  C_12 
REMARK       I    between atoms: C_12  and  N_13 
REMARK    6  A    between atoms: N_13  and  C_14 
REMARK    7  A    between atoms: C_14  and  N_15 
REMARK    8  A    between atoms: N_15  and  C_16 
ROOT
HETATM    1  C   UNL     1       7.174  25.918  56.527  1.00  0.00     0.237 C 
HETATM    2  N   UNL     1       7.942  27.054  56.710  1.00  0.00    -0.201 NA
HETATM    3  O   UNL     1       6.481  25.448  57.423  1.00  0.00    -0.274 OA
HETATM    4  H   UNL     1       8.133  27.128  57.704  1.00  0.00     0.139 HD
ENDROOT
BRANCH   2   5
HETATM    5  C   UNL     1       7.631  28.331  56.299  1.00  0.00     0.157 C 
HETATM    6  S   UNL     1       6.164  28.849  55.688  1.00  0.00    -0.047 SA
BRANCH   5   7
HETATM    7  N   UNL     1       8.603  29.279  56.502  1.00  0.00    -0.337 N 
HETATM    8  H   UNL     1       9.199  29.413  55.690  1.00  0.00     0.168 HD
BRANCH   7   9
HETATM    9  C   UNL     1       8.970  30.006  57.660  1.00  0.00     0.036 A 
HETATM   10  C   UNL     1       8.128  29.868  58.777  1.00  0.00     0.061 A 
HETATM   11  C   UNL     1       8.439  30.605  59.898  1.00  0.00     0.065 A 
HETATM   12  C   UNL     1       9.531  31.465  59.943  1.00  0.00     0.063 A 
HETATM   13  N   UNL     1       7.791  30.676  61.126  1.00  0.00    -0.306 N 
HETATM   14  N   UNL     1       9.555  32.069  61.194  1.00  0.00    -0.307 N 
HETATM   15  C   UNL     1      10.369  31.633  58.870  1.00  0.00     0.034 A 
HETATM   16  C   UNL     1       8.472  31.590  61.945  1.00  0.00     0.325 A 
HETATM   17  H   UNL     1      10.212  32.752  61.534  1.00  0.00     0.170 HD
HETATM   18  O   UNL     1       8.177  31.907  63.082  1.00  0.00    -0.247 OA
HETATM   19  C   UNL     1      10.072  30.893  57.714  1.00  0.00     0.032 A 
HETATM   20  H   UNL     1       6.960  30.183  61.413  1.00  0.00     0.170 HD
ENDBRANCH   7   9
ENDBRANCH   5   7
ENDBRANCH   2   5
BRANCH   1  21
HETATM   21  C   UNL     1       7.526  25.100  55.341  1.00  0.00     0.032 A 
HETATM   22  C   UNL     1       7.154  25.623  54.096  1.00  0.00     0.053 A 
HETATM   23  C   UNL     1       7.387  24.887  52.941  1.00  0.00     0.072 A 
HETATM   24  C   UNL     1       7.988  23.633  53.031  1.00  0.00     0.073 A 
HETATM   25  C   UNL     1       8.397  23.121  54.267  1.00  0.00     0.072 A 
HETATM   26  C   UNL     1       8.150  23.852  55.431  1.00  0.00     0.053 A 
BRANCH  23  27
HETATM   27  O   UNL     1       6.978  25.286  51.701  1.00  0.00    -0.351 OA
BRANCH  27  28
HETATM   28  C   UNL     1       5.587  25.609  51.604  1.00  0.00     0.171 C 
HETATM   29  C   UNL     1       5.413  26.953  50.919  1.00  0.00     0.034 C 
ENDBRANCH  27  28
ENDBRANCH  23  27
BRANCH  25  30
HETATM   30  O   UNL     1       9.017  21.905  54.194  1.00  0.00    -0.351 OA
BRANCH  30  31
HETATM   31  C   UNL     1       9.182  21.173  55.407  1.00  0.00     0.171 C 
HETATM   32  C   UNL     1       7.942  20.318  55.605  1.00  0.00     0.034 C 
ENDBRANCH  30  31
ENDBRANCH  25  30
ENDBRANCH   1  21
TORSDOF 8
ENDMDL
