MODEL 1
REMARK VINA RESULT:     -10.2      0.000      0.000
REMARK  8 active torsions:
REMARK  status: ('A' for Active; 'I' for Inactive)
REMARK    1  A    between atoms: C_2  and  S_3 
REMARK    2  A    between atoms: S_3  and  C_4 
REMARK    3  A    between atoms: C_7  and  C_8 
REMARK    4  A    between atoms: C_8  and  C_9 
REMARK       I    between atoms: C_9  and  N_10 
REMARK    5  A    between atoms: N_10  and  C_11 
REMARK    6  A    between atoms: N_17  and  C_19 
REMARK    7  A    between atoms: C_19  and  C_20 
REMARK    8  A    between atoms: C_27  and  C_28 
REMARK       I    between atoms: C_28  and  N_29 
ROOT
HETATM    1  C   UNL     1       7.944  30.906  58.453  1.00  0.00     0.093 A 
HETATM    2  S   UNL     1       6.365  30.413  58.051  1.00  0.00    -0.074 SA
HETATM    3  C   UNL     1       6.893  29.524  56.717  1.00  0.00     0.018 A 
HETATM    4  C   UNL     1       8.256  29.617  56.529  1.00  0.00    -0.023 A 
HETATM    5  C   UNL     1       8.940  28.868  55.414  1.00  0.00     0.068 C 
HETATM    6  C   UNL     1       7.937  28.286  54.397  1.00  0.00     0.240 C 
HETATM    7  N   UNL     1       6.702  27.689  55.067  1.00  0.00    -0.063 N 
HETATM    8  H   UNL     1       6.071  27.399  54.311  1.00  0.00     0.280 HD
HETATM    9  C   UNL     1       5.956  28.747  55.862  1.00  0.00     0.282 C 
HETATM   10  C   UNL     1       8.883  30.459  57.528  1.00  0.00     0.073 A 
ENDROOT
BRANCH   1  11
HETATM   11  N   UNL     1       8.190  31.608  59.625  1.00  0.00    -0.320 N 
HETATM   12  C   UNL     1       8.671  31.091  60.823  1.00  0.00     0.226 C 
HETATM   13  O   UNL     1       8.842  29.907  61.095  1.00  0.00    -0.273 OA
HETATM   14  H   UNL     1       7.996  32.605  59.602  1.00  0.00     0.169 HD
BRANCH  12  15
HETATM   15  C   UNL     1       8.985  32.176  61.843  1.00  0.00     0.141 C 
BRANCH  15  16
HETATM   16  C   UNL     1       7.797  32.566  62.687  1.00  0.00    -0.049 A 
HETATM   17  C   UNL     1       7.971  32.962  64.020  1.00  0.00     0.009 A 
HETATM   18  C   UNL     1       6.876  33.365  64.790  1.00  0.00     0.019 A 
HETATM   19  C   UNL     1       5.593  33.395  64.239  1.00  0.00     0.001 A 
HETATM   20  C   UNL     1       5.414  32.988  62.914  1.00  0.00     0.019 A 
HETATM   21  C   UNL     1       6.507  32.586  62.141  1.00  0.00     0.009 A 
BRANCH  19  22
HETATM   22  S   UNL     1       4.227  33.903  65.266  1.00  0.00    -0.126 SA
BRANCH  22  23
HETATM   23  C   UNL     1       5.089  34.808  66.616  1.00  0.00     0.044 C 
HETATM   24  C   UNL     1       4.889  34.110  67.958  1.00  0.00     0.021 C 
HETATM   25  C   UNL     1       4.532  36.230  66.666  1.00  0.00     0.021 C 
ENDBRANCH  22  23
ENDBRANCH  19  22
ENDBRANCH  15  16
ENDBRANCH  12  15
ENDBRANCH   1  11
BRANCH  10  26
HETATM   26  C   UNL     1      10.318  30.737  57.578  1.00  0.00     0.252 C 
HETATM   27  N   UNL     1      11.147  29.704  57.238  1.00  0.00    -0.366 N 
HETATM   28  H   UNL     1      10.828  28.747  57.341  1.00  0.00     0.159 HD
HETATM   29  H   UNL     1      12.128  29.861  57.441  1.00  0.00     0.159 HD
HETATM   30  O   UNL     1      10.768  31.812  57.954  1.00  0.00    -0.268 OA
ENDBRANCH  10  26
BRANCH   7  31
HETATM   31  C   UNL     1       6.966  26.438  55.874  1.00  0.00     0.273 C 
BRANCH  31  32
HETATM   32  C   UNL     1       7.231  25.239  55.004  1.00  0.00    -0.033 A 
HETATM   33  C   UNL     1       6.533  25.057  53.801  1.00  0.00     0.009 A 
HETATM   34  C   UNL     1       6.768  23.929  53.013  1.00  0.00     0.001 A 
HETATM   35  C   UNL     1       7.701  22.976  53.415  1.00  0.00     0.000 A 
HETATM   36  C   UNL     1       8.403  23.148  54.605  1.00  0.00     0.001 A 
HETATM   37  C   UNL     1       8.170  24.272  55.398  1.00  0.00     0.009 A 
ENDBRANCH  31  32
ENDBRANCH   7  31
TORSDOF 8
ENDMDL
MODEL 2
REMARK VINA RESULT:     -10.1      3.010     11.064
REMARK  8 active torsions:
REMARK  status: ('A' for Active; 'I' for Inactive)
REMARK    1  A    between atoms: C_2  and  S_3 
REMARK    2  A    between atoms: S_3  and  C_4 
REMARK    3  A    between atoms: C_7  and  C_8 
REMARK    4  A    between atoms: C_8  and  C_9 
REMARK       I    between atoms: C_9  and  N_10 
REMARK    5  A    between atoms: N_10  and  C_11 
REMARK    6  A    between atoms: N_17  and  C_19 
REMARK    7  A    between atoms: C_19  and  C_20 
REMARK    8  A    between atoms: C_27  and  C_28 
REMARK       I    between atoms: C_28  and  N_29 
ROOT
HETATM    1  C   UNL     1       6.567  28.796  57.204  1.00  0.00     0.093 A 
HETATM    2  S   UNL     1       8.160  28.681  57.795  1.00  0.00    -0.074 SA
HETATM    3  C   UNL     1       8.014  30.097  58.701  1.00  0.00     0.018 A 
HETATM    4  C   UNL     1       6.783  30.699  58.542  1.00  0.00    -0.023 A 
HETATM    5  C   UNL     1       6.430  31.958  59.292  1.00  0.00     0.068 C 
HETATM    6  C   UNL     1       7.660  32.604  59.963  1.00  0.00     0.240 C 
HETATM    7  N   UNL     1       8.589  31.575  60.601  1.00  0.00    -0.063 N 
HETATM    8  H   UNL     1       9.402  32.093  60.951  1.00  0.00     0.280 HD
HETATM    9  C   UNL     1       9.119  30.607  59.557  1.00  0.00     0.282 C 
HETATM   10  C   UNL     1       5.933  29.958  57.632  1.00  0.00     0.073 A 
ENDROOT
BRANCH   1  11
HETATM   11  N   UNL     1       6.017  27.769  56.447  1.00  0.00    -0.320 N 
HETATM   12  C   UNL     1       5.874  27.735  55.065  1.00  0.00     0.226 C 
HETATM   13  O   UNL     1       6.092  28.655  54.282  1.00  0.00    -0.273 OA
HETATM   14  H   UNL     1       5.684  26.959  56.963  1.00  0.00     0.169 HD
BRANCH  12  15
HETATM   15  C   UNL     1       5.391  26.383  54.561  1.00  0.00     0.141 C 
BRANCH  15  16
HETATM   16  C   UNL     1       6.455  25.314  54.601  1.00  0.00    -0.049 A 
HETATM   17  C   UNL     1       6.779  24.677  55.806  1.00  0.00     0.009 A 
HETATM   18  C   UNL     1       7.733  23.656  55.837  1.00  0.00     0.019 A 
HETATM   19  C   UNL     1       8.369  23.244  54.664  1.00  0.00     0.001 A 
HETATM   20  C   UNL     1       8.059  23.886  53.462  1.00  0.00     0.019 A 
HETATM   21  C   UNL     1       7.104  24.907  53.428  1.00  0.00     0.009 A 
BRANCH  19  22
HETATM   22  S   UNL     1       9.590  21.948  54.756  1.00  0.00    -0.126 SA
BRANCH  22  23
HETATM   23  C   UNL     1       8.556  20.443  54.534  1.00  0.00     0.044 C 
HETATM   24  C   UNL     1       7.747  20.519  53.242  1.00  0.00     0.021 C 
HETATM   25  C   UNL     1       7.626  20.323  55.739  1.00  0.00     0.021 C 
ENDBRANCH  22  23
ENDBRANCH  19  22
ENDBRANCH  15  16
ENDBRANCH  12  15
ENDBRANCH   1  11
BRANCH  10  26
HETATM   26  C   UNL     1       4.572  30.359  57.276  1.00  0.00     0.252 C 
HETATM   27  N   UNL     1       3.593  30.042  58.176  1.00  0.00    -0.366 N 
HETATM   28  H   UNL     1       3.724  29.263  58.810  1.00  0.00     0.159 HD
HETATM   29  H   UNL     1       2.645  30.174  57.837  1.00  0.00     0.159 HD
HETATM   30  O   UNL     1       4.302  30.900  56.211  1.00  0.00    -0.268 OA
ENDBRANCH  10  26
BRANCH   7  31
HETATM   31  C   UNL     1       8.012  30.868  61.807  1.00  0.00     0.273 C 
BRANCH  31  32
HETATM   32  C   UNL     1       7.374  31.821  62.781  1.00  0.00    -0.033 A 
HETATM   33  C   UNL     1       8.159  32.685  63.559  1.00  0.00     0.009 A 
HETATM   34  C   UNL     1       7.560  33.548  64.477  1.00  0.00     0.001 A 
HETATM   35  C   UNL     1       6.175  33.560  64.625  1.00  0.00     0.000 A 
HETATM   36  C   UNL     1       5.384  32.711  63.854  1.00  0.00     0.001 A 
HETATM   37  C   UNL     1       5.979  31.845  62.937  1.00  0.00     0.009 A 
ENDBRANCH  31  32
ENDBRANCH   7  31
TORSDOF 8
ENDMDL
MODEL 3
REMARK VINA RESULT:      -9.6      1.981      2.610
REMARK  8 active torsions:
REMARK  status: ('A' for Active; 'I' for Inactive)
REMARK    1  A    between atoms: C_2  and  S_3 
REMARK    2  A    between atoms: S_3  and  C_4 
REMARK    3  A    between atoms: C_7  and  C_8 
REMARK    4  A    between atoms: C_8  and  C_9 
REMARK       I    between atoms: C_9  and  N_10 
REMARK    5  A    between atoms: N_10  and  C_11 
REMARK    6  A    between atoms: N_17  and  C_19 
REMARK    7  A    between atoms: C_19  and  C_20 
REMARK    8  A    between atoms: C_27  and  C_28 
REMARK       I    between atoms: C_28  and  N_29 
ROOT
HETATM    1  C   UNL     1       5.197  30.668  57.683  1.00  0.00     0.093 A 
HETATM    2  S   UNL     1       4.207  30.120  56.411  1.00  0.00    -0.074 SA
HETATM    3  C   UNL     1       5.467  29.259  55.691  1.00  0.00     0.018 A 
HETATM    4  C   UNL     1       6.658  29.402  56.371  1.00  0.00    -0.023 A 
HETATM    5  C   UNL     1       7.904  28.684  55.917  1.00  0.00     0.068 C 
HETATM    6  C   UNL     1       7.747  28.072  54.510  1.00  0.00     0.240 C 
HETATM    7  N   UNL     1       6.380  27.427  54.299  1.00  0.00    -0.063 N 
HETATM    8  H   UNL     1       6.350  27.119  53.321  1.00  0.00     0.280 HD
HETATM    9  C   UNL     1       5.271  28.453  54.456  1.00  0.00     0.282 C 
HETATM   10  C   UNL     1       6.519  30.261  57.529  1.00  0.00     0.073 A 
ENDROOT
BRANCH   1  11
HETATM   11  N   UNL     1       4.654  31.373  58.750  1.00  0.00    -0.320 N 
HETATM   12  C   UNL     1       4.650  32.752  58.922  1.00  0.00     0.226 C 
HETATM   13  O   UNL     1       5.233  33.581  58.229  1.00  0.00    -0.273 OA
HETATM   14  H   UNL     1       4.216  30.818  59.479  1.00  0.00     0.169 HD
BRANCH  12  15
HETATM   15  C   UNL     1       3.815  33.188  60.117  1.00  0.00     0.141 C 
BRANCH  15  16
HETATM   16  C   UNL     1       4.612  33.302  61.394  1.00  0.00    -0.049 A 
HETATM   17  C   UNL     1       5.333  34.469  61.680  1.00  0.00     0.009 A 
HETATM   18  C   UNL     1       6.037  34.593  62.882  1.00  0.00     0.019 A 
HETATM   19  C   UNL     1       6.019  33.563  63.824  1.00  0.00     0.001 A 
HETATM   20  C   UNL     1       5.311  32.392  63.536  1.00  0.00     0.019 A 
HETATM   21  C   UNL     1       4.606  32.266  62.336  1.00  0.00     0.009 A 
BRANCH  19  22
HETATM   22  S   UNL     1       6.943  33.762  65.336  1.00  0.00    -0.126 SA
BRANCH  22  23
HETATM   23  C   UNL     1       5.606  34.116  66.548  1.00  0.00     0.044 C 
HETATM   24  C   UNL     1       4.725  35.269  66.072  1.00  0.00     0.021 C 
HETATM   25  C   UNL     1       6.257  34.461  67.887  1.00  0.00     0.021 C 
ENDBRANCH  22  23
ENDBRANCH  19  22
ENDBRANCH  15  16
ENDBRANCH  12  15
ENDBRANCH   1  11
BRANCH  10  26
HETATM   26  C   UNL     1       7.616  30.590  58.439  1.00  0.00     0.252 C 
HETATM   27  N   UNL     1       8.057  29.579  59.247  1.00  0.00    -0.366 N 
HETATM   28  H   UNL     1       7.433  28.817  59.486  1.00  0.00     0.159 HD
HETATM   29  H   UNL     1       8.695  29.869  59.981  1.00  0.00     0.159 HD
HETATM   30  O   UNL     1       8.087  31.717  58.522  1.00  0.00    -0.268 OA
ENDBRANCH  10  26
BRANCH   7  31
HETATM   31  C   UNL     1       6.137  26.182  55.122  1.00  0.00     0.273 C 
BRANCH  31  32
HETATM   32  C   UNL     1       6.943  25.007  54.637  1.00  0.00    -0.033 A 
HETATM   33  C   UNL     1       6.764  24.499  53.343  1.00  0.00     0.009 A 
HETATM   34  C   UNL     1       7.499  23.394  52.910  1.00  0.00     0.001 A 
HETATM   35  C   UNL     1       8.420  22.789  53.763  1.00  0.00     0.000 A 
HETATM   36  C   UNL     1       8.610  23.288  55.049  1.00  0.00     0.001 A 
HETATM   37  C   UNL     1       7.876  24.390  55.486  1.00  0.00     0.009 A 
ENDBRANCH  31  32
ENDBRANCH   7  31
TORSDOF 8
ENDMDL
MODEL 4
REMARK VINA RESULT:      -9.4      2.123      3.636
REMARK  8 active torsions:
REMARK  status: ('A' for Active; 'I' for Inactive)
REMARK    1  A    between atoms: C_2  and  S_3 
REMARK    2  A    between atoms: S_3  and  C_4 
REMARK    3  A    between atoms: C_7  and  C_8 
REMARK    4  A    between atoms: C_8  and  C_9 
REMARK       I    between atoms: C_9  and  N_10 
REMARK    5  A    between atoms: N_10  and  C_11 
REMARK    6  A    between atoms: N_17  and  C_19 
REMARK    7  A    between atoms: C_19  and  C_20 
REMARK    8  A    between atoms: C_27  and  C_28 
REMARK       I    between atoms: C_28  and  N_29 
ROOT
HETATM    1  C   UNL     1       5.932  32.337  60.321  1.00  0.00     0.093 A 
HETATM    2  S   UNL     1       5.265  32.080  58.776  1.00  0.00    -0.074 SA
HETATM    3  C   UNL     1       6.527  31.061  58.310  1.00  0.00     0.018 A 
HETATM    4  C   UNL     1       7.488  30.930  59.291  1.00  0.00    -0.023 A 
HETATM    5  C   UNL     1       8.684  30.034  59.093  1.00  0.00     0.068 C 
HETATM    6  C   UNL     1       8.834  29.572  57.629  1.00  0.00     0.240 C 
HETATM    7  N   UNL     1       7.498  29.206  56.989  1.00  0.00    -0.063 N 
HETATM    8  H   UNL     1       7.695  28.985  56.007  1.00  0.00     0.280 HD
HETATM    9  C   UNL     1       6.562  30.402  56.976  1.00  0.00     0.282 C 
HETATM   10  C   UNL     1       7.165  31.708  60.470  1.00  0.00     0.073 A 
ENDROOT
BRANCH   1  11
HETATM   11  N   UNL     1       5.229  33.044  61.287  1.00  0.00    -0.320 N 
HETATM   12  C   UNL     1       4.706  32.542  62.473  1.00  0.00     0.226 C 
HETATM   13  O   UNL     1       4.662  31.364  62.816  1.00  0.00    -0.273 OA
HETATM   14  H   UNL     1       5.084  34.033  61.105  1.00  0.00     0.169 HD
BRANCH  12  15
HETATM   15  C   UNL     1       4.150  33.634  63.375  1.00  0.00     0.141 C 
BRANCH  15  16
HETATM   16  C   UNL     1       4.917  33.795  64.664  1.00  0.00    -0.049 A 
HETATM   17  C   UNL     1       6.311  33.658  64.684  1.00  0.00     0.009 A 
HETATM   18  C   UNL     1       7.028  33.849  65.869  1.00  0.00     0.019 A 
HETATM   19  C   UNL     1       6.367  34.195  67.050  1.00  0.00     0.001 A 
HETATM   20  C   UNL     1       4.975  34.320  67.037  1.00  0.00     0.019 A 
HETATM   21  C   UNL     1       4.256  34.131  65.852  1.00  0.00     0.009 A 
BRANCH  19  22
HETATM   22  S   UNL     1       7.322  34.415  68.539  1.00  0.00    -0.126 SA
BRANCH  22  23
HETATM   23  C   UNL     1       6.059  34.114  69.842  1.00  0.00     0.044 C 
HETATM   24  C   UNL     1       6.197  35.120  70.981  1.00  0.00     0.021 C 
HETATM   25  C   UNL     1       6.243  32.690  70.364  1.00  0.00     0.021 C 
ENDBRANCH  22  23
ENDBRANCH  19  22
ENDBRANCH  15  16
ENDBRANCH  12  15
ENDBRANCH   1  11
BRANCH  10  26
HETATM   26  C   UNL     1       8.002  31.760  61.668  1.00  0.00     0.252 C 
HETATM   27  N   UNL     1       7.778  30.788  62.605  1.00  0.00    -0.366 N 
HETATM   28  H   UNL     1       6.872  30.338  62.658  1.00  0.00     0.159 HD
HETATM   29  H   UNL     1       8.244  30.939  63.493  1.00  0.00     0.159 HD
HETATM   30  O   UNL     1       8.822  32.648  61.862  1.00  0.00    -0.268 OA
ENDBRANCH  10  26
BRANCH   7  31
HETATM   31  C   UNL     1       6.845  27.966  57.558  1.00  0.00     0.273 C 
BRANCH  31  32
HETATM   32  C   UNL     1       7.338  26.705  56.902  1.00  0.00    -0.033 A 
HETATM   33  C   UNL     1       7.003  26.409  55.573  1.00  0.00     0.009 A 
HETATM   34  C   UNL     1       7.445  25.225  54.980  1.00  0.00     0.001 A 
HETATM   35  C   UNL     1       8.227  24.329  55.706  1.00  0.00     0.000 A 
HETATM   36  C   UNL     1       8.571  24.615  57.025  1.00  0.00     0.001 A 
HETATM   37  C   UNL     1       8.129  25.795  57.622  1.00  0.00     0.009 A 
ENDBRANCH  31  32
ENDBRANCH   7  31
TORSDOF 8
ENDMDL
MODEL 5
REMARK VINA RESULT:      -9.4      7.145     10.773
REMARK  8 active torsions:
REMARK  status: ('A' for Active; 'I' for Inactive)
REMARK    1  A    between atoms: C_2  and  S_3 
REMARK    2  A    between atoms: S_3  and  C_4 
REMARK    3  A    between atoms: C_7  and  C_8 
REMARK    4  A    between atoms: C_8  and  C_9 
REMARK       I    between atoms: C_9  and  N_10 
REMARK    5  A    between atoms: N_10  and  C_11 
REMARK    6  A    between atoms: N_17  and  C_19 
REMARK    7  A    between atoms: C_19  and  C_20 
REMARK    8  A    between atoms: C_27  and  C_28 
REMARK       I    between atoms: C_28  and  N_29 
ROOT
HETATM    1  C   UNL     1       5.704  28.210  52.132  1.00  0.00     0.093 A 
HETATM    2  S   UNL     1       5.293  29.597  51.234  1.00  0.00    -0.074 SA
HETATM    3  C   UNL     1       4.829  28.690  49.889  1.00  0.00     0.018 A 
HETATM    4  C   UNL     1       5.014  27.336  50.077  1.00  0.00    -0.023 A 
HETATM    5  C   UNL     1       4.629  26.343  49.012  1.00  0.00     0.068 C 
HETATM    6  C   UNL     1       4.322  27.022  47.661  1.00  0.00     0.240 C 
HETATM    7  N   UNL     1       3.523  28.313  47.821  1.00  0.00    -0.063 N 
HETATM    8  H   UNL     1       3.435  28.720  46.883  1.00  0.00     0.280 HD
HETATM    9  C   UNL     1       4.293  29.323  48.654  1.00  0.00     0.282 C 
HETATM   10  C   UNL     1       5.564  27.044  51.386  1.00  0.00     0.073 A 
ENDROOT
BRANCH   1  11
HETATM   11  N   UNL     1       6.059  28.313  53.470  1.00  0.00    -0.320 N 
HETATM   12  C   UNL     1       5.198  28.381  54.559  1.00  0.00     0.226 C 
HETATM   13  O   UNL     1       3.976  28.491  54.523  1.00  0.00    -0.273 OA
HETATM   14  H   UNL     1       7.055  28.340  53.671  1.00  0.00     0.169 HD
BRANCH  12  15
HETATM   15  C   UNL     1       5.932  28.310  55.890  1.00  0.00     0.141 C 
BRANCH  15  16
HETATM   16  C   UNL     1       6.539  26.957  56.167  1.00  0.00    -0.049 A 
HETATM   17  C   UNL     1       5.962  25.796  55.636  1.00  0.00     0.009 A 
HETATM   18  C   UNL     1       6.549  24.546  55.856  1.00  0.00     0.019 A 
HETATM   19  C   UNL     1       7.729  24.436  56.594  1.00  0.00     0.001 A 
HETATM   20  C   UNL     1       8.300  25.590  57.136  1.00  0.00     0.019 A 
HETATM   21  C   UNL     1       7.717  26.842  56.917  1.00  0.00     0.009 A 
BRANCH  19  22
HETATM   22  S   UNL     1       8.431  22.818  56.859  1.00  0.00    -0.126 SA
BRANCH  22  23
HETATM   23  C   UNL     1       7.882  21.920  55.351  1.00  0.00     0.044 C 
HETATM   24  C   UNL     1       7.725  20.427  55.628  1.00  0.00     0.021 C 
HETATM   25  C   UNL     1       8.920  22.152  54.254  1.00  0.00     0.021 C 
ENDBRANCH  22  23
ENDBRANCH  19  22
ENDBRANCH  15  16
ENDBRANCH  12  15
ENDBRANCH   1  11
BRANCH  10  26
HETATM   26  C   UNL     1       5.862  25.694  51.863  1.00  0.00     0.252 C 
HETATM   27  N   UNL     1       7.162  25.284  51.748  1.00  0.00    -0.366 N 
HETATM   28  H   UNL     1       7.761  25.699  51.044  1.00  0.00     0.159 HD
HETATM   29  H   UNL     1       7.314  24.296  51.924  1.00  0.00     0.159 HD
HETATM   30  O   UNL     1       4.997  24.941  52.292  1.00  0.00    -0.268 OA
ENDBRANCH  10  26
BRANCH   7  31
HETATM   31  C   UNL     1       2.105  28.119  48.310  1.00  0.00     0.273 C 
BRANCH  31  32
HETATM   32  C   UNL     1       1.087  28.350  47.226  1.00  0.00    -0.033 A 
HETATM   33  C   UNL     1       0.620  29.642  46.944  1.00  0.00     0.009 A 
HETATM   34  C   UNL     1      -0.343  29.844  45.954  1.00  0.00     0.001 A 
HETATM   35  C   UNL     1      -0.844  28.761  45.235  1.00  0.00     0.000 A 
HETATM   36  C   UNL     1      -0.384  27.474  45.502  1.00  0.00     0.001 A 
HETATM   37  C   UNL     1       0.575  27.268  46.493  1.00  0.00     0.009 A 
ENDBRANCH  31  32
ENDBRANCH   7  31
TORSDOF 8
ENDMDL
MODEL 6
REMARK VINA RESULT:      -9.3      2.091      3.103
REMARK  8 active torsions:
REMARK  status: ('A' for Active; 'I' for Inactive)
REMARK    1  A    between atoms: C_2  and  S_3 
REMARK    2  A    between atoms: S_3  and  C_4 
REMARK    3  A    between atoms: C_7  and  C_8 
REMARK    4  A    between atoms: C_8  and  C_9 
REMARK       I    between atoms: C_9  and  N_10 
REMARK    5  A    between atoms: N_10  and  C_11 
REMARK    6  A    between atoms: N_17  and  C_19 
REMARK    7  A    between atoms: C_19  and  C_20 
REMARK    8  A    between atoms: C_27  and  C_28 
REMARK       I    between atoms: C_28  and  N_29 
ROOT
HETATM    1  C   UNL     1       5.825  31.623  58.192  1.00  0.00     0.093 A 
HETATM    2  S   UNL     1       5.364  30.845  56.749  1.00  0.00    -0.074 SA
HETATM    3  C   UNL     1       6.753  29.887  56.725  1.00  0.00     0.018 A 
HETATM    4  C   UNL     1       7.603  30.165  57.776  1.00  0.00    -0.023 A 
HETATM    5  C   UNL     1       8.886  29.396  57.963  1.00  0.00     0.068 C 
HETATM    6  C   UNL     1       9.242  28.541  56.728  1.00  0.00     0.240 C 
HETATM    7  N   UNL     1       8.024  27.850  56.121  1.00  0.00    -0.063 N 
HETATM    8  H   UNL     1       8.351  27.373  55.274  1.00  0.00     0.280 HD
HETATM    9  C   UNL     1       6.997  28.872  55.664  1.00  0.00     0.282 C 
HETATM   10  C   UNL     1       7.081  31.214  58.628  1.00  0.00     0.073 A 
ENDROOT
BRANCH   1  11
HETATM   11  N   UNL     1       4.958  32.498  58.832  1.00  0.00    -0.320 N 
HETATM   12  C   UNL     1       3.715  32.194  59.374  1.00  0.00     0.226 C 
HETATM   13  O   UNL     1       3.110  31.130  59.272  1.00  0.00    -0.273 OA
HETATM   14  H   UNL     1       5.268  33.463  58.911  1.00  0.00     0.169 HD
BRANCH  12  15
HETATM   15  C   UNL     1       3.117  33.355  60.153  1.00  0.00     0.141 C 
BRANCH  15  16
HETATM   16  C   UNL     1       3.768  33.573  61.497  1.00  0.00    -0.049 A 
HETATM   17  C   UNL     1       4.240  32.486  62.244  1.00  0.00     0.009 A 
HETATM   18  C   UNL     1       4.882  32.690  63.469  1.00  0.00     0.019 A 
HETATM   19  C   UNL     1       5.079  33.982  63.960  1.00  0.00     0.001 A 
HETATM   20  C   UNL     1       4.599  35.069  63.224  1.00  0.00     0.019 A 
HETATM   21  C   UNL     1       3.957  34.868  61.999  1.00  0.00     0.009 A 
BRANCH  19  22
HETATM   22  S   UNL     1       5.891  34.190  65.534  1.00  0.00    -0.126 SA
BRANCH  22  23
HETATM   23  C   UNL     1       4.459  34.409  66.668  1.00  0.00     0.044 C 
HETATM   24  C   UNL     1       3.991  35.862  66.686  1.00  0.00     0.021 C 
HETATM   25  C   UNL     1       4.889  33.971  68.067  1.00  0.00     0.021 C 
ENDBRANCH  22  23
ENDBRANCH  19  22
ENDBRANCH  15  16
ENDBRANCH  12  15
ENDBRANCH   1  11
BRANCH  10  26
HETATM   26  C   UNL     1       7.768  31.714  59.819  1.00  0.00     0.252 C 
HETATM   27  N   UNL     1       7.436  31.118  61.004  1.00  0.00    -0.366 N 
HETATM   28  H   UNL     1       6.531  30.674  61.109  1.00  0.00     0.159 HD
HETATM   29  H   UNL     1       7.791  31.588  61.830  1.00  0.00     0.159 HD
HETATM   30  O   UNL     1       8.556  32.651  59.781  1.00  0.00    -0.268 OA
ENDBRANCH  10  26
BRANCH   7  31
HETATM   31  C   UNL     1       7.418  26.767  56.986  1.00  0.00     0.273 C 
BRANCH  31  32
HETATM   32  C   UNL     1       7.582  25.396  56.388  1.00  0.00    -0.033 A 
HETATM   33  C   UNL     1       8.477  24.472  56.947  1.00  0.00     0.009 A 
HETATM   34  C   UNL     1       8.640  23.211  56.370  1.00  0.00     0.001 A 
HETATM   35  C   UNL     1       7.911  22.861  55.235  1.00  0.00     0.000 A 
HETATM   36  C   UNL     1       7.016  23.769  54.675  1.00  0.00     0.001 A 
HETATM   37  C   UNL     1       6.851  25.030  55.246  1.00  0.00     0.009 A 
ENDBRANCH  31  32
ENDBRANCH   7  31
TORSDOF 8
ENDMDL
MODEL 7
REMARK VINA RESULT:      -9.1      9.129     11.647
REMARK  8 active torsions:
REMARK  status: ('A' for Active; 'I' for Inactive)
REMARK    1  A    between atoms: C_2  and  S_3 
REMARK    2  A    between atoms: S_3  and  C_4 
REMARK    3  A    between atoms: C_7  and  C_8 
REMARK    4  A    between atoms: C_8  and  C_9 
REMARK       I    between atoms: C_9  and  N_10 
REMARK    5  A    between atoms: N_10  and  C_11 
REMARK    6  A    between atoms: N_17  and  C_19 
REMARK    7  A    between atoms: C_19  and  C_20 
REMARK    8  A    between atoms: C_27  and  C_28 
REMARK       I    between atoms: C_28  and  N_29 
ROOT
HETATM    1  C   UNL     1       5.003  28.607  49.513  1.00  0.00     0.093 A 
HETATM    2  S   UNL     1       5.495  29.219  51.024  1.00  0.00    -0.074 SA
HETATM    3  C   UNL     1       5.392  27.705  51.763  1.00  0.00     0.018 A 
HETATM    4  C   UNL     1       4.948  26.726  50.899  1.00  0.00    -0.023 A 
HETATM    5  C   UNL     1       4.819  25.293  51.348  1.00  0.00     0.068 C 
HETATM    6  C   UNL     1       4.936  25.145  52.879  1.00  0.00     0.240 C 
HETATM    7  N   UNL     1       6.029  26.031  53.472  1.00  0.00    -0.063 N 
HETATM    8  H   UNL     1       5.978  25.916  54.490  1.00  0.00     0.280 HD
HETATM    9  C   UNL     1       5.744  27.497  53.194  1.00  0.00     0.282 C 
HETATM   10  C   UNL     1       4.681  27.255  49.576  1.00  0.00     0.073 A 
ENDROOT
BRANCH   1  11
HETATM   11  N   UNL     1       5.019  29.414  48.383  1.00  0.00    -0.320 N 
HETATM   12  C   UNL     1       4.034  30.309  47.983  1.00  0.00     0.226 C 
HETATM   13  O   UNL     1       2.923  30.452  48.486  1.00  0.00    -0.273 OA
HETATM   14  H   UNL     1       5.839  29.339  47.788  1.00  0.00     0.169 HD
BRANCH  12  15
HETATM   15  C   UNL     1       4.461  31.153  46.791  1.00  0.00     0.141 C 
BRANCH  15  16
HETATM   16  C   UNL     1       5.393  32.280  47.159  1.00  0.00    -0.049 A 
HETATM   17  C   UNL     1       5.589  32.633  48.501  1.00  0.00     0.009 A 
HETATM   18  C   UNL     1       6.485  33.649  48.846  1.00  0.00     0.019 A 
HETATM   19  C   UNL     1       7.213  34.318  47.860  1.00  0.00     0.001 A 
HETATM   20  C   UNL     1       7.012  33.978  46.520  1.00  0.00     0.019 A 
HETATM   21  C   UNL     1       6.117  32.961  46.172  1.00  0.00     0.009 A 
BRANCH  19  22
HETATM   22  S   UNL     1       8.334  35.615  48.349  1.00  0.00    -0.126 SA
BRANCH  22  23
HETATM   23  C   UNL     1       7.370  36.466  49.666  1.00  0.00     0.044 C 
HETATM   24  C   UNL     1       6.358  37.436  49.064  1.00  0.00     0.021 C 
HETATM   25  C   UNL     1       8.353  37.212  50.567  1.00  0.00     0.021 C 
ENDBRANCH  22  23
ENDBRANCH  19  22
ENDBRANCH  15  16
ENDBRANCH  12  15
ENDBRANCH   1  11
BRANCH  10  26
HETATM   26  C   UNL     1       4.201  26.446  48.456  1.00  0.00     0.252 C 
HETATM   27  N   UNL     1       3.008  25.804  48.639  1.00  0.00    -0.366 N 
HETATM   28  H   UNL     1       2.696  25.578  49.576  1.00  0.00     0.159 HD
HETATM   29  H   UNL     1       2.778  25.121  47.925  1.00  0.00     0.159 HD
HETATM   30  O   UNL     1       4.847  26.298  47.426  1.00  0.00    -0.268 OA
ENDBRANCH  10  26
BRANCH   7  31
HETATM   31  C   UNL     1       7.438  25.634  53.091  1.00  0.00     0.273 C 
BRANCH  31  32
HETATM   32  C   UNL     1       7.812  24.274  53.617  1.00  0.00    -0.033 A 
HETATM   33  C   UNL     1       8.113  24.087  54.974  1.00  0.00     0.009 A 
HETATM   34  C   UNL     1       8.483  22.828  55.448  1.00  0.00     0.001 A 
HETATM   35  C   UNL     1       8.554  21.745  54.574  1.00  0.00     0.000 A 
HETATM   36  C   UNL     1       8.252  21.917  53.226  1.00  0.00     0.001 A 
HETATM   37  C   UNL     1       7.884  23.174  52.747  1.00  0.00     0.009 A 
ENDBRANCH  31  32
ENDBRANCH   7  31
TORSDOF 8
ENDMDL
MODEL 8
REMARK VINA RESULT:      -9.0      3.028      4.530
REMARK  8 active torsions:
REMARK  status: ('A' for Active; 'I' for Inactive)
REMARK    1  A    between atoms: C_2  and  S_3 
REMARK    2  A    between atoms: S_3  and  C_4 
REMARK    3  A    between atoms: C_7  and  C_8 
REMARK    4  A    between atoms: C_8  and  C_9 
REMARK       I    between atoms: C_9  and  N_10 
REMARK    5  A    between atoms: N_10  and  C_11 
REMARK    6  A    between atoms: N_17  and  C_19 
REMARK    7  A    between atoms: C_19  and  C_20 
REMARK    8  A    between atoms: C_27  and  C_28 
REMARK       I    between atoms: C_28  and  N_29 
ROOT
HETATM    1  C   UNL     1       5.349  29.110  55.617  1.00  0.00     0.093 A 
HETATM    2  S   UNL     1       5.562  27.791  56.673  1.00  0.00    -0.074 SA
HETATM    3  C   UNL     1       5.374  26.662  55.433  1.00  0.00     0.018 A 
HETATM    4  C   UNL     1       5.108  27.256  54.216  1.00  0.00    -0.023 A 
HETATM    5  C   UNL     1       4.941  26.429  52.967  1.00  0.00     0.068 C 
HETATM    6  C   UNL     1       4.802  24.923  53.275  1.00  0.00     0.240 C 
HETATM    7  N   UNL     1       5.755  24.458  54.373  1.00  0.00    -0.063 N 
HETATM    8  H   UNL     1       5.536  23.472  54.552  1.00  0.00     0.280 HD
HETATM    9  C   UNL     1       5.484  25.198  55.672  1.00  0.00     0.282 C 
HETATM   10  C   UNL     1       5.055  28.700  54.320  1.00  0.00     0.073 A 
ENDROOT
BRANCH   1  11
HETATM   11  N   UNL     1       5.536  30.412  56.064  1.00  0.00    -0.320 N 
HETATM   12  C   UNL     1       4.704  31.129  56.916  1.00  0.00     0.226 C 
HETATM   13  O   UNL     1       3.597  30.786  57.322  1.00  0.00    -0.273 OA
HETATM   14  H   UNL     1       6.369  30.887  55.730  1.00  0.00     0.169 HD
BRANCH  12  15
HETATM   15  C   UNL     1       5.305  32.463  57.333  1.00  0.00     0.141 C 
BRANCH  15  16
HETATM   16  C   UNL     1       5.615  32.545  58.807  1.00  0.00    -0.049 A 
HETATM   17  C   UNL     1       4.688  33.101  59.699  1.00  0.00     0.009 A 
HETATM   18  C   UNL     1       4.956  33.138  61.071  1.00  0.00     0.019 A 
HETATM   19  C   UNL     1       6.144  32.607  61.577  1.00  0.00     0.001 A 
HETATM   20  C   UNL     1       7.077  32.064  60.689  1.00  0.00     0.019 A 
HETATM   21  C   UNL     1       6.811  32.024  59.317  1.00  0.00     0.009 A 
BRANCH  19  22
HETATM   22  S   UNL     1       6.446  32.691  63.332  1.00  0.00    -0.126 SA
BRANCH  22  23
HETATM   23  C   UNL     1       5.252  33.989  63.856  1.00  0.00     0.044 C 
HETATM   24  C   UNL     1       5.905  35.368  63.853  1.00  0.00     0.021 C 
HETATM   25  C   UNL     1       4.753  33.638  65.256  1.00  0.00     0.021 C 
ENDBRANCH  22  23
ENDBRANCH  19  22
ENDBRANCH  15  16
ENDBRANCH  12  15
ENDBRANCH   1  11
BRANCH  10  26
HETATM   26  C   UNL     1       4.793  29.591  53.190  1.00  0.00     0.252 C 
HETATM   27  N   UNL     1       5.651  29.493  52.130  1.00  0.00    -0.366 N 
HETATM   28  H   UNL     1       6.592  29.147  52.274  1.00  0.00     0.159 HD
HETATM   29  H   UNL     1       5.556  30.228  51.437  1.00  0.00     0.159 HD
HETATM   30  O   UNL     1       3.894  30.422  53.201  1.00  0.00    -0.268 OA
ENDBRANCH  10  26
BRANCH   7  31
HETATM   31  C   UNL     1       7.218  24.482  53.988  1.00  0.00     0.273 C 
BRANCH  31  32
HETATM   32  C   UNL     1       7.849  23.117  54.045  1.00  0.00    -0.033 A 
HETATM   33  C   UNL     1       8.621  22.728  55.149  1.00  0.00     0.009 A 
HETATM   34  C   UNL     1       9.222  21.469  55.182  1.00  0.00     0.001 A 
HETATM   35  C   UNL     1       9.056  20.586  54.116  1.00  0.00     0.000 A 
HETATM   36  C   UNL     1       8.287  20.959  53.017  1.00  0.00     0.001 A 
HETATM   37  C   UNL     1       7.687  22.218  52.978  1.00  0.00     0.009 A 
ENDBRANCH  31  32
ENDBRANCH   7  31
TORSDOF 8
ENDMDL
MODEL 9
REMARK VINA RESULT:      -8.9      4.147      5.708
REMARK  8 active torsions:
REMARK  status: ('A' for Active; 'I' for Inactive)
REMARK    1  A    between atoms: C_2  and  S_3 
REMARK    2  A    between atoms: S_3  and  C_4 
REMARK    3  A    between atoms: C_7  and  C_8 
REMARK    4  A    between atoms: C_8  and  C_9 
REMARK       I    between atoms: C_9  and  N_10 
REMARK    5  A    between atoms: N_10  and  C_11 
REMARK    6  A    between atoms: N_17  and  C_19 
REMARK    7  A    between atoms: C_19  and  C_20 
REMARK    8  A    between atoms: C_27  and  C_28 
REMARK       I    between atoms: C_28  and  N_29 
ROOT
HETATM    1  C   UNL     1       5.047  29.103  54.201  1.00  0.00     0.093 A 
HETATM    2  S   UNL     1       5.054  27.771  55.262  1.00  0.00    -0.074 SA
HETATM    3  C   UNL     1       5.120  26.658  53.996  1.00  0.00     0.018 A 
HETATM    4  C   UNL     1       5.096  27.266  52.758  1.00  0.00    -0.023 A 
HETATM    5  C   UNL     1       5.184  26.455  51.491  1.00  0.00     0.068 C 
HETATM    6  C   UNL     1       4.993  24.945  51.747  1.00  0.00     0.240 C 
HETATM    7  N   UNL     1       5.713  24.468  53.006  1.00  0.00    -0.063 N 
HETATM    8  H   UNL     1       5.468  23.480  53.126  1.00  0.00     0.280 HD
HETATM    9  C   UNL     1       5.187  25.191  54.234  1.00  0.00     0.282 C 
HETATM   10  C   UNL     1       5.017  28.709  52.867  1.00  0.00     0.073 A 
ENDROOT
BRANCH   1  11
HETATM   11  N   UNL     1       5.136  30.399  54.691  1.00  0.00    -0.320 N 
HETATM   12  C   UNL     1       4.227  31.039  55.526  1.00  0.00     0.226 C 
HETATM   13  O   UNL     1       3.127  30.619  55.874  1.00  0.00    -0.273 OA
HETATM   14  H   UNL     1       5.952  30.933  54.407  1.00  0.00     0.169 HD
BRANCH  12  15
HETATM   15  C   UNL     1       4.728  32.394  56.006  1.00  0.00     0.141 C 
BRANCH  15  16
HETATM   16  C   UNL     1       5.275  32.366  57.412  1.00  0.00    -0.049 A 
HETATM   17  C   UNL     1       6.311  31.488  57.756  1.00  0.00     0.009 A 
HETATM   18  C   UNL     1       6.847  31.491  59.047  1.00  0.00     0.019 A 
HETATM   19  C   UNL     1       6.370  32.381  60.011  1.00  0.00     0.001 A 
HETATM   20  C   UNL     1       5.328  33.250  59.676  1.00  0.00     0.019 A 
HETATM   21  C   UNL     1       4.790  33.249  58.385  1.00  0.00     0.009 A 
BRANCH  19  22
HETATM   22  S   UNL     1       7.076  32.338  61.647  1.00  0.00    -0.126 SA
BRANCH  22  23
HETATM   23  C   UNL     1       8.506  31.206  61.408  1.00  0.00     0.044 C 
HETATM   24  C   UNL     1       8.696  30.299  62.622  1.00  0.00     0.021 C 
HETATM   25  C   UNL     1       9.754  32.057  61.178  1.00  0.00     0.021 C 
ENDBRANCH  22  23
ENDBRANCH  19  22
ENDBRANCH  15  16
ENDBRANCH  12  15
ENDBRANCH   1  11
BRANCH  10  26
HETATM   26  C   UNL     1       4.979  29.614  51.718  1.00  0.00     0.252 C 
HETATM   27  N   UNL     1       3.786  30.237  51.477  1.00  0.00    -0.366 N 
HETATM   28  H   UNL     1       2.923  29.814  51.797  1.00  0.00     0.159 HD
HETATM   29  H   UNL     1       3.732  30.722  50.588  1.00  0.00     0.159 HD
HETATM   30  O   UNL     1       5.937  29.772  50.973  1.00  0.00    -0.268 OA
ENDBRANCH  10  26
BRANCH   7  31
HETATM   31  C   UNL     1       7.223  24.500  52.918  1.00  0.00     0.273 C 
BRANCH  31  32
HETATM   32  C   UNL     1       7.858  23.260  53.486  1.00  0.00    -0.033 A 
HETATM   33  C   UNL     1       7.776  22.036  52.806  1.00  0.00     0.009 A 
HETATM   34  C   UNL     1       8.347  20.885  53.353  1.00  0.00     0.001 A 
HETATM   35  C   UNL     1       9.005  20.946  54.579  1.00  0.00     0.000 A 
HETATM   36  C   UNL     1       9.097  22.156  55.261  1.00  0.00     0.001 A 
HETATM   37  C   UNL     1       8.526  23.308  54.720  1.00  0.00     0.009 A 
ENDBRANCH  31  32
ENDBRANCH   7  31
TORSDOF 8
ENDMDL
MODEL 10
REMARK VINA RESULT:      -8.8      2.495      3.733
REMARK  8 active torsions:
REMARK  status: ('A' for Active; 'I' for Inactive)
REMARK    1  A    between atoms: C_2  and  S_3 
REMARK    2  A    between atoms: S_3  and  C_4 
REMARK    3  A    between atoms: C_7  and  C_8 
REMARK    4  A    between atoms: C_8  and  C_9 
REMARK       I    between atoms: C_9  and  N_10 
REMARK    5  A    between atoms: N_10  and  C_11 
REMARK    6  A    between atoms: N_17  and  C_19 
REMARK    7  A    between atoms: C_19  and  C_20 
REMARK    8  A    between atoms: C_27  and  C_28 
REMARK       I    between atoms: C_28  and  N_29 
ROOT
HETATM    1  C   UNL     1       5.062  30.084  55.974  1.00  0.00     0.093 A 
HETATM    2  S   UNL     1       4.267  29.591  54.551  1.00  0.00    -0.074 SA
HETATM    3  C   UNL     1       5.474  28.477  54.164  1.00  0.00     0.018 A 
HETATM    4  C   UNL     1       6.511  28.487  55.074  1.00  0.00    -0.023 A 
HETATM    5  C   UNL     1       7.676  27.541  54.936  1.00  0.00     0.068 C 
HETATM    6  C   UNL     1       7.700  26.838  53.562  1.00  0.00     0.240 C 
HETATM    7  N   UNL     1       6.311  26.405  53.100  1.00  0.00    -0.063 N 
HETATM    8  H   UNL     1       6.425  26.019  52.156  1.00  0.00     0.280 HD
HETATM    9  C   UNL     1       5.392  27.606  52.961  1.00  0.00     0.282 C 
HETATM   10  C   UNL     1       6.295  29.458  56.128  1.00  0.00     0.073 A 
ENDROOT
BRANCH   1  11
HETATM   11  N   UNL     1       4.449  30.960  56.860  1.00  0.00    -0.320 N 
HETATM   12  C   UNL     1       4.640  32.334  56.942  1.00  0.00     0.226 C 
HETATM   13  O   UNL     1       5.475  32.997  56.333  1.00  0.00    -0.273 OA
HETATM   14  H   UNL     1       3.792  30.548  57.518  1.00  0.00     0.169 HD
BRANCH  12  15
HETATM   15  C   UNL     1       3.675  33.001  57.911  1.00  0.00     0.141 C 
BRANCH  15  16
HETATM   16  C   UNL     1       4.091  32.868  59.356  1.00  0.00    -0.049 A 
HETATM   17  C   UNL     1       5.388  33.213  59.758  1.00  0.00     0.009 A 
HETATM   18  C   UNL     1       5.761  33.131  61.103  1.00  0.00     0.019 A 
HETATM   19  C   UNL     1       4.842  32.719  62.070  1.00  0.00     0.001 A 
HETATM   20  C   UNL     1       3.551  32.362  61.671  1.00  0.00     0.019 A 
HETATM   21  C   UNL     1       3.175  32.444  60.327  1.00  0.00     0.009 A 
BRANCH  19  22
HETATM   22  S   UNL     1       5.369  32.617  63.770  1.00  0.00    -0.126 SA
BRANCH  22  23
HETATM   23  C   UNL     1       7.056  33.347  63.684  1.00  0.00     0.044 C 
HETATM   24  C   UNL     1       8.091  32.291  63.306  1.00  0.00     0.021 C 
HETATM   25  C   UNL     1       7.383  33.950  65.049  1.00  0.00     0.021 C 
ENDBRANCH  22  23
ENDBRANCH  19  22
ENDBRANCH  15  16
ENDBRANCH  12  15
ENDBRANCH   1  11
BRANCH  10  26
HETATM   26  C   UNL     1       7.228  29.686  57.231  1.00  0.00     0.252 C 
HETATM   27  N   UNL     1       6.972  29.008  58.390  1.00  0.00    -0.366 N 
HETATM   28  H   UNL     1       6.027  28.707  58.601  1.00  0.00     0.159 HD
HETATM   29  H   UNL     1       7.524  29.306  59.188  1.00  0.00     0.159 HD
HETATM   30  O   UNL     1       8.157  30.479  57.154  1.00  0.00    -0.268 OA
ENDBRANCH  10  26
BRANCH   7  31
HETATM   31  C   UNL     1       5.693  25.294  53.918  1.00  0.00     0.273 C 
BRANCH  31  32
HETATM   32  C   UNL     1       6.611  24.111  54.066  1.00  0.00    -0.033 A 
HETATM   33  C   UNL     1       7.005  23.662  55.335  1.00  0.00     0.009 A 
HETATM   34  C   UNL     1       7.877  22.579  55.462  1.00  0.00     0.001 A 
HETATM   35  C   UNL     1       8.360  21.934  54.325  1.00  0.00     0.000 A 
HETATM   36  C   UNL     1       7.971  22.366  53.060  1.00  0.00     0.001 A 
HETATM   37  C   UNL     1       7.102  23.450  52.929  1.00  0.00     0.009 A 
ENDBRANCH  31  32
ENDBRANCH   7  31
TORSDOF 8
ENDMDL
