MODEL 1
REMARK VINA RESULT:      -9.1      0.000      0.000
REMARK  3 active torsions:
REMARK  status: ('A' for Active; 'I' for Inactive)
REMARK    1  A    between atoms: C_5  and  N_6 
REMARK       I    between atoms: N_6  and  C_7 
REMARK    2  A    between atoms: C_7  and  C_8 
REMARK    3  A    between atoms: C_11  and  N_12 
ROOT
HETATM    1  C   UNL     1       9.017  22.076  54.564  1.00  0.00     0.001 A 
HETATM    2  C   UNL     1       8.356  22.671  53.487  1.00  0.00     0.008 A 
HETATM    3  C   UNL     1       7.409  23.644  53.758  1.00  0.00    -0.043 A 
HETATM    4  C   UNL     1       7.119  24.023  55.079  1.00  0.00    -0.028 A 
HETATM    5  C   UNL     1       6.160  25.198  55.104  1.00  0.00     0.125 C 
HETATM    6  C   UNL     1       5.457  24.921  53.742  1.00  0.00     0.049 C 
HETATM    7  C   UNL     1       6.540  24.379  52.793  1.00  0.00     0.053 C 
HETATM    8  C   UNL     1       4.826  26.012  52.922  1.00  0.00     0.239 C 
HETATM    9  N   UNL     1       5.976  26.645  52.210  1.00  0.00    -0.074 N 
HETATM   10  H   UNL     1       5.709  27.033  51.298  1.00  0.00     0.277 HD
HETATM   11  H   UNL     1       6.243  27.458  52.799  1.00  0.00     0.277 HD
HETATM   12  C   UNL     1       7.101  25.641  52.139  1.00  0.00     0.242 C 
HETATM   13  C   UNL     1       7.771  23.434  56.152  1.00  0.00     0.010 A 
HETATM   14  C   UNL     1       8.724  22.451  55.886  1.00  0.00     0.001 A 
ENDROOT
BRANCH   5  15
HETATM   15  N   UNL     1       7.018  26.360  55.332  1.00  0.00    -0.348 N 
HETATM   16  C   UNL     1       6.668  27.608  55.774  1.00  0.00     0.252 C 
HETATM   17  O   UNL     1       5.532  28.056  55.697  1.00  0.00    -0.268 OA
HETATM   18  H   UNL     1       7.965  26.090  55.584  1.00  0.00     0.163 HD
BRANCH  16  19
HETATM   19  C   UNL     1       7.775  28.456  56.291  1.00  0.00     0.032 A 
HETATM   20  C   UNL     1       7.821  28.867  57.628  1.00  0.00     0.019 A 
HETATM   21  C   UNL     1       8.876  29.670  58.073  1.00  0.00     0.024 A 
HETATM   22  C   UNL     1       9.914  30.033  57.210  1.00  0.00     0.005 A 
HETATM   23  C   UNL     1       9.836  29.649  55.868  1.00  0.00     0.024 A 
HETATM   24  C   UNL     1       8.790  28.841  55.412  1.00  0.00     0.019 A 
BRANCH  22  25
HETATM   25  N   UNL     1      10.881  30.948  57.625  1.00  0.00    -0.303 NA
HETATM   26  H   UNL     1      10.843  31.196  58.610  1.00  0.00     0.124 HD
HETATM   27  H   UNL     1      11.827  30.734  57.324  1.00  0.00     0.124 HD
ENDBRANCH  22  25
ENDBRANCH  16  19
ENDBRANCH   5  15
TORSDOF 3
ENDMDL
MODEL 2
REMARK VINA RESULT:      -8.9      2.528      6.094
REMARK  3 active torsions:
REMARK  status: ('A' for Active; 'I' for Inactive)
REMARK    1  A    between atoms: C_5  and  N_6 
REMARK       I    between atoms: N_6  and  C_7 
REMARK    2  A    between atoms: C_7  and  C_8 
REMARK    3  A    between atoms: C_11  and  N_12 
ROOT
HETATM    1  C   UNL     1       5.957  28.489  57.449  1.00  0.00     0.001 A 
HETATM    2  C   UNL     1       5.153  28.428  56.308  1.00  0.00     0.008 A 
HETATM    3  C   UNL     1       5.733  28.013  55.122  1.00  0.00    -0.043 A 
HETATM    4  C   UNL     1       7.093  27.665  55.064  1.00  0.00    -0.028 A 
HETATM    5  C   UNL     1       7.450  27.113  53.697  1.00  0.00     0.125 C 
HETATM    6  C   UNL     1       6.356  27.861  52.878  1.00  0.00     0.049 C 
HETATM    7  C   UNL     1       5.105  27.918  53.772  1.00  0.00     0.053 C 
HETATM    8  C   UNL     1       5.806  27.324  51.586  1.00  0.00     0.239 C 
HETATM    9  N   UNL     1       4.802  26.303  52.013  1.00  0.00    -0.074 N 
HETATM   10  H   UNL     1       4.029  26.209  51.345  1.00  0.00     0.277 HD
HETATM   11  H   UNL     1       5.311  25.398  51.990  1.00  0.00     0.277 HD
HETATM   12  C   UNL     1       4.357  26.633  53.417  1.00  0.00     0.242 C 
HETATM   13  C   UNL     1       7.896  27.726  56.194  1.00  0.00     0.010 A 
HETATM   14  C   UNL     1       7.318  28.146  57.391  1.00  0.00     0.001 A 
ENDROOT
BRANCH   5  15
HETATM   15  N   UNL     1       7.450  25.662  53.883  1.00  0.00    -0.348 N 
HETATM   16  C   UNL     1       7.809  24.686  52.992  1.00  0.00     0.252 C 
HETATM   17  O   UNL     1       7.838  24.856  51.781  1.00  0.00    -0.268 OA
HETATM   18  H   UNL     1       7.600  25.403  54.854  1.00  0.00     0.163 HD
BRANCH  16  19
HETATM   19  C   UNL     1       8.092  23.344  53.568  1.00  0.00     0.032 A 
HETATM   20  C   UNL     1       8.640  23.195  54.847  1.00  0.00     0.019 A 
HETATM   21  C   UNL     1       8.897  21.915  55.348  1.00  0.00     0.024 A 
HETATM   22  C   UNL     1       8.573  20.776  54.606  1.00  0.00     0.005 A 
HETATM   23  C   UNL     1       8.064  20.939  53.314  1.00  0.00     0.024 A 
HETATM   24  C   UNL     1       7.795  22.213  52.804  1.00  0.00     0.019 A 
BRANCH  22  25
HETATM   25  N   UNL     1       8.965  19.514  55.054  1.00  0.00    -0.303 NA
HETATM   26  H   UNL     1       9.650  19.044  54.469  1.00  0.00     0.124 HD
HETATM   27  H   UNL     1       9.212  19.469  56.038  1.00  0.00     0.124 HD
ENDBRANCH  22  25
ENDBRANCH  16  19
ENDBRANCH   5  15
TORSDOF 3
ENDMDL
MODEL 3
REMARK VINA RESULT:      -8.4      2.882      6.333
REMARK  3 active torsions:
REMARK  status: ('A' for Active; 'I' for Inactive)
REMARK    1  A    between atoms: C_5  and  N_6 
REMARK       I    between atoms: N_6  and  C_7 
REMARK    2  A    between atoms: C_7  and  C_8 
REMARK    3  A    between atoms: C_11  and  N_12 
ROOT
HETATM    1  C   UNL     1       7.481  22.740  54.156  1.00  0.00     0.001 A 
HETATM    2  C   UNL     1       7.016  23.699  55.060  1.00  0.00     0.008 A 
HETATM    3  C   UNL     1       7.040  25.027  54.672  1.00  0.00    -0.043 A 
HETATM    4  C   UNL     1       7.519  25.403  53.406  1.00  0.00    -0.028 A 
HETATM    5  C   UNL     1       7.309  26.887  53.170  1.00  0.00     0.125 C 
HETATM    6  C   UNL     1       7.339  27.341  54.660  1.00  0.00     0.049 C 
HETATM    7  C   UNL     1       6.652  26.228  55.469  1.00  0.00     0.053 C 
HETATM    8  C   UNL     1       6.628  28.576  55.142  1.00  0.00     0.239 C 
HETATM    9  N   UNL     1       5.206  28.144  55.292  1.00  0.00    -0.074 N 
HETATM   10  H   UNL     1       4.716  28.657  56.033  1.00  0.00     0.277 HD
HETATM   11  H   UNL     1       4.746  28.418  54.402  1.00  0.00     0.277 HD
HETATM   12  C   UNL     1       5.182  26.645  55.470  1.00  0.00     0.242 C 
HETATM   13  C   UNL     1       7.984  24.456  52.506  1.00  0.00     0.010 A 
HETATM   14  C   UNL     1       7.966  23.116  52.893  1.00  0.00     0.001 A 
ENDROOT
BRANCH   5  15
HETATM   15  N   UNL     1       6.104  26.954  52.343  1.00  0.00    -0.348 N 
HETATM   16  C   UNL     1       5.669  27.980  51.548  1.00  0.00     0.252 C 
HETATM   17  O   UNL     1       6.029  29.140  51.687  1.00  0.00    -0.268 OA
HETATM   18  H   UNL     1       5.814  26.035  52.019  1.00  0.00     0.163 HD
BRANCH  16  19
HETATM   19  C   UNL     1       4.646  27.630  50.527  1.00  0.00     0.032 A 
HETATM   20  C   UNL     1       3.598  28.501  50.208  1.00  0.00     0.019 A 
HETATM   21  C   UNL     1       2.653  28.130  49.247  1.00  0.00     0.024 A 
HETATM   22  C   UNL     1       2.763  26.916  48.563  1.00  0.00     0.005 A 
HETATM   23  C   UNL     1       3.791  26.037  48.919  1.00  0.00     0.024 A 
HETATM   24  C   UNL     1       4.747  26.399  49.873  1.00  0.00     0.019 A 
BRANCH  22  25
HETATM   25  N   UNL     1       1.739  26.495  47.714  1.00  0.00    -0.303 NA
HETATM   26  H   UNL     1       1.269  25.642  48.000  1.00  0.00     0.124 HD
HETATM   27  H   UNL     1       1.081  27.222  47.449  1.00  0.00     0.124 HD
ENDBRANCH  22  25
ENDBRANCH  16  19
ENDBRANCH   5  15
TORSDOF 3
ENDMDL
MODEL 4
REMARK VINA RESULT:      -8.3      2.027      6.137
REMARK  3 active torsions:
REMARK  status: ('A' for Active; 'I' for Inactive)
REMARK    1  A    between atoms: C_5  and  N_6 
REMARK       I    between atoms: N_6  and  C_7 
REMARK    2  A    between atoms: C_7  and  C_8 
REMARK    3  A    between atoms: C_11  and  N_12 
ROOT
HETATM    1  C   UNL     1       9.105  29.892  58.096  1.00  0.00     0.001 A 
HETATM    2  C   UNL     1       7.713  29.818  58.011  1.00  0.00     0.008 A 
HETATM    3  C   UNL     1       7.154  29.361  56.830  1.00  0.00    -0.043 A 
HETATM    4  C   UNL     1       7.963  28.982  55.746  1.00  0.00    -0.028 A 
HETATM    5  C   UNL     1       7.124  28.387  54.631  1.00  0.00     0.125 C 
HETATM    6  C   UNL     1       5.796  29.137  54.946  1.00  0.00     0.049 C 
HETATM    7  C   UNL     1       5.708  29.244  56.478  1.00  0.00     0.053 C 
HETATM    8  C   UNL     1       4.447  28.579  54.584  1.00  0.00     0.239 C 
HETATM    9  N   UNL     1       4.158  27.592  55.667  1.00  0.00    -0.074 N 
HETATM   10  H   UNL     1       3.153  27.497  55.855  1.00  0.00     0.277 HD
HETATM   11  H   UNL     1       4.465  26.676  55.285  1.00  0.00     0.277 HD
HETATM   12  C   UNL     1       4.972  27.967  56.881  1.00  0.00     0.242 C 
HETATM   13  C   UNL     1       9.346  29.055  55.824  1.00  0.00     0.010 A 
HETATM   14  C   UNL     1       9.914  29.518  57.011  1.00  0.00     0.001 A 
ENDROOT
BRANCH   5  15
HETATM   15  N   UNL     1       7.278  26.941  54.795  1.00  0.00    -0.348 N 
HETATM   16  C   UNL     1       7.092  25.951  53.868  1.00  0.00     0.252 C 
HETATM   17  O   UNL     1       6.414  26.090  52.859  1.00  0.00    -0.268 OA
HETATM   18  H   UNL     1       7.968  26.711  55.505  1.00  0.00     0.163 HD
BRANCH  16  19
HETATM   19  C   UNL     1       7.698  24.631  54.188  1.00  0.00     0.032 A 
HETATM   20  C   UNL     1       7.948  23.678  53.194  1.00  0.00     0.019 A 
HETATM   21  C   UNL     1       8.513  22.446  53.539  1.00  0.00     0.024 A 
HETATM   22  C   UNL     1       8.875  22.167  54.859  1.00  0.00     0.005 A 
HETATM   23  C   UNL     1       8.584  23.112  55.848  1.00  0.00     0.024 A 
HETATM   24  C   UNL     1       8.026  24.350  55.517  1.00  0.00     0.019 A 
BRANCH  22  25
HETATM   25  N   UNL     1       9.303  20.887  55.212  1.00  0.00    -0.303 NA
HETATM   26  H   UNL     1       8.819  20.128  54.741  1.00  0.00     0.124 HD
HETATM   27  H   UNL     1      10.310  20.758  55.206  1.00  0.00     0.124 HD
ENDBRANCH  22  25
ENDBRANCH  16  19
ENDBRANCH   5  15
TORSDOF 3
ENDMDL
MODEL 5
REMARK VINA RESULT:      -7.8      2.296      6.284
REMARK  3 active torsions:
REMARK  status: ('A' for Active; 'I' for Inactive)
REMARK    1  A    between atoms: C_5  and  N_6 
REMARK       I    between atoms: N_6  and  C_7 
REMARK    2  A    between atoms: C_7  and  C_8 
REMARK    3  A    between atoms: C_11  and  N_12 
ROOT
HETATM    1  C   UNL     1       5.396  27.939  51.066  1.00  0.00     0.001 A 
HETATM    2  C   UNL     1       6.074  28.544  52.127  1.00  0.00     0.008 A 
HETATM    3  C   UNL     1       5.959  27.977  53.385  1.00  0.00    -0.043 A 
HETATM    4  C   UNL     1       5.182  26.825  53.591  1.00  0.00    -0.028 A 
HETATM    5  C   UNL     1       5.332  26.323  55.014  1.00  0.00     0.125 C 
HETATM    6  C   UNL     1       5.674  27.688  55.682  1.00  0.00     0.049 C 
HETATM    7  C   UNL     1       6.537  28.464  54.672  1.00  0.00     0.053 C 
HETATM    8  C   UNL     1       6.486  27.788  56.944  1.00  0.00     0.239 C 
HETATM    9  N   UNL     1       7.899  27.649  56.481  1.00  0.00    -0.074 N 
HETATM   10  H   UNL     1       8.560  28.161  57.077  1.00  0.00     0.277 HD
HETATM   11  H   UNL     1       8.125  26.642  56.603  1.00  0.00     0.277 HD
HETATM   12  C   UNL     1       7.962  28.041  55.025  1.00  0.00     0.242 C 
HETATM   13  C   UNL     1       4.505  26.221  52.541  1.00  0.00     0.010 A 
HETATM   14  C   UNL     1       4.614  26.790  51.273  1.00  0.00     0.001 A 
ENDROOT
BRANCH   5  15
HETATM   15  N   UNL     1       6.294  25.226  54.910  1.00  0.00    -0.348 N 
HETATM   16  C   UNL     1       6.739  24.383  55.893  1.00  0.00     0.252 C 
HETATM   17  O   UNL     1       6.679  24.647  57.086  1.00  0.00    -0.268 OA
HETATM   18  H   UNL     1       6.296  24.808  53.983  1.00  0.00     0.163 HD
BRANCH  16  19
HETATM   19  C   UNL     1       7.394  23.129  55.435  1.00  0.00     0.032 A 
HETATM   20  C   UNL     1       7.485  22.801  54.077  1.00  0.00     0.019 A 
HETATM   21  C   UNL     1       8.103  21.608  53.690  1.00  0.00     0.024 A 
HETATM   22  C   UNL     1       8.673  20.755  54.638  1.00  0.00     0.005 A 
HETATM   23  C   UNL     1       8.540  21.073  55.993  1.00  0.00     0.024 A 
HETATM   24  C   UNL     1       7.931  22.266  56.393  1.00  0.00     0.019 A 
BRANCH  22  25
HETATM   25  N   UNL     1       9.157  19.504  54.252  1.00  0.00    -0.303 NA
HETATM   26  H   UNL     1       9.447  19.438  53.281  1.00  0.00     0.124 HD
HETATM   27  H   UNL     1       9.843  19.100  54.883  1.00  0.00     0.124 HD
ENDBRANCH  22  25
ENDBRANCH  16  19
ENDBRANCH   5  15
TORSDOF 3
ENDMDL
MODEL 6
REMARK VINA RESULT:      -7.6      4.437      8.679
REMARK  3 active torsions:
REMARK  status: ('A' for Active; 'I' for Inactive)
REMARK    1  A    between atoms: C_5  and  N_6 
REMARK       I    between atoms: N_6  and  C_7 
REMARK    2  A    between atoms: C_7  and  C_8 
REMARK    3  A    between atoms: C_11  and  N_12 
ROOT
HETATM    1  C   UNL     1       8.356  32.041  62.902  1.00  0.00     0.001 A 
HETATM    2  C   UNL     1       6.985  32.306  62.891  1.00  0.00     0.008 A 
HETATM    3  C   UNL     1       6.361  32.472  61.667  1.00  0.00    -0.043 A 
HETATM    4  C   UNL     1       7.085  32.377  60.467  1.00  0.00    -0.028 A 
HETATM    5  C   UNL     1       6.156  32.454  59.270  1.00  0.00     0.125 C 
HETATM    6  C   UNL     1       5.024  33.290  59.938  1.00  0.00     0.049 C 
HETATM    7  C   UNL     1       4.933  32.812  61.398  1.00  0.00     0.053 C 
HETATM    8  C   UNL     1       3.592  33.217  59.484  1.00  0.00     0.239 C 
HETATM    9  N   UNL     1       3.068  31.975  60.127  1.00  0.00    -0.074 N 
HETATM   10  H   UNL     1       2.064  32.033  60.334  1.00  0.00     0.277 HD
HETATM   11  H   UNL     1       3.169  31.235  59.406  1.00  0.00     0.277 HD
HETATM   12  C   UNL     1       3.921  31.668  61.334  1.00  0.00     0.242 C 
HETATM   13  C   UNL     1       8.447  32.116  60.472  1.00  0.00     0.010 A 
HETATM   14  C   UNL     1       9.082  31.952  61.702  1.00  0.00     0.001 A 
ENDROOT
BRANCH   5  15
HETATM   15  N   UNL     1       5.979  31.060  58.860  1.00  0.00    -0.348 N 
HETATM   16  C   UNL     1       5.896  30.545  57.595  1.00  0.00     0.252 C 
HETATM   17  O   UNL     1       5.590  31.210  56.615  1.00  0.00    -0.268 OA
HETATM   18  H   UNL     1       6.369  30.412  59.540  1.00  0.00     0.163 HD
BRANCH  16  19
HETATM   19  C   UNL     1       6.119  29.080  57.467  1.00  0.00     0.032 A 
HETATM   20  C   UNL     1       5.101  28.216  57.049  1.00  0.00     0.019 A 
HETATM   21  C   UNL     1       5.351  26.844  56.949  1.00  0.00     0.024 A 
HETATM   22  C   UNL     1       6.620  26.325  57.217  1.00  0.00     0.005 A 
HETATM   23  C   UNL     1       7.617  27.193  57.672  1.00  0.00     0.024 A 
HETATM   24  C   UNL     1       7.383  28.567  57.770  1.00  0.00     0.019 A 
BRANCH  22  25
HETATM   25  N   UNL     1       6.818  24.944  57.253  1.00  0.00    -0.303 NA
HETATM   26  H   UNL     1       6.949  24.553  58.181  1.00  0.00     0.124 HD
HETATM   27  H   UNL     1       6.156  24.405  56.703  1.00  0.00     0.124 HD
ENDBRANCH  22  25
ENDBRANCH  16  19
ENDBRANCH   5  15
TORSDOF 3
ENDMDL
MODEL 7
REMARK VINA RESULT:      -7.6     10.399     13.494
REMARK  3 active torsions:
REMARK  status: ('A' for Active; 'I' for Inactive)
REMARK    1  A    between atoms: C_5  and  N_6 
REMARK       I    between atoms: N_6  and  C_7 
REMARK    2  A    between atoms: C_7  and  C_8 
REMARK    3  A    between atoms: C_11  and  N_12 
ROOT
HETATM    1  C   UNL     1       4.271  38.477  62.003  1.00  0.00     0.001 A 
HETATM    2  C   UNL     1       3.447  37.399  61.671  1.00  0.00     0.008 A 
HETATM    3  C   UNL     1       3.978  36.123  61.747  1.00  0.00    -0.043 A 
HETATM    4  C   UNL     1       5.309  35.916  62.146  1.00  0.00    -0.028 A 
HETATM    5  C   UNL     1       5.604  34.435  62.286  1.00  0.00     0.125 C 
HETATM    6  C   UNL     1       4.552  33.915  61.261  1.00  0.00     0.049 C 
HETATM    7  C   UNL     1       3.323  34.829  61.397  1.00  0.00     0.053 C 
HETATM    8  C   UNL     1       3.946  32.542  61.354  1.00  0.00     0.239 C 
HETATM    9  N   UNL     1       2.881  32.682  62.391  1.00  0.00    -0.074 N 
HETATM   10  H   UNL     1       2.092  32.044  62.234  1.00  0.00     0.277 HD
HETATM   11  H   UNL     1       3.326  32.373  63.278  1.00  0.00     0.277 HD
HETATM   12  C   UNL     1       2.482  34.136  62.469  1.00  0.00     0.242 C 
HETATM   13  C   UNL     1       6.132  36.983  62.474  1.00  0.00     0.010 A 
HETATM   14  C   UNL     1       5.603  38.271  62.396  1.00  0.00     0.001 A 
ENDROOT
BRANCH   5  15
HETATM   15  N   UNL     1       5.507  34.181  63.723  1.00  0.00    -0.348 N 
HETATM   16  C   UNL     1       6.504  33.862  64.605  1.00  0.00     0.252 C 
HETATM   17  O   UNL     1       7.575  33.380  64.265  1.00  0.00    -0.268 OA
HETATM   18  H   UNL     1       4.735  34.689  64.147  1.00  0.00     0.163 HD
BRANCH  16  19
HETATM   19  C   UNL     1       6.192  34.054  66.046  1.00  0.00     0.032 A 
HETATM   20  C   UNL     1       7.196  34.307  66.988  1.00  0.00     0.019 A 
HETATM   21  C   UNL     1       6.860  34.474  68.335  1.00  0.00     0.024 A 
HETATM   22  C   UNL     1       5.526  34.437  68.751  1.00  0.00     0.005 A 
HETATM   23  C   UNL     1       4.537  34.144  67.808  1.00  0.00     0.024 A 
HETATM   24  C   UNL     1       4.858  33.982  66.457  1.00  0.00     0.019 A 
BRANCH  22  25
HETATM   25  N   UNL     1       5.217  34.462  70.111  1.00  0.00    -0.303 NA
HETATM   26  H   UNL     1       5.634  35.228  70.632  1.00  0.00     0.124 HD
HETATM   27  H   UNL     1       4.231  34.348  70.326  1.00  0.00     0.124 HD
ENDBRANCH  22  25
ENDBRANCH  16  19
ENDBRANCH   5  15
TORSDOF 3
ENDMDL
MODEL 8
REMARK VINA RESULT:      -7.4      8.262     12.408
REMARK  3 active torsions:
REMARK  status: ('A' for Active; 'I' for Inactive)
REMARK    1  A    between atoms: C_5  and  N_6 
REMARK       I    between atoms: N_6  and  C_7 
REMARK    2  A    between atoms: C_7  and  C_8 
REMARK    3  A    between atoms: C_11  and  N_12 
ROOT
HETATM    1  C   UNL     1       3.007  37.501  61.008  1.00  0.00     0.001 A 
HETATM    2  C   UNL     1       3.387  37.564  62.350  1.00  0.00     0.008 A 
HETATM    3  C   UNL     1       3.546  36.375  63.041  1.00  0.00    -0.043 A 
HETATM    4  C   UNL     1       3.331  35.138  62.410  1.00  0.00    -0.028 A 
HETATM    5  C   UNL     1       3.706  33.992  63.331  1.00  0.00     0.125 C 
HETATM    6  C   UNL     1       3.454  34.721  64.684  1.00  0.00     0.049 C 
HETATM    7  C   UNL     1       3.890  36.182  64.480  1.00  0.00     0.053 C 
HETATM    8  C   UNL     1       4.173  34.343  65.950  1.00  0.00     0.239 C 
HETATM    9  N   UNL     1       5.504  35.010  65.827  1.00  0.00    -0.074 N 
HETATM   10  H   UNL     1       5.899  35.270  66.738  1.00  0.00     0.277 HD
HETATM   11  H   UNL     1       6.135  34.282  65.439  1.00  0.00     0.277 HD
HETATM   12  C   UNL     1       5.368  36.169  64.870  1.00  0.00     0.242 C 
HETATM   13  C   UNL     1       2.951  35.070  61.078  1.00  0.00     0.010 A 
HETATM   14  C   UNL     1       2.785  36.265  60.379  1.00  0.00     0.001 A 
ENDROOT
BRANCH   5  15
HETATM   15  N   UNL     1       5.038  33.589  62.881  1.00  0.00    -0.348 N 
HETATM   16  C   UNL     1       5.545  32.326  62.734  1.00  0.00     0.252 C 
HETATM   17  O   UNL     1       5.086  31.345  63.303  1.00  0.00    -0.268 OA
HETATM   18  H   UNL     1       5.446  34.269  62.245  1.00  0.00     0.163 HD
BRANCH  16  19
HETATM   19  C   UNL     1       6.765  32.202  61.892  1.00  0.00     0.032 A 
HETATM   20  C   UNL     1       8.035  32.043  62.458  1.00  0.00     0.019 A 
HETATM   21  C   UNL     1       9.157  31.938  61.631  1.00  0.00     0.024 A 
HETATM   22  C   UNL     1       9.025  31.944  60.240  1.00  0.00     0.005 A 
HETATM   23  C   UNL     1       7.757  32.143  59.687  1.00  0.00     0.024 A 
HETATM   24  C   UNL     1       6.625  32.243  60.503  1.00  0.00     0.019 A 
BRANCH  22  25
HETATM   25  N   UNL     1      10.160  31.983  59.430  1.00  0.00    -0.303 NA
HETATM   26  H   UNL     1      11.025  31.711  59.889  1.00  0.00     0.124 HD
HETATM   27  H   UNL     1      10.053  31.534  58.525  1.00  0.00     0.124 HD
ENDBRANCH  22  25
ENDBRANCH  16  19
ENDBRANCH   5  15
TORSDOF 3
ENDMDL
MODEL 9
REMARK VINA RESULT:      -7.0      8.012     12.581
REMARK  3 active torsions:
REMARK  status: ('A' for Active; 'I' for Inactive)
REMARK    1  A    between atoms: C_5  and  N_6 
REMARK       I    between atoms: N_6  and  C_7 
REMARK    2  A    between atoms: C_7  and  C_8 
REMARK    3  A    between atoms: C_11  and  N_12 
ROOT
HETATM    1  C   UNL     1       6.470  38.988  63.174  1.00  0.00     0.001 A 
HETATM    2  C   UNL     1       5.929  38.166  64.166  1.00  0.00     0.008 A 
HETATM    3  C   UNL     1       5.175  37.075  63.770  1.00  0.00    -0.043 A 
HETATM    4  C   UNL     1       4.957  36.801  62.410  1.00  0.00    -0.028 A 
HETATM    5  C   UNL     1       4.227  35.483  62.237  1.00  0.00     0.125 C 
HETATM    6  C   UNL     1       3.487  35.473  63.607  1.00  0.00     0.049 C 
HETATM    7  C   UNL     1       4.455  36.091  64.630  1.00  0.00     0.053 C 
HETATM    8  C   UNL     1       3.066  34.200  64.288  1.00  0.00     0.239 C 
HETATM    9  N   UNL     1       4.313  33.709  64.947  1.00  0.00    -0.074 N 
HETATM   10  H   UNL     1       4.122  33.179  65.806  1.00  0.00     0.277 HD
HETATM   11  H   UNL     1       4.722  33.030  64.277  1.00  0.00     0.277 HD
HETATM   12  C   UNL     1       5.237  34.885  65.151  1.00  0.00     0.242 C 
HETATM   13  C   UNL     1       5.490  37.615  61.421  1.00  0.00     0.010 A 
HETATM   14  C   UNL     1       6.248  38.718  61.814  1.00  0.00     0.001 A 
ENDROOT
BRANCH   5  15
HETATM   15  N   UNL     1       5.282  34.528  61.897  1.00  0.00    -0.348 N 
HETATM   16  C   UNL     1       5.160  33.277  61.353  1.00  0.00     0.252 C 
HETATM   17  O   UNL     1       4.132  32.617  61.404  1.00  0.00    -0.268 OA
HETATM   18  H   UNL     1       6.153  34.993  61.658  1.00  0.00     0.163 HD
BRANCH  16  19
HETATM   19  C   UNL     1       6.392  32.702  60.749  1.00  0.00     0.032 A 
HETATM   20  C   UNL     1       7.626  32.757  61.406  1.00  0.00     0.019 A 
HETATM   21  C   UNL     1       8.761  32.210  60.800  1.00  0.00     0.024 A 
HETATM   22  C   UNL     1       8.674  31.565  59.563  1.00  0.00     0.005 A 
HETATM   23  C   UNL     1       7.443  31.552  58.899  1.00  0.00     0.024 A 
HETATM   24  C   UNL     1       6.299  32.090  59.497  1.00  0.00     0.019 A 
BRANCH  22  25
HETATM   25  N   UNL     1       9.833  31.152  58.906  1.00  0.00    -0.303 NA
HETATM   26  H   UNL     1       9.845  30.174  58.631  1.00  0.00     0.124 HD
HETATM   27  H   UNL     1      10.136  31.762  58.152  1.00  0.00     0.124 HD
ENDBRANCH  22  25
ENDBRANCH  16  19
ENDBRANCH   5  15
TORSDOF 3
ENDMDL
MODEL 10
REMARK VINA RESULT:      -6.8      3.706      6.526
REMARK  3 active torsions:
REMARK  status: ('A' for Active; 'I' for Inactive)
REMARK    1  A    between atoms: C_5  and  N_6 
REMARK       I    between atoms: N_6  and  C_7 
REMARK    2  A    between atoms: C_7  and  C_8 
REMARK    3  A    between atoms: C_11  and  N_12 
ROOT
HETATM    1  C   UNL     1       5.350  27.843  47.253  1.00  0.00     0.001 A 
HETATM    2  C   UNL     1       5.340  28.869  48.200  1.00  0.00     0.008 A 
HETATM    3  C   UNL     1       4.789  28.607  49.442  1.00  0.00    -0.043 A 
HETATM    4  C   UNL     1       4.253  27.344  49.744  1.00  0.00    -0.028 A 
HETATM    5  C   UNL     1       3.845  27.267  51.203  1.00  0.00     0.125 C 
HETATM    6  C   UNL     1       3.566  28.784  51.422  1.00  0.00     0.049 C 
HETATM    7  C   UNL     1       4.614  29.544  50.590  1.00  0.00     0.053 C 
HETATM    8  C   UNL     1       3.684  29.441  52.769  1.00  0.00     0.239 C 
HETATM    9  N   UNL     1       5.150  29.677  52.933  1.00  0.00    -0.074 N 
HETATM   10  H   UNL     1       5.353  30.504  53.506  1.00  0.00     0.277 HD
HETATM   11  H   UNL     1       5.495  28.861  53.476  1.00  0.00     0.277 HD
HETATM   12  C   UNL     1       5.780  29.716  51.562  1.00  0.00     0.242 C 
HETATM   13  C   UNL     1       4.259  26.322  48.807  1.00  0.00     0.010 A 
HETATM   14  C   UNL     1       4.809  26.581  47.552  1.00  0.00     0.001 A 
ENDROOT
BRANCH   5  15
HETATM   15  N   UNL     1       4.950  26.562  51.851  1.00  0.00    -0.348 N 
HETATM   16  C   UNL     1       5.085  26.208  53.167  1.00  0.00     0.252 C 
HETATM   17  O   UNL     1       4.471  26.748  54.076  1.00  0.00    -0.268 OA
HETATM   18  H   UNL     1       5.429  25.935  51.209  1.00  0.00     0.163 HD
BRANCH  16  19
HETATM   19  C   UNL     1       6.102  25.164  53.465  1.00  0.00     0.032 A 
HETATM   20  C   UNL     1       6.248  24.627  54.749  1.00  0.00     0.019 A 
HETATM   21  C   UNL     1       7.222  23.653  54.988  1.00  0.00     0.024 A 
HETATM   22  C   UNL     1       8.025  23.171  53.951  1.00  0.00     0.005 A 
HETATM   23  C   UNL     1       7.896  23.744  52.682  1.00  0.00     0.024 A 
HETATM   24  C   UNL     1       6.922  24.714  52.428  1.00  0.00     0.019 A 
BRANCH  22  25
HETATM   25  N   UNL     1       9.084  22.307  54.229  1.00  0.00    -0.303 NA
HETATM   26  H   UNL     1       9.967  22.764  54.438  1.00  0.00     0.124 HD
HETATM   27  H   UNL     1       8.870  21.571  54.896  1.00  0.00     0.124 HD
ENDBRANCH  22  25
ENDBRANCH  16  19
ENDBRANCH   5  15
TORSDOF 3
ENDMDL
