MODEL 1
REMARK VINA RESULT:      -8.4      0.000      0.000
REMARK  7 active torsions:
REMARK  status: ('A' for Active; 'I' for Inactive)
REMARK    1  A    between atoms: C_4  and  C_5 
REMARK    2  A    between atoms: C_9  and  C_10 
REMARK    3  A    between atoms: C_10  and  C_11 
REMARK    4  A    between atoms: C_11  and  C_12 
REMARK    5  A    between atoms: C_12  and  O_13 
REMARK    6  A    between atoms: C_18  and  C_19 
REMARK       I    between atoms: C_19  and  N_20 
REMARK    7  A    between atoms: N_20  and  C_21 
ROOT
HETATM    1  C   UNL     1       4.262  28.024  53.680  1.00  0.00     0.202 A 
HETATM    2  N   UNL     1       3.971  29.331  53.079  1.00  0.00    -0.083 N 
HETATM    3  C   UNL     1       4.136  29.613  51.755  1.00  0.00     0.726 A 
HETATM    4  N   UNL     1       3.692  30.819  51.505  1.00  0.00    -0.046 NA
HETATM    5  C   UNL     1       3.204  31.225  52.725  1.00  0.00     0.166 A 
HETATM    6  N   UNL     1       3.317  30.328  53.715  1.00  0.00    -0.140 NA
HETATM    7  N   UNL     1       4.634  28.669  50.941  1.00  0.00    -0.192 N 
HETATM    8  C   UNL     1       4.899  27.364  51.346  1.00  0.00     0.037 A 
HETATM    9  C   UNL     1       5.334  26.428  50.242  1.00  0.00     0.070 C 
HETATM   10  C   UNL     1       4.731  26.998  52.647  1.00  0.00     0.062 A 
HETATM   11  H   UNL     1       4.723  28.881  49.951  1.00  0.00     0.184 HD
ENDROOT
BRANCH  10  12
HETATM   12  C   UNL     1       5.072  25.603  53.102  1.00  0.00     0.256 C 
HETATM   13  N   UNL     1       6.419  25.347  53.267  1.00  0.00    -0.323 N 
HETATM   14  H   UNL     1       7.079  26.055  52.993  1.00  0.00     0.169 HD
HETATM   15  O   UNL     1       4.174  24.780  53.248  1.00  0.00    -0.267 OA
BRANCH  13  16
HETATM   16  C   UNL     1       7.019  24.142  53.718  1.00  0.00     0.041 A 
HETATM   17  C   UNL     1       7.049  23.874  55.107  1.00  0.00    -0.035 A 
HETATM   18  C   UNL     1       6.520  24.842  56.131  1.00  0.00     0.050 C 
HETATM   19  C   UNL     1       7.624  22.676  55.568  1.00  0.00     0.009 A 
HETATM   20  C   UNL     1       8.157  21.748  54.676  1.00  0.00     0.001 A 
HETATM   21  C   UNL     1       8.124  22.009  53.312  1.00  0.00     0.002 A 
HETATM   22  C   UNL     1       7.560  23.196  52.838  1.00  0.00     0.030 A 
ENDBRANCH  13  16
ENDBRANCH  10  12
BRANCH   1  23
HETATM   23  C   UNL     1       5.195  28.198  54.877  1.00  0.00    -0.028 A 
HETATM   24  C   UNL     1       6.541  28.573  54.728  1.00  0.00     0.016 A 
HETATM   25  C   UNL     1       7.383  28.696  55.843  1.00  0.00    -0.061 A 
HETATM   26  C   UNL     1       8.829  29.062  55.680  1.00  0.00     0.048 C 
HETATM   27  C   UNL     1       6.863  28.469  57.121  1.00  0.00     0.007 A 
HETATM   28  C   UNL     1       5.524  28.129  57.288  1.00  0.00     0.001 A 
HETATM   29  C   UNL     1       4.695  27.996  56.175  1.00  0.00     0.010 A 
ENDBRANCH   1  23
BRANCH   5  30
HETATM   30  C   UNL     1       2.552  32.545  52.916  1.00  0.00     0.085 C 
BRANCH  30  31
HETATM   31  C   UNL     1       2.939  33.226  54.227  1.00  0.00     0.034 C 
BRANCH  31  32
HETATM   32  C   UNL     1       1.783  33.330  55.215  1.00  0.00     0.164 C 
BRANCH  32  33
HETATM   33  O   UNL     1       1.252  32.034  55.472  1.00  0.00    -0.401 OA
HETATM   34  H   UNL     1       2.001  31.414  55.514  1.00  0.00     0.209 HD
ENDBRANCH  32  33
ENDBRANCH  31  32
ENDBRANCH  30  31
ENDBRANCH   5  30
TORSDOF 7
ENDMDL
MODEL 2
REMARK VINA RESULT:      -8.3      4.546      8.547
REMARK  7 active torsions:
REMARK  status: ('A' for Active; 'I' for Inactive)
REMARK    1  A    between atoms: C_4  and  C_5 
REMARK    2  A    between atoms: C_9  and  C_10 
REMARK    3  A    between atoms: C_10  and  C_11 
REMARK    4  A    between atoms: C_11  and  C_12 
REMARK    5  A    between atoms: C_12  and  O_13 
REMARK    6  A    between atoms: C_18  and  C_19 
REMARK       I    between atoms: C_19  and  N_20 
REMARK    7  A    between atoms: N_20  and  C_21 
ROOT
HETATM    1  C   UNL     1       6.629  29.433  57.921  1.00  0.00     0.202 A 
HETATM    2  N   UNL     1       6.757  28.339  56.951  1.00  0.00    -0.083 N 
HETATM    3  C   UNL     1       7.935  27.970  56.371  1.00  0.00     0.726 A 
HETATM    4  N   UNL     1       7.748  26.901  55.640  1.00  0.00    -0.046 NA
HETATM    5  C   UNL     1       6.420  26.614  55.851  1.00  0.00     0.166 A 
HETATM    6  N   UNL     1       5.778  27.447  56.683  1.00  0.00    -0.140 NA
HETATM    7  N   UNL     1       9.050  28.663  56.655  1.00  0.00    -0.192 N 
HETATM    8  C   UNL     1       9.104  29.683  57.599  1.00  0.00     0.037 A 
HETATM    9  C   UNL     1      10.484  30.243  57.857  1.00  0.00     0.070 C 
HETATM   10  C   UNL     1       7.974  30.088  58.243  1.00  0.00     0.062 A 
HETATM   11  H   UNL     1       9.927  28.358  56.240  1.00  0.00     0.184 HD
ENDROOT
BRANCH  10  12
HETATM   12  C   UNL     1       8.016  31.231  59.224  1.00  0.00     0.256 C 
HETATM   13  N   UNL     1       7.363  31.008  60.420  1.00  0.00    -0.323 N 
HETATM   14  H   UNL     1       6.834  30.159  60.528  1.00  0.00     0.169 HD
HETATM   15  O   UNL     1       8.563  32.280  58.903  1.00  0.00    -0.267 OA
BRANCH  13  16
HETATM   16  C   UNL     1       7.275  31.888  61.530  1.00  0.00     0.041 A 
HETATM   17  C   UNL     1       6.260  32.874  61.539  1.00  0.00    -0.035 A 
HETATM   18  C   UNL     1       5.304  33.063  60.391  1.00  0.00     0.050 C 
HETATM   19  C   UNL     1       6.149  33.743  62.640  1.00  0.00     0.009 A 
HETATM   20  C   UNL     1       7.019  33.639  63.723  1.00  0.00     0.001 A 
HETATM   21  C   UNL     1       8.012  32.669  63.717  1.00  0.00     0.002 A 
HETATM   22  C   UNL     1       8.138  31.801  62.629  1.00  0.00     0.030 A 
ENDBRANCH  13  16
ENDBRANCH  10  12
BRANCH   1  23
HETATM   23  C   UNL     1       5.538  30.402  57.471  1.00  0.00    -0.028 A 
HETATM   24  C   UNL     1       5.711  31.268  56.378  1.00  0.00     0.016 A 
HETATM   25  C   UNL     1       4.703  32.169  56.005  1.00  0.00    -0.061 A 
HETATM   26  C   UNL     1       4.902  33.118  54.860  1.00  0.00     0.048 C 
HETATM   27  C   UNL     1       3.499  32.182  56.718  1.00  0.00     0.007 A 
HETATM   28  C   UNL     1       3.300  31.309  57.783  1.00  0.00     0.001 A 
HETATM   29  C   UNL     1       4.311  30.424  58.156  1.00  0.00     0.010 A 
ENDBRANCH   1  23
BRANCH   5  30
HETATM   30  C   UNL     1       5.760  25.432  55.241  1.00  0.00     0.085 C 
BRANCH  30  31
HETATM   31  C   UNL     1       6.172  25.191  53.791  1.00  0.00     0.034 C 
BRANCH  31  32
HETATM   32  C   UNL     1       4.997  24.855  52.880  1.00  0.00     0.164 C 
BRANCH  32  33
HETATM   33  O   UNL     1       3.865  25.639  53.244  1.00  0.00    -0.401 OA
HETATM   34  H   UNL     1       3.436  25.200  53.999  1.00  0.00     0.209 HD
ENDBRANCH  32  33
ENDBRANCH  31  32
ENDBRANCH  30  31
ENDBRANCH   5  30
TORSDOF 7
ENDMDL
MODEL 3
REMARK VINA RESULT:      -8.2      6.775      9.353
REMARK  7 active torsions:
REMARK  status: ('A' for Active; 'I' for Inactive)
REMARK    1  A    between atoms: C_4  and  C_5 
REMARK    2  A    between atoms: C_9  and  C_10 
REMARK    3  A    between atoms: C_10  and  C_11 
REMARK    4  A    between atoms: C_11  and  C_12 
REMARK    5  A    between atoms: C_12  and  O_13 
REMARK    6  A    between atoms: C_18  and  C_19 
REMARK       I    between atoms: C_19  and  N_20 
REMARK    7  A    between atoms: N_20  and  C_21 
ROOT
HETATM    1  C   UNL     1       6.260  32.987  60.843  1.00  0.00     0.202 A 
HETATM    2  N   UNL     1       5.522  33.108  62.106  1.00  0.00    -0.083 N 
HETATM    3  C   UNL     1       5.840  32.424  63.243  1.00  0.00     0.726 A 
HETATM    4  N   UNL     1       5.073  32.823  64.224  1.00  0.00    -0.046 NA
HETATM    5  C   UNL     1       4.320  33.815  63.641  1.00  0.00     0.166 A 
HETATM    6  N   UNL     1       4.588  34.054  62.349  1.00  0.00    -0.140 NA
HETATM    7  N   UNL     1       6.858  31.548  63.216  1.00  0.00    -0.192 N 
HETATM    8  C   UNL     1       7.690  31.367  62.116  1.00  0.00     0.037 A 
HETATM    9  C   UNL     1       8.852  30.426  62.341  1.00  0.00     0.070 C 
HETATM   10  C   UNL     1       7.454  32.037  60.954  1.00  0.00     0.062 A 
HETATM   11  H   UNL     1       7.104  31.067  64.077  1.00  0.00     0.184 HD
ENDROOT
BRANCH  10  12
HETATM   12  C   UNL     1       8.318  31.801  59.742  1.00  0.00     0.256 C 
HETATM   13  N   UNL     1       8.118  30.595  59.099  1.00  0.00    -0.323 N 
HETATM   14  H   UNL     1       7.494  29.926  59.518  1.00  0.00     0.169 HD
HETATM   15  O   UNL     1       9.159  32.636  59.430  1.00  0.00    -0.267 OA
BRANCH  13  16
HETATM   16  C   UNL     1       8.760  30.129  57.923  1.00  0.00     0.041 A 
HETATM   17  C   UNL     1       7.963  29.678  56.844  1.00  0.00    -0.035 A 
HETATM   18  C   UNL     1       6.460  29.621  56.916  1.00  0.00     0.050 C 
HETATM   19  C   UNL     1       8.585  29.229  55.665  1.00  0.00     0.009 A 
HETATM   20  C   UNL     1       9.972  29.230  55.542  1.00  0.00     0.001 A 
HETATM   21  C   UNL     1      10.755  29.676  56.599  1.00  0.00     0.002 A 
HETATM   22  C   UNL     1      10.153  30.121  57.779  1.00  0.00     0.030 A 
ENDBRANCH  13  16
ENDBRANCH  10  12
BRANCH   1  23
HETATM   23  C   UNL     1       5.293  32.667  59.705  1.00  0.00    -0.028 A 
HETATM   24  C   UNL     1       5.305  33.376  58.491  1.00  0.00     0.016 A 
HETATM   25  C   UNL     1       4.386  33.080  57.474  1.00  0.00    -0.061 A 
HETATM   26  C   UNL     1       4.376  33.861  56.193  1.00  0.00     0.048 C 
HETATM   27  C   UNL     1       3.464  32.045  57.665  1.00  0.00     0.007 A 
HETATM   28  C   UNL     1       3.461  31.312  58.849  1.00  0.00     0.001 A 
HETATM   29  C   UNL     1       4.369  31.619  59.861  1.00  0.00     0.010 A 
ENDBRANCH   1  23
BRANCH   5  30
HETATM   30  C   UNL     1       3.316  34.599  64.405  1.00  0.00     0.085 C 
BRANCH  30  31
HETATM   31  C   UNL     1       3.884  35.883  65.005  1.00  0.00     0.034 C 
BRANCH  31  32
HETATM   32  C   UNL     1       3.707  35.969  66.517  1.00  0.00     0.164 C 
BRANCH  32  33
HETATM   33  O   UNL     1       2.496  35.324  66.898  1.00  0.00    -0.401 OA
HETATM   34  H   UNL     1       1.771  35.752  66.411  1.00  0.00     0.209 HD
ENDBRANCH  32  33
ENDBRANCH  31  32
ENDBRANCH  30  31
ENDBRANCH   5  30
TORSDOF 7
ENDMDL
MODEL 4
REMARK VINA RESULT:      -8.0      2.976      6.194
REMARK  7 active torsions:
REMARK  status: ('A' for Active; 'I' for Inactive)
REMARK    1  A    between atoms: C_4  and  C_5 
REMARK    2  A    between atoms: C_9  and  C_10 
REMARK    3  A    between atoms: C_10  and  C_11 
REMARK    4  A    between atoms: C_11  and  C_12 
REMARK    5  A    between atoms: C_12  and  O_13 
REMARK    6  A    between atoms: C_18  and  C_19 
REMARK       I    between atoms: C_19  and  N_20 
REMARK    7  A    between atoms: N_20  and  C_21 
ROOT
HETATM    1  C   UNL     1       6.044  28.974  55.096  1.00  0.00     0.202 A 
HETATM    2  N   UNL     1       6.811  28.901  56.345  1.00  0.00    -0.083 N 
HETATM    3  C   UNL     1       7.195  27.732  56.936  1.00  0.00     0.726 A 
HETATM    4  N   UNL     1       7.953  27.992  57.970  1.00  0.00    -0.046 NA
HETATM    5  C   UNL     1       8.053  29.363  57.940  1.00  0.00     0.166 A 
HETATM    6  N   UNL     1       7.400  29.965  56.935  1.00  0.00    -0.140 NA
HETATM    7  N   UNL     1       6.821  26.567  56.384  1.00  0.00    -0.192 N 
HETATM    8  C   UNL     1       6.147  26.470  55.170  1.00  0.00     0.037 A 
HETATM    9  C   UNL     1       5.936  25.060  54.667  1.00  0.00     0.070 C 
HETATM   10  C   UNL     1       5.757  27.593  54.506  1.00  0.00     0.062 A 
HETATM   11  H   UNL     1       7.139  25.703  56.816  1.00  0.00     0.184 HD
ENDROOT
BRANCH  10  12
HETATM   12  C   UNL     1       4.976  27.493  53.221  1.00  0.00     0.256 C 
HETATM   13  N   UNL     1       5.719  27.637  52.065  1.00  0.00    -0.323 N 
HETATM   14  H   UNL     1       6.690  27.885  52.147  1.00  0.00     0.169 HD
HETATM   15  O   UNL     1       3.759  27.347  53.265  1.00  0.00    -0.267 OA
BRANCH  13  16
HETATM   16  C   UNL     1       5.254  27.552  50.727  1.00  0.00     0.041 A 
HETATM   17  C   UNL     1       5.192  28.733  49.951  1.00  0.00    -0.035 A 
HETATM   18  C   UNL     1       5.547  30.087  50.506  1.00  0.00     0.050 C 
HETATM   19  C   UNL     1       4.750  28.662  48.617  1.00  0.00     0.009 A 
HETATM   20  C   UNL     1       4.380  27.445  48.049  1.00  0.00     0.001 A 
HETATM   21  C   UNL     1       4.445  26.285  48.810  1.00  0.00     0.002 A 
HETATM   22  C   UNL     1       4.878  26.338  50.137  1.00  0.00     0.030 A 
ENDBRANCH  13  16
ENDBRANCH  10  12
BRANCH   1  23
HETATM   23  C   UNL     1       4.811  29.853  55.295  1.00  0.00    -0.028 A 
HETATM   24  C   UNL     1       4.369  30.757  54.313  1.00  0.00     0.016 A 
HETATM   25  C   UNL     1       3.250  31.573  54.535  1.00  0.00    -0.061 A 
HETATM   26  C   UNL     1       2.801  32.562  53.501  1.00  0.00     0.048 C 
HETATM   27  C   UNL     1       2.550  31.461  55.741  1.00  0.00     0.007 A 
HETATM   28  C   UNL     1       2.955  30.548  56.711  1.00  0.00     0.001 A 
HETATM   29  C   UNL     1       4.076  29.748  56.489  1.00  0.00     0.010 A 
ENDBRANCH   1  23
BRANCH   5  30
HETATM   30  C   UNL     1       8.871  30.117  58.924  1.00  0.00     0.085 C 
BRANCH  30  31
HETATM   31  C   UNL     1       9.964  30.965  58.277  1.00  0.00     0.034 C 
BRANCH  31  32
HETATM   32  C   UNL     1      10.885  30.164  57.363  1.00  0.00     0.164 C 
BRANCH  32  33
HETATM   33  O   UNL     1      10.531  30.392  56.003  1.00  0.00    -0.401 OA
HETATM   34  H   UNL     1       9.675  29.957  55.847  1.00  0.00     0.209 HD
ENDBRANCH  32  33
ENDBRANCH  31  32
ENDBRANCH  30  31
ENDBRANCH   5  30
TORSDOF 7
ENDMDL
MODEL 5
REMARK VINA RESULT:      -7.6      2.326      3.988
REMARK  7 active torsions:
REMARK  status: ('A' for Active; 'I' for Inactive)
REMARK    1  A    between atoms: C_4  and  C_5 
REMARK    2  A    between atoms: C_9  and  C_10 
REMARK    3  A    between atoms: C_10  and  C_11 
REMARK    4  A    between atoms: C_11  and  C_12 
REMARK    5  A    between atoms: C_12  and  O_13 
REMARK    6  A    between atoms: C_18  and  C_19 
REMARK       I    between atoms: C_19  and  N_20 
REMARK    7  A    between atoms: N_20  and  C_21 
ROOT
HETATM    1  C   UNL     1       5.694  28.394  54.730  1.00  0.00     0.202 A 
HETATM    2  N   UNL     1       5.281  29.491  55.613  1.00  0.00    -0.083 N 
HETATM    3  C   UNL     1       4.808  29.312  56.880  1.00  0.00     0.726 A 
HETATM    4  N   UNL     1       4.630  30.476  57.450  1.00  0.00    -0.046 NA
HETATM    5  C   UNL     1       5.069  31.358  56.491  1.00  0.00     0.166 A 
HETATM    6  N   UNL     1       5.517  30.797  55.358  1.00  0.00    -0.140 NA
HETATM    7  N   UNL     1       4.659  28.064  57.353  1.00  0.00    -0.192 N 
HETATM    8  C   UNL     1       5.063  26.925  56.663  1.00  0.00     0.037 A 
HETATM    9  C   UNL     1       4.922  25.630  57.429  1.00  0.00     0.070 C 
HETATM   10  C   UNL     1       5.573  27.026  55.404  1.00  0.00     0.062 A 
HETATM   11  H   UNL     1       4.334  27.944  58.309  1.00  0.00     0.184 HD
ENDROOT
BRANCH  10  12
HETATM   12  C   UNL     1       5.958  25.791  54.630  1.00  0.00     0.256 C 
HETATM   13  N   UNL     1       7.157  25.212  54.998  1.00  0.00    -0.323 N 
HETATM   14  H   UNL     1       7.731  25.686  55.675  1.00  0.00     0.169 HD
HETATM   15  O   UNL     1       5.240  25.407  53.713  1.00  0.00    -0.267 OA
BRANCH  13  16
HETATM   16  C   UNL     1       7.742  24.033  54.470  1.00  0.00     0.041 A 
HETATM   17  C   UNL     1       8.414  23.152  55.350  1.00  0.00    -0.035 A 
HETATM   18  C   UNL     1       8.581  23.444  56.817  1.00  0.00     0.050 C 
HETATM   19  C   UNL     1       8.984  21.969  54.844  1.00  0.00     0.009 A 
HETATM   20  C   UNL     1       8.889  21.652  53.491  1.00  0.00     0.001 A 
HETATM   21  C   UNL     1       8.227  22.513  52.628  1.00  0.00     0.002 A 
HETATM   22  C   UNL     1       7.658  23.694  53.113  1.00  0.00     0.030 A 
ENDBRANCH  13  16
ENDBRANCH  10  12
BRANCH   1  23
HETATM   23  C   UNL     1       4.976  28.510  53.387  1.00  0.00    -0.028 A 
HETATM   24  C   UNL     1       5.674  28.594  52.170  1.00  0.00     0.016 A 
HETATM   25  C   UNL     1       4.990  28.730  50.954  1.00  0.00    -0.061 A 
HETATM   26  C   UNL     1       5.737  28.856  49.659  1.00  0.00     0.048 C 
HETATM   27  C   UNL     1       3.591  28.753  50.955  1.00  0.00     0.007 A 
HETATM   28  C   UNL     1       2.884  28.637  52.148  1.00  0.00     0.001 A 
HETATM   29  C   UNL     1       3.571  28.515  53.356  1.00  0.00     0.010 A 
ENDBRANCH   1  23
BRANCH   5  30
HETATM   30  C   UNL     1       5.093  32.825  56.717  1.00  0.00     0.085 C 
BRANCH  30  31
HETATM   31  C   UNL     1       3.716  33.411  57.025  1.00  0.00     0.034 C 
BRANCH  31  32
HETATM   32  C   UNL     1       3.508  33.712  58.505  1.00  0.00     0.164 C 
BRANCH  32  33
HETATM   33  O   UNL     1       3.047  32.542  59.174  1.00  0.00    -0.401 OA
HETATM   34  H   UNL     1       3.768  32.228  59.746  1.00  0.00     0.209 HD
ENDBRANCH  32  33
ENDBRANCH  31  32
ENDBRANCH  30  31
ENDBRANCH   5  30
TORSDOF 7
ENDMDL
MODEL 6
REMARK VINA RESULT:      -7.6      2.719      6.242
REMARK  7 active torsions:
REMARK  status: ('A' for Active; 'I' for Inactive)
REMARK    1  A    between atoms: C_4  and  C_5 
REMARK    2  A    between atoms: C_9  and  C_10 
REMARK    3  A    between atoms: C_10  and  C_11 
REMARK    4  A    between atoms: C_11  and  C_12 
REMARK    5  A    between atoms: C_12  and  O_13 
REMARK    6  A    between atoms: C_18  and  C_19 
REMARK       I    between atoms: C_19  and  N_20 
REMARK    7  A    between atoms: N_20  and  C_21 
ROOT
HETATM    1  C   UNL     1       5.924  28.398  54.325  1.00  0.00     0.202 A 
HETATM    2  N   UNL     1       5.276  28.331  53.010  1.00  0.00    -0.083 N 
HETATM    3  C   UNL     1       4.095  28.944  52.711  1.00  0.00     0.726 A 
HETATM    4  N   UNL     1       3.833  28.793  51.438  1.00  0.00    -0.046 NA
HETATM    5  C   UNL     1       4.934  28.111  50.977  1.00  0.00     0.166 A 
HETATM    6  N   UNL     1       5.869  27.839  51.899  1.00  0.00    -0.140 NA
HETATM    7  N   UNL     1       3.445  29.618  53.674  1.00  0.00    -0.192 N 
HETATM    8  C   UNL     1       3.958  29.824  54.950  1.00  0.00     0.037 A 
HETATM    9  C   UNL     1       3.122  30.718  55.838  1.00  0.00     0.070 C 
HETATM   10  C   UNL     1       5.147  29.268  55.314  1.00  0.00     0.062 A 
HETATM   11  H   UNL     1       2.582  30.096  53.430  1.00  0.00     0.184 HD
ENDROOT
BRANCH  10  12
HETATM   12  C   UNL     1       5.678  29.440  56.714  1.00  0.00     0.256 C 
HETATM   13  N   UNL     1       6.688  30.372  56.853  1.00  0.00    -0.323 N 
HETATM   14  H   UNL     1       7.063  30.801  56.023  1.00  0.00     0.169 HD
HETATM   15  O   UNL     1       5.241  28.734  57.616  1.00  0.00    -0.267 OA
BRANCH  13  16
HETATM   16  C   UNL     1       7.342  30.762  58.050  1.00  0.00     0.041 A 
HETATM   17  C   UNL     1       8.630  30.243  58.323  1.00  0.00    -0.035 A 
HETATM   18  C   UNL     1       9.312  29.250  57.420  1.00  0.00     0.050 C 
HETATM   19  C   UNL     1       9.299  30.634  59.498  1.00  0.00     0.009 A 
HETATM   20  C   UNL     1       8.713  31.528  60.391  1.00  0.00     0.001 A 
HETATM   21  C   UNL     1       7.451  32.041  60.121  1.00  0.00     0.002 A 
HETATM   22  C   UNL     1       6.772  31.660  58.961  1.00  0.00     0.030 A 
ENDBRANCH  13  16
ENDBRANCH  10  12
BRANCH   1  23
HETATM   23  C   UNL     1       6.236  26.988  54.823  1.00  0.00    -0.028 A 
HETATM   24  C   UNL     1       7.265  26.730  55.745  1.00  0.00     0.016 A 
HETATM   25  C   UNL     1       7.549  25.421  56.162  1.00  0.00    -0.061 A 
HETATM   26  C   UNL     1       8.670  25.143  57.119  1.00  0.00     0.048 C 
HETATM   27  C   UNL     1       6.774  24.364  55.673  1.00  0.00     0.007 A 
HETATM   28  C   UNL     1       5.730  24.606  54.784  1.00  0.00     0.001 A 
HETATM   29  C   UNL     1       5.461  25.908  54.364  1.00  0.00     0.010 A 
ENDBRANCH   1  23
BRANCH   5  30
HETATM   30  C   UNL     1       5.098  27.749  49.546  1.00  0.00     0.085 C 
BRANCH  30  31
HETATM   31  C   UNL     1       4.438  26.422  49.179  1.00  0.00     0.034 C 
BRANCH  31  32
HETATM   32  C   UNL     1       3.143  26.591  48.394  1.00  0.00     0.164 C 
BRANCH  32  33
HETATM   33  O   UNL     1       2.187  27.290  49.186  1.00  0.00    -0.401 OA
HETATM   34  H   UNL     1       1.320  26.874  49.032  1.00  0.00     0.209 HD
ENDBRANCH  32  33
ENDBRANCH  31  32
ENDBRANCH  30  31
ENDBRANCH   5  30
TORSDOF 7
ENDMDL
MODEL 7
REMARK VINA RESULT:      -7.6      3.060      5.327
REMARK  7 active torsions:
REMARK  status: ('A' for Active; 'I' for Inactive)
REMARK    1  A    between atoms: C_4  and  C_5 
REMARK    2  A    between atoms: C_9  and  C_10 
REMARK    3  A    between atoms: C_10  and  C_11 
REMARK    4  A    between atoms: C_11  and  C_12 
REMARK    5  A    between atoms: C_12  and  O_13 
REMARK    6  A    between atoms: C_18  and  C_19 
REMARK       I    between atoms: C_19  and  N_20 
REMARK    7  A    between atoms: N_20  and  C_21 
ROOT
HETATM    1  C   UNL     1       5.401  28.664  50.398  1.00  0.00     0.202 A 
HETATM    2  N   UNL     1       5.225  30.094  50.118  1.00  0.00    -0.083 N 
HETATM    3  C   UNL     1       4.887  31.019  51.061  1.00  0.00     0.726 A 
HETATM    4  N   UNL     1       4.912  32.215  50.531  1.00  0.00    -0.046 NA
HETATM    5  C   UNL     1       5.335  31.972  49.246  1.00  0.00     0.166 A 
HETATM    6  N   UNL     1       5.578  30.686  48.955  1.00  0.00    -0.140 NA
HETATM    7  N   UNL     1       4.651  30.614  52.320  1.00  0.00    -0.192 N 
HETATM    8  C   UNL     1       4.836  29.306  52.756  1.00  0.00     0.037 A 
HETATM    9  C   UNL     1       4.638  29.093  54.240  1.00  0.00     0.070 C 
HETATM   10  C   UNL     1       5.203  28.331  51.878  1.00  0.00     0.062 A 
HETATM   11  H   UNL     1       4.430  31.317  53.020  1.00  0.00     0.184 HD
ENDROOT
BRANCH  10  12
HETATM   12  C   UNL     1       5.348  26.903  52.334  1.00  0.00     0.256 C 
HETATM   13  N   UNL     1       6.627  26.524  52.696  1.00  0.00    -0.323 N 
HETATM   14  H   UNL     1       7.379  27.176  52.550  1.00  0.00     0.169 HD
HETATM   15  O   UNL     1       4.372  26.161  52.312  1.00  0.00    -0.267 OA
BRANCH  13  16
HETATM   16  C   UNL     1       7.043  25.262  53.193  1.00  0.00     0.041 A 
HETATM   17  C   UNL     1       6.840  24.969  54.563  1.00  0.00    -0.035 A 
HETATM   18  C   UNL     1       6.250  25.964  55.526  1.00  0.00     0.050 C 
HETATM   19  C   UNL     1       7.232  23.716  55.067  1.00  0.00     0.009 A 
HETATM   20  C   UNL     1       7.810  22.759  54.236  1.00  0.00     0.001 A 
HETATM   21  C   UNL     1       8.006  23.045  52.892  1.00  0.00     0.002 A 
HETATM   22  C   UNL     1       7.625  24.286  52.375  1.00  0.00     0.030 A 
ENDBRANCH  13  16
ENDBRANCH  10  12
BRANCH   1  23
HETATM   23  C   UNL     1       4.548  27.837  49.438  1.00  0.00    -0.028 A 
HETATM   24  C   UNL     1       3.176  28.083  49.254  1.00  0.00     0.016 A 
HETATM   25  C   UNL     1       2.411  27.289  48.388  1.00  0.00    -0.061 A 
HETATM   26  C   UNL     1       0.940  27.530  48.219  1.00  0.00     0.048 C 
HETATM   27  C   UNL     1       3.033  26.256  47.679  1.00  0.00     0.007 A 
HETATM   28  C   UNL     1       4.397  26.020  47.825  1.00  0.00     0.001 A 
HETATM   29  C   UNL     1       5.150  26.805  48.697  1.00  0.00     0.010 A 
ENDBRANCH   1  23
BRANCH   5  30
HETATM   30  C   UNL     1       5.554  33.066  48.266  1.00  0.00     0.085 C 
BRANCH  30  31
HETATM   31  C   UNL     1       6.954  33.671  48.340  1.00  0.00     0.034 C 
BRANCH  31  32
HETATM   32  C   UNL     1       6.983  35.040  49.010  1.00  0.00     0.164 C 
BRANCH  32  33
HETATM   33  O   UNL     1       6.614  34.913  50.380  1.00  0.00    -0.401 OA
HETATM   34  H   UNL     1       7.304  34.389  50.822  1.00  0.00     0.209 HD
ENDBRANCH  32  33
ENDBRANCH  31  32
ENDBRANCH  30  31
ENDBRANCH   5  30
TORSDOF 7
ENDMDL
MODEL 8
REMARK VINA RESULT:      -7.5      2.110      7.507
REMARK  7 active torsions:
REMARK  status: ('A' for Active; 'I' for Inactive)
REMARK    1  A    between atoms: C_4  and  C_5 
REMARK    2  A    between atoms: C_9  and  C_10 
REMARK    3  A    between atoms: C_10  and  C_11 
REMARK    4  A    between atoms: C_11  and  C_12 
REMARK    5  A    between atoms: C_12  and  O_13 
REMARK    6  A    between atoms: C_18  and  C_19 
REMARK       I    between atoms: C_19  and  N_20 
REMARK    7  A    between atoms: N_20  and  C_21 
ROOT
HETATM    1  C   UNL     1       6.883  26.678  53.571  1.00  0.00     0.202 A 
HETATM    2  N   UNL     1       7.208  25.258  53.750  1.00  0.00    -0.083 N 
HETATM    3  C   UNL     1       6.695  24.257  52.978  1.00  0.00     0.726 A 
HETATM    4  N   UNL     1       7.253  23.120  53.308  1.00  0.00    -0.046 NA
HETATM    5  C   UNL     1       8.162  23.492  54.270  1.00  0.00     0.166 A 
HETATM    6  N   UNL     1       8.199  24.803  54.548  1.00  0.00    -0.140 NA
HETATM    7  N   UNL     1       5.803  24.559  52.021  1.00  0.00    -0.192 N 
HETATM    8  C   UNL     1       5.441  25.861  51.688  1.00  0.00     0.037 A 
HETATM    9  C   UNL     1       4.520  25.983  50.496  1.00  0.00     0.070 C 
HETATM   10  C   UNL     1       5.935  26.916  52.394  1.00  0.00     0.062 A 
HETATM   11  H   UNL     1       5.451  23.808  51.433  1.00  0.00     0.184 HD
ENDROOT
BRANCH  10  12
HETATM   12  C   UNL     1       5.502  28.323  52.075  1.00  0.00     0.256 C 
HETATM   13  N   UNL     1       4.216  28.648  52.461  1.00  0.00    -0.323 N 
HETATM   14  H   UNL     1       3.629  27.922  52.836  1.00  0.00     0.169 HD
HETATM   15  O   UNL     1       6.265  29.065  51.466  1.00  0.00    -0.267 OA
BRANCH  13  16
HETATM   16  C   UNL     1       3.565  29.901  52.320  1.00  0.00     0.041 A 
HETATM   17  C   UNL     1       3.493  30.761  53.442  1.00  0.00    -0.035 A 
HETATM   18  C   UNL     1       4.030  30.376  54.794  1.00  0.00     0.050 C 
HETATM   19  C   UNL     1       2.865  32.014  53.314  1.00  0.00     0.009 A 
HETATM   20  C   UNL     1       2.322  32.421  52.098  1.00  0.00     0.001 A 
HETATM   21  C   UNL     1       2.396  31.579  50.996  1.00  0.00     0.002 A 
HETATM   22  C   UNL     1       3.012  30.330  51.107  1.00  0.00     0.030 A 
ENDBRANCH  13  16
ENDBRANCH  10  12
BRANCH   1  23
HETATM   23  C   UNL     1       6.417  27.275  54.897  1.00  0.00    -0.028 A 
HETATM   24  C   UNL     1       7.106  28.325  55.529  1.00  0.00     0.016 A 
HETATM   25  C   UNL     1       6.672  28.834  56.761  1.00  0.00    -0.061 A 
HETATM   26  C   UNL     1       7.428  29.931  57.451  1.00  0.00     0.048 C 
HETATM   27  C   UNL     1       5.520  28.305  57.353  1.00  0.00     0.007 A 
HETATM   28  C   UNL     1       4.808  27.287  56.724  1.00  0.00     0.001 A 
HETATM   29  C   UNL     1       5.251  26.777  55.505  1.00  0.00     0.010 A 
ENDBRANCH   1  23
BRANCH   5  30
HETATM   30  C   UNL     1       9.073  22.514  54.917  1.00  0.00     0.085 C 
BRANCH  30  31
HETATM   31  C   UNL     1       8.354  21.271  55.437  1.00  0.00     0.034 C 
BRANCH  31  32
HETATM   32  C   UNL     1       8.713  20.004  54.670  1.00  0.00     0.164 C 
BRANCH  32  33
HETATM   33  O   UNL     1       8.331  20.143  53.304  1.00  0.00    -0.401 OA
HETATM   34  H   UNL     1       8.495  21.067  53.047  1.00  0.00     0.209 HD
ENDBRANCH  32  33
ENDBRANCH  31  32
ENDBRANCH  30  31
ENDBRANCH   5  30
TORSDOF 7
ENDMDL
MODEL 9
REMARK VINA RESULT:      -7.3      3.432      5.613
REMARK  7 active torsions:
REMARK  status: ('A' for Active; 'I' for Inactive)
REMARK    1  A    between atoms: C_4  and  C_5 
REMARK    2  A    between atoms: C_9  and  C_10 
REMARK    3  A    between atoms: C_10  and  C_11 
REMARK    4  A    between atoms: C_11  and  C_12 
REMARK    5  A    between atoms: C_12  and  O_13 
REMARK    6  A    between atoms: C_18  and  C_19 
REMARK       I    between atoms: C_19  and  N_20 
REMARK    7  A    between atoms: N_20  and  C_21 
ROOT
HETATM    1  C   UNL     1       5.317  29.034  51.028  1.00  0.00     0.202 A 
HETATM    2  N   UNL     1       5.169  30.449  50.669  1.00  0.00    -0.083 N 
HETATM    3  C   UNL     1       4.727  31.411  51.529  1.00  0.00     0.726 A 
HETATM    4  N   UNL     1       4.807  32.584  50.955  1.00  0.00    -0.046 NA
HETATM    5  C   UNL     1       5.368  32.290  49.735  1.00  0.00     0.166 A 
HETATM    6  N   UNL     1       5.645  30.995  49.528  1.00  0.00    -0.140 NA
HETATM    7  N   UNL     1       4.357  31.058  52.771  1.00  0.00    -0.192 N 
HETATM    8  C   UNL     1       4.497  29.771  53.281  1.00  0.00     0.037 A 
HETATM    9  C   UNL     1       4.138  29.619  54.741  1.00  0.00     0.070 C 
HETATM   10  C   UNL     1       4.960  28.763  52.490  1.00  0.00     0.062 A 
HETATM   11  H   UNL     1       4.058  31.788  53.413  1.00  0.00     0.184 HD
ENDROOT
BRANCH  10  12
HETATM   12  C   UNL     1       5.059  27.355  53.019  1.00  0.00     0.256 C 
HETATM   13  N   UNL     1       6.294  26.999  53.526  1.00  0.00    -0.323 N 
HETATM   14  H   UNL     1       7.057  27.647  53.429  1.00  0.00     0.169 HD
HETATM   15  O   UNL     1       4.090  26.609  52.930  1.00  0.00    -0.267 OA
BRANCH  13  16
HETATM   16  C   UNL     1       6.658  25.762  54.117  1.00  0.00     0.041 A 
HETATM   17  C   UNL     1       7.315  24.794  53.322  1.00  0.00    -0.035 A 
HETATM   18  C   UNL     1       7.594  25.002  51.857  1.00  0.00     0.050 C 
HETATM   19  C   UNL     1       7.698  23.568  53.899  1.00  0.00     0.009 A 
HETATM   20  C   UNL     1       7.445  23.300  55.242  1.00  0.00     0.001 A 
HETATM   21  C   UNL     1       6.804  24.252  56.024  1.00  0.00     0.002 A 
HETATM   22  C   UNL     1       6.414  25.472  55.466  1.00  0.00     0.030 A 
ENDBRANCH  13  16
ENDBRANCH  10  12
BRANCH   1  23
HETATM   23  C   UNL     1       4.577  28.161  50.017  1.00  0.00    -0.028 A 
HETATM   24  C   UNL     1       3.234  28.392  49.669  1.00  0.00     0.016 A 
HETATM   25  C   UNL     1       2.570  27.556  48.760  1.00  0.00    -0.061 A 
HETATM   26  C   UNL     1       1.127  27.783  48.417  1.00  0.00     0.048 C 
HETATM   27  C   UNL     1       3.267  26.495  48.172  1.00  0.00     0.007 A 
HETATM   28  C   UNL     1       4.606  26.272  48.481  1.00  0.00     0.001 A 
HETATM   29  C   UNL     1       5.257  27.100  49.395  1.00  0.00     0.010 A 
ENDBRANCH   1  23
BRANCH   5  30
HETATM   30  C   UNL     1       5.690  33.343  48.738  1.00  0.00     0.085 C 
BRANCH  30  31
HETATM   31  C   UNL     1       7.120  33.257  48.209  1.00  0.00     0.034 C 
BRANCH  31  32
HETATM   32  C   UNL     1       7.404  34.242  47.081  1.00  0.00     0.164 C 
BRANCH  32  33
HETATM   33  O   UNL     1       7.455  33.549  45.838  1.00  0.00    -0.401 OA
HETATM   34  H   UNL     1       7.468  32.596  46.035  1.00  0.00     0.209 HD
ENDBRANCH  32  33
ENDBRANCH  31  32
ENDBRANCH  30  31
ENDBRANCH   5  30
TORSDOF 7
ENDMDL
MODEL 10
REMARK VINA RESULT:      -7.2      2.281      8.325
REMARK  7 active torsions:
REMARK  status: ('A' for Active; 'I' for Inactive)
REMARK    1  A    between atoms: C_4  and  C_5 
REMARK    2  A    between atoms: C_9  and  C_10 
REMARK    3  A    between atoms: C_10  and  C_11 
REMARK    4  A    between atoms: C_11  and  C_12 
REMARK    5  A    between atoms: C_12  and  O_13 
REMARK    6  A    between atoms: C_18  and  C_19 
REMARK       I    between atoms: C_19  and  N_20 
REMARK    7  A    between atoms: N_20  and  C_21 
ROOT
HETATM    1  C   UNL     1       5.190  27.384  54.496  1.00  0.00     0.202 A 
HETATM    2  N   UNL     1       6.082  26.244  54.253  1.00  0.00    -0.083 N 
HETATM    3  C   UNL     1       7.258  26.042  54.914  1.00  0.00     0.726 A 
HETATM    4  N   UNL     1       7.769  24.891  54.559  1.00  0.00    -0.046 NA
HETATM    5  C   UNL     1       6.822  24.387  53.699  1.00  0.00     0.166 A 
HETATM    6  N   UNL     1       5.747  25.166  53.510  1.00  0.00    -0.140 NA
HETATM    7  N   UNL     1       7.667  26.951  55.814  1.00  0.00    -0.192 N 
HETATM    8  C   UNL     1       6.906  28.050  56.200  1.00  0.00     0.037 A 
HETATM    9  C   UNL     1       7.498  28.876  57.319  1.00  0.00     0.070 C 
HETATM   10  C   UNL     1       5.706  28.302  55.605  1.00  0.00     0.062 A 
HETATM   11  H   UNL     1       8.529  26.774  56.322  1.00  0.00     0.184 HD
ENDROOT
BRANCH  10  12
HETATM   12  C   UNL     1       4.906  29.522  55.978  1.00  0.00     0.256 C 
HETATM   13  N   UNL     1       5.460  30.731  55.602  1.00  0.00    -0.323 N 
HETATM   14  H   UNL     1       6.380  30.731  55.197  1.00  0.00     0.169 HD
HETATM   15  O   UNL     1       3.869  29.390  56.618  1.00  0.00    -0.267 OA
BRANCH  13  16
HETATM   16  C   UNL     1       4.911  32.026  55.789  1.00  0.00     0.041 A 
HETATM   17  C   UNL     1       4.171  32.611  54.735  1.00  0.00    -0.035 A 
HETATM   18  C   UNL     1       3.990  31.939  53.400  1.00  0.00     0.050 C 
HETATM   19  C   UNL     1       3.606  33.888  54.912  1.00  0.00     0.009 A 
HETATM   20  C   UNL     1       3.759  34.578  56.112  1.00  0.00     0.001 A 
HETATM   21  C   UNL     1       4.481  34.001  57.148  1.00  0.00     0.002 A 
HETATM   22  C   UNL     1       5.052  32.736  56.988  1.00  0.00     0.030 A 
ENDBRANCH  13  16
ENDBRANCH  10  12
BRANCH   1  23
HETATM   23  C   UNL     1       4.877  28.089  53.178  1.00  0.00    -0.028 A 
HETATM   24  C   UNL     1       3.561  28.270  52.719  1.00  0.00     0.016 A 
HETATM   25  C   UNL     1       3.305  28.894  51.490  1.00  0.00    -0.061 A 
HETATM   26  C   UNL     1       1.901  29.055  50.986  1.00  0.00     0.048 C 
HETATM   27  C   UNL     1       4.377  29.368  50.727  1.00  0.00     0.007 A 
HETATM   28  C   UNL     1       5.685  29.226  51.181  1.00  0.00     0.001 A 
HETATM   29  C   UNL     1       5.934  28.592  52.399  1.00  0.00     0.010 A 
ENDBRANCH   1  23
BRANCH   5  30
HETATM   30  C   UNL     1       6.960  23.051  53.065  1.00  0.00     0.085 C 
BRANCH  30  31
HETATM   31  C   UNL     1       8.239  22.320  53.469  1.00  0.00     0.034 C 
BRANCH  31  32
HETATM   32  C   UNL     1       7.990  20.896  53.951  1.00  0.00     0.164 C 
BRANCH  32  33
HETATM   33  O   UNL     1       8.656  19.974  53.093  1.00  0.00    -0.401 OA
HETATM   34  H   UNL     1       8.383  20.174  52.181  1.00  0.00     0.209 HD
ENDBRANCH  32  33
ENDBRANCH  31  32
ENDBRANCH  30  31
ENDBRANCH   5  30
TORSDOF 7
ENDMDL
