MODEL 1
REMARK VINA RESULT:      -9.2      0.000      0.000
REMARK  5 active torsions:
REMARK  status: ('A' for Active; 'I' for Inactive)
REMARK    1  A    between atoms: C_6  and  N_7 
REMARK       I    between atoms: N_7  and  C_8 
REMARK    2  A    between atoms: C_8  and  C_9 
REMARK    3  A    between atoms: C_9  and  N_10 
REMARK    4  A    between atoms: C_12  and  C_13 
REMARK    5  A    between atoms: C_14  and  O_15 
ROOT
HETATM    1  N   UNL     1       6.756  25.731  55.388  1.00  0.00    -0.325 N 
HETATM    2  C   UNL     1       5.785  25.874  56.358  1.00  0.00     0.239 C 
HETATM    3  O   UNL     1       5.334  25.007  57.102  1.00  0.00    -0.271 OA
HETATM    4  H   UNL     1       7.286  26.565  55.162  1.00  0.00     0.169 HD
ENDROOT
BRANCH   2   5
HETATM    5  C   UNL     1       5.287  27.303  56.490  1.00  0.00     0.222 C 
BRANCH   5   6
HETATM    6  N   UNL     1       6.475  28.170  56.629  1.00  0.00    -0.389 N 
HETATM    7  H   UNL     1       6.736  28.696  55.774  1.00  0.00     0.159 HD
HETATM    8  C   UNL     1       7.240  28.289  57.654  1.00  0.00     0.097 C 
BRANCH   8   9
HETATM    9  C   UNL     1       8.424  29.166  57.689  1.00  0.00     0.012 A 
HETATM   10  C   UNL     1       8.643  30.109  58.702  1.00  0.00     0.077 A 
HETATM   11  C   UNL     1       9.785  30.906  58.691  1.00  0.00     0.037 A 
HETATM   12  C   UNL     1      10.714  30.763  57.658  1.00  0.00     0.003 A 
HETATM   13  C   UNL     1      10.502  29.827  56.644  1.00  0.00     0.001 A 
HETATM   14  C   UNL     1       9.359  29.025  56.657  1.00  0.00     0.016 A 
BRANCH  10  15
HETATM   15  O   UNL     1       7.724  30.243  59.711  1.00  0.00    -0.360 OA
HETATM   16  H   UNL     1       7.610  31.199  59.897  1.00  0.00     0.217 HD
ENDBRANCH  10  15
ENDBRANCH   8   9
ENDBRANCH   5   6
ENDBRANCH   2   5
BRANCH   1  17
HETATM   17  C   UNL     1       7.325  24.529  54.890  1.00  0.00     0.046 A 
HETATM   18  C   UNL     1       8.314  23.779  55.563  1.00  0.00    -0.034 A 
HETATM   19  C   UNL     1       8.794  22.589  54.974  1.00  0.00     0.015 A 
HETATM   20  C   UNL     1       8.886  24.110  56.915  1.00  0.00     0.050 C 
HETATM   21  C   UNL     1       8.283  22.103  53.771  1.00  0.00    -0.061 A 
HETATM   22  C   UNL     1       8.764  20.805  53.192  1.00  0.00     0.048 C 
HETATM   23  C   UNL     1       7.270  22.819  53.140  1.00  0.00     0.015 A 
HETATM   24  C   UNL     1       6.787  24.025  53.676  1.00  0.00    -0.034 A 
HETATM   25  C   UNL     1       5.708  24.740  52.900  1.00  0.00     0.050 C 
ENDBRANCH   1  17
TORSDOF 5
ENDMDL
MODEL 2
REMARK VINA RESULT:      -8.8      3.573      5.644
REMARK  5 active torsions:
REMARK  status: ('A' for Active; 'I' for Inactive)
REMARK    1  A    between atoms: C_6  and  N_7 
REMARK       I    between atoms: N_7  and  C_8 
REMARK    2  A    between atoms: C_8  and  C_9 
REMARK    3  A    between atoms: C_9  and  N_10 
REMARK    4  A    between atoms: C_12  and  C_13 
REMARK    5  A    between atoms: C_14  and  O_15 
ROOT
HETATM    1  N   UNL     1       7.593  26.048  54.379  1.00  0.00    -0.325 N 
HETATM    2  C   UNL     1       6.450  26.726  54.750  1.00  0.00     0.239 C 
HETATM    3  O   UNL     1       5.440  26.264  55.274  1.00  0.00    -0.271 OA
HETATM    4  H   UNL     1       8.445  26.595  54.348  1.00  0.00     0.169 HD
ENDROOT
BRANCH   2   5
HETATM    5  C   UNL     1       6.535  28.220  54.482  1.00  0.00     0.222 C 
BRANCH   5   6
HETATM    6  N   UNL     1       6.353  28.415  53.029  1.00  0.00    -0.389 N 
HETATM    7  H   UNL     1       7.032  29.060  52.585  1.00  0.00     0.159 HD
HETATM    8  C   UNL     1       5.423  27.931  52.286  1.00  0.00     0.097 C 
BRANCH   8   9
HETATM    9  C   UNL     1       5.308  28.205  50.842  1.00  0.00     0.012 A 
HETATM   10  C   UNL     1       5.571  29.463  50.284  1.00  0.00     0.077 A 
HETATM   11  C   UNL     1       5.456  29.664  48.910  1.00  0.00     0.037 A 
HETATM   12  C   UNL     1       5.072  28.602  48.089  1.00  0.00     0.003 A 
HETATM   13  C   UNL     1       4.807  27.347  48.639  1.00  0.00     0.001 A 
HETATM   14  C   UNL     1       4.925  27.144  50.015  1.00  0.00     0.016 A 
BRANCH  10  15
HETATM   15  O   UNL     1       5.946  30.500  51.099  1.00  0.00    -0.360 OA
HETATM   16  H   UNL     1       5.556  30.349  51.985  1.00  0.00     0.217 HD
ENDBRANCH  10  15
ENDBRANCH   8   9
ENDBRANCH   5   6
ENDBRANCH   2   5
BRANCH   1  17
HETATM   17  C   UNL     1       7.802  24.643  54.338  1.00  0.00     0.046 A 
HETATM   18  C   UNL     1       8.011  23.837  55.477  1.00  0.00    -0.034 A 
HETATM   19  C   UNL     1       8.193  22.447  55.313  1.00  0.00     0.015 A 
HETATM   20  C   UNL     1       8.007  24.326  56.901  1.00  0.00     0.050 C 
HETATM   21  C   UNL     1       8.120  21.837  54.061  1.00  0.00    -0.061 A 
HETATM   22  C   UNL     1       8.256  20.350  53.913  1.00  0.00     0.048 C 
HETATM   23  C   UNL     1       7.860  22.630  52.947  1.00  0.00     0.015 A 
HETATM   24  C   UNL     1       7.705  24.022  53.064  1.00  0.00    -0.034 A 
HETATM   25  C   UNL     1       7.455  24.796  51.793  1.00  0.00     0.050 C 
ENDBRANCH   1  17
TORSDOF 5
ENDMDL
MODEL 3
REMARK VINA RESULT:      -8.7      1.808      7.826
REMARK  5 active torsions:
REMARK  status: ('A' for Active; 'I' for Inactive)
REMARK    1  A    between atoms: C_6  and  N_7 
REMARK       I    between atoms: N_7  and  C_8 
REMARK    2  A    between atoms: C_8  and  C_9 
REMARK    3  A    between atoms: C_9  and  N_10 
REMARK    4  A    between atoms: C_12  and  C_13 
REMARK    5  A    between atoms: C_14  and  O_15 
ROOT
HETATM    1  N   UNL     1       7.726  28.844  56.084  1.00  0.00    -0.325 N 
HETATM    2  C   UNL     1       7.644  27.466  56.060  1.00  0.00     0.239 C 
HETATM    3  O   UNL     1       7.732  26.693  57.010  1.00  0.00    -0.271 OA
HETATM    4  H   UNL     1       7.248  29.331  55.335  1.00  0.00     0.169 HD
ENDROOT
BRANCH   2   5
HETATM    5  C   UNL     1       7.379  26.913  54.670  1.00  0.00     0.222 C 
BRANCH   5   6
HETATM    6  N   UNL     1       7.404  25.440  54.773  1.00  0.00    -0.389 N 
HETATM    7  H   UNL     1       7.010  25.055  55.652  1.00  0.00     0.159 HD
HETATM    8  C   UNL     1       7.910  24.607  53.936  1.00  0.00     0.097 C 
BRANCH   8   9
HETATM    9  C   UNL     1       7.910  23.147  54.139  1.00  0.00     0.012 A 
HETATM   10  C   UNL     1       7.877  22.556  55.409  1.00  0.00     0.077 A 
HETATM   11  C   UNL     1       7.869  21.169  55.543  1.00  0.00     0.037 A 
HETATM   12  C   UNL     1       7.899  20.368  54.400  1.00  0.00     0.003 A 
HETATM   13  C   UNL     1       7.934  20.949  53.132  1.00  0.00     0.001 A 
HETATM   14  C   UNL     1       7.938  22.339  52.997  1.00  0.00     0.016 A 
BRANCH  10  15
HETATM   15  O   UNL     1       7.850  23.352  56.525  1.00  0.00    -0.360 OA
HETATM   16  H   UNL     1       8.311  22.880  57.250  1.00  0.00     0.217 HD
ENDBRANCH  10  15
ENDBRANCH   8   9
ENDBRANCH   5   6
ENDBRANCH   2   5
BRANCH   1  17
HETATM   17  C   UNL     1       8.116  29.679  57.165  1.00  0.00     0.046 A 
HETATM   18  C   UNL     1       9.456  29.976  57.496  1.00  0.00    -0.034 A 
HETATM   19  C   UNL     1       9.721  30.833  58.587  1.00  0.00     0.015 A 
HETATM   20  C   UNL     1      10.666  29.493  56.742  1.00  0.00     0.050 C 
HETATM   21  C   UNL     1       8.697  31.437  59.315  1.00  0.00    -0.061 A 
HETATM   22  C   UNL     1       8.999  32.393  60.432  1.00  0.00     0.048 C 
HETATM   23  C   UNL     1       7.379  31.183  58.949  1.00  0.00     0.015 A 
HETATM   24  C   UNL     1       7.072  30.310  57.890  1.00  0.00    -0.034 A 
HETATM   25  C   UNL     1       5.611  30.078  57.591  1.00  0.00     0.050 C 
ENDBRANCH   1  17
TORSDOF 5
ENDMDL
MODEL 4
REMARK VINA RESULT:      -8.7      1.432      1.600
REMARK  5 active torsions:
REMARK  status: ('A' for Active; 'I' for Inactive)
REMARK    1  A    between atoms: C_6  and  N_7 
REMARK       I    between atoms: N_7  and  C_8 
REMARK    2  A    between atoms: C_8  and  C_9 
REMARK    3  A    between atoms: C_9  and  N_10 
REMARK    4  A    between atoms: C_12  and  C_13 
REMARK    5  A    between atoms: C_14  and  O_15 
ROOT
HETATM    1  N   UNL     1       7.565  26.048  54.221  1.00  0.00    -0.325 N 
HETATM    2  C   UNL     1       6.410  26.764  54.461  1.00  0.00     0.239 C 
HETATM    3  O   UNL     1       5.370  26.359  54.975  1.00  0.00    -0.271 OA
HETATM    4  H   UNL     1       8.422  26.587  54.181  1.00  0.00     0.169 HD
ENDROOT
BRANCH   2   5
HETATM    5  C   UNL     1       6.522  28.223  54.052  1.00  0.00     0.222 C 
BRANCH   5   6
HETATM    6  N   UNL     1       7.105  28.955  55.194  1.00  0.00    -0.389 N 
HETATM    7  H   UNL     1       6.518  29.725  55.567  1.00  0.00     0.159 HD
HETATM    8  C   UNL     1       8.264  28.785  55.722  1.00  0.00     0.097 C 
BRANCH   8   9
HETATM    9  C   UNL     1       8.771  29.587  56.850  1.00  0.00     0.012 A 
HETATM   10  C   UNL     1       8.012  29.849  57.998  1.00  0.00     0.077 A 
HETATM   11  C   UNL     1       8.545  30.607  59.040  1.00  0.00     0.037 A 
HETATM   12  C   UNL     1       9.843  31.109  58.931  1.00  0.00     0.003 A 
HETATM   13  C   UNL     1      10.604  30.854  57.788  1.00  0.00     0.001 A 
HETATM   14  C   UNL     1      10.072  30.092  56.746  1.00  0.00     0.016 A 
BRANCH  10  15
HETATM   15  O   UNL     1       6.738  29.352  58.094  1.00  0.00    -0.360 OA
HETATM   16  H   UNL     1       6.111  30.103  58.036  1.00  0.00     0.217 HD
ENDBRANCH  10  15
ENDBRANCH   8   9
ENDBRANCH   5   6
ENDBRANCH   2   5
BRANCH   1  17
HETATM   17  C   UNL     1       7.764  24.646  54.330  1.00  0.00     0.046 A 
HETATM   18  C   UNL     1       7.882  23.953  55.554  1.00  0.00    -0.034 A 
HETATM   19  C   UNL     1       8.064  22.553  55.537  1.00  0.00     0.015 A 
HETATM   20  C   UNL     1       7.778  24.577  56.920  1.00  0.00     0.050 C 
HETATM   21  C   UNL     1       8.077  21.826  54.347  1.00  0.00    -0.061 A 
HETATM   22  C   UNL     1       8.211  20.331  54.353  1.00  0.00     0.048 C 
HETATM   23  C   UNL     1       7.906  22.508  53.146  1.00  0.00     0.015 A 
HETATM   24  C   UNL     1       7.756  23.905  53.118  1.00  0.00    -0.034 A 
HETATM   25  C   UNL     1       7.606  24.554  51.764  1.00  0.00     0.050 C 
ENDBRANCH   1  17
TORSDOF 5
ENDMDL
MODEL 5
REMARK VINA RESULT:      -8.6      1.526      2.493
REMARK  5 active torsions:
REMARK  status: ('A' for Active; 'I' for Inactive)
REMARK    1  A    between atoms: C_6  and  N_7 
REMARK       I    between atoms: N_7  and  C_8 
REMARK    2  A    between atoms: C_8  and  C_9 
REMARK    3  A    between atoms: C_9  and  N_10 
REMARK    4  A    between atoms: C_12  and  C_13 
REMARK    5  A    between atoms: C_14  and  O_15 
ROOT
HETATM    1  N   UNL     1       7.853  25.780  54.634  1.00  0.00    -0.325 N 
HETATM    2  C   UNL     1       6.782  26.646  54.718  1.00  0.00     0.239 C 
HETATM    3  O   UNL     1       5.689  26.438  55.238  1.00  0.00    -0.271 OA
HETATM    4  H   UNL     1       8.768  26.210  54.555  1.00  0.00     0.169 HD
ENDROOT
BRANCH   2   5
HETATM    5  C   UNL     1       7.072  28.007  54.108  1.00  0.00     0.222 C 
BRANCH   5   6
HETATM    6  N   UNL     1       7.487  28.901  55.208  1.00  0.00    -0.389 N 
HETATM    7  H   UNL     1       6.949  29.784  55.283  1.00  0.00     0.159 HD
HETATM    8  C   UNL     1       8.467  28.733  56.023  1.00  0.00     0.097 C 
BRANCH   8   9
HETATM    9  C   UNL     1       8.822  29.699  57.078  1.00  0.00     0.012 A 
HETATM   10  C   UNL     1       7.925  30.096  58.079  1.00  0.00     0.077 A 
HETATM   11  C   UNL     1       8.317  31.007  59.059  1.00  0.00     0.037 A 
HETATM   12  C   UNL     1       9.613  31.526  59.036  1.00  0.00     0.003 A 
HETATM   13  C   UNL     1      10.511  31.137  58.040  1.00  0.00     0.001 A 
HETATM   14  C   UNL     1      10.120  30.222  57.061  1.00  0.00     0.016 A 
BRANCH  10  15
HETATM   15  O   UNL     1       6.655  29.581  58.092  1.00  0.00    -0.360 OA
HETATM   16  H   UNL     1       6.105  30.105  57.472  1.00  0.00     0.217 HD
ENDBRANCH  10  15
ENDBRANCH   8   9
ENDBRANCH   5   6
ENDBRANCH   2   5
BRANCH   1  17
HETATM   17  C   UNL     1       7.887  24.396  54.953  1.00  0.00     0.046 A 
HETATM   18  C   UNL     1       7.724  23.359  54.009  1.00  0.00    -0.034 A 
HETATM   19  C   UNL     1       7.792  22.017  54.443  1.00  0.00     0.015 A 
HETATM   20  C   UNL     1       7.531  23.553  52.529  1.00  0.00     0.050 C 
HETATM   21  C   UNL     1       8.068  21.684  55.769  1.00  0.00    -0.061 A 
HETATM   22  C   UNL     1       8.195  20.252  56.199  1.00  0.00     0.048 C 
HETATM   23  C   UNL     1       8.280  22.711  56.684  1.00  0.00     0.015 A 
HETATM   24  C   UNL     1       8.190  24.060  56.299  1.00  0.00    -0.034 A 
HETATM   25  C   UNL     1       8.409  25.098  57.372  1.00  0.00     0.050 C 
ENDBRANCH   1  17
TORSDOF 5
ENDMDL
MODEL 6
REMARK VINA RESULT:      -8.5      9.432     13.045
REMARK  5 active torsions:
REMARK  status: ('A' for Active; 'I' for Inactive)
REMARK    1  A    between atoms: C_6  and  N_7 
REMARK       I    between atoms: N_7  and  C_8 
REMARK    2  A    between atoms: C_8  and  C_9 
REMARK    3  A    between atoms: C_9  and  N_10 
REMARK    4  A    between atoms: C_12  and  C_13 
REMARK    5  A    between atoms: C_14  and  O_15 
ROOT
HETATM    1  N   UNL     1       4.486  33.503  64.905  1.00  0.00    -0.325 N 
HETATM    2  C   UNL     1       4.056  34.756  65.291  1.00  0.00     0.239 C 
HETATM    3  O   UNL     1       4.173  35.812  64.674  1.00  0.00    -0.271 OA
HETATM    4  H   UNL     1       3.980  32.718  65.298  1.00  0.00     0.169 HD
ENDROOT
BRANCH   2   5
HETATM    5  C   UNL     1       3.332  34.748  66.627  1.00  0.00     0.222 C 
BRANCH   5   6
HETATM    6  N   UNL     1       4.316  34.357  67.656  1.00  0.00    -0.389 N 
HETATM    7  H   UNL     1       4.091  33.483  68.168  1.00  0.00     0.159 HD
HETATM    8  C   UNL     1       5.365  35.003  68.021  1.00  0.00     0.097 C 
BRANCH   8   9
HETATM    9  C   UNL     1       6.278  34.542  69.082  1.00  0.00     0.012 A 
HETATM   10  C   UNL     1       6.042  33.387  69.840  1.00  0.00     0.077 A 
HETATM   11  C   UNL     1       6.944  32.992  70.825  1.00  0.00     0.037 A 
HETATM   12  C   UNL     1       8.088  33.757  71.058  1.00  0.00     0.003 A 
HETATM   13  C   UNL     1       8.328  34.910  70.309  1.00  0.00     0.001 A 
HETATM   14  C   UNL     1       7.427  35.305  69.318  1.00  0.00     0.016 A 
BRANCH  10  15
HETATM   15  O   UNL     1       4.915  32.643  69.604  1.00  0.00    -0.360 OA
HETATM   16  H   UNL     1       4.435  33.044  68.850  1.00  0.00     0.217 HD
ENDBRANCH  10  15
ENDBRANCH   8   9
ENDBRANCH   5   6
ENDBRANCH   2   5
BRANCH   1  17
HETATM   17  C   UNL     1       5.323  33.164  63.809  1.00  0.00     0.046 A 
HETATM   18  C   UNL     1       4.851  32.853  62.515  1.00  0.00    -0.034 A 
HETATM   19  C   UNL     1       5.782  32.545  61.499  1.00  0.00     0.015 A 
HETATM   20  C   UNL     1       3.408  32.869  62.089  1.00  0.00     0.050 C 
HETATM   21  C   UNL     1       7.158  32.590  61.721  1.00  0.00    -0.061 A 
HETATM   22  C   UNL     1       8.132  32.319  60.612  1.00  0.00     0.048 C 
HETATM   23  C   UNL     1       7.618  32.950  62.984  1.00  0.00     0.015 A 
HETATM   24  C   UNL     1       6.724  33.232  64.032  1.00  0.00    -0.034 A 
HETATM   25  C   UNL     1       7.323  33.584  65.372  1.00  0.00     0.050 C 
ENDBRANCH   1  17
TORSDOF 5
ENDMDL
MODEL 7
REMARK VINA RESULT:      -8.5      1.754      7.895
REMARK  5 active torsions:
REMARK  status: ('A' for Active; 'I' for Inactive)
REMARK    1  A    between atoms: C_6  and  N_7 
REMARK       I    between atoms: N_7  and  C_8 
REMARK    2  A    between atoms: C_8  and  C_9 
REMARK    3  A    between atoms: C_9  and  N_10 
REMARK    4  A    between atoms: C_12  and  C_13 
REMARK    5  A    between atoms: C_14  and  O_15 
ROOT
HETATM    1  N   UNL     1       7.825  29.066  55.980  1.00  0.00    -0.325 N 
HETATM    2  C   UNL     1       7.456  27.737  55.950  1.00  0.00     0.239 C 
HETATM    3  O   UNL     1       7.113  27.032  56.896  1.00  0.00    -0.271 OA
HETATM    4  H   UNL     1       7.684  29.587  55.122  1.00  0.00     0.169 HD
ENDROOT
BRANCH   2   5
HETATM    5  C   UNL     1       7.463  27.152  54.548  1.00  0.00     0.222 C 
BRANCH   5   6
HETATM    6  N   UNL     1       7.661  25.694  54.683  1.00  0.00    -0.389 N 
HETATM    7  H   UNL     1       8.275  25.405  55.467  1.00  0.00     0.159 HD
HETATM    8  C   UNL     1       7.214  24.770  53.909  1.00  0.00     0.097 C 
BRANCH   8   9
HETATM    9  C   UNL     1       7.487  23.336  54.111  1.00  0.00     0.012 A 
HETATM   10  C   UNL     1       7.505  22.737  55.378  1.00  0.00     0.077 A 
HETATM   11  C   UNL     1       7.760  21.373  55.511  1.00  0.00     0.037 A 
HETATM   12  C   UNL     1       8.002  20.605  54.371  1.00  0.00     0.003 A 
HETATM   13  C   UNL     1       7.989  21.195  53.106  1.00  0.00     0.001 A 
HETATM   14  C   UNL     1       7.730  22.561  52.972  1.00  0.00     0.016 A 
BRANCH  10  15
HETATM   15  O   UNL     1       7.267  23.501  56.491  1.00  0.00    -0.360 OA
HETATM   16  H   UNL     1       6.480  23.139  56.949  1.00  0.00     0.217 HD
ENDBRANCH  10  15
ENDBRANCH   8   9
ENDBRANCH   5   6
ENDBRANCH   2   5
BRANCH   1  17
HETATM   17  C   UNL     1       8.078  29.879  57.117  1.00  0.00     0.046 A 
HETATM   18  C   UNL     1       7.073  30.476  57.907  1.00  0.00    -0.034 A 
HETATM   19  C   UNL     1       7.447  31.253  59.025  1.00  0.00     0.015 A 
HETATM   20  C   UNL     1       5.591  30.317  57.695  1.00  0.00     0.050 C 
HETATM   21  C   UNL     1       8.780  31.405  59.404  1.00  0.00    -0.061 A 
HETATM   22  C   UNL     1       9.154  32.185  60.631  1.00  0.00     0.048 C 
HETATM   23  C   UNL     1       9.764  30.769  58.652  1.00  0.00     0.015 A 
HETATM   24  C   UNL     1       9.436  30.014  57.513  1.00  0.00    -0.034 A 
HETATM   25  C   UNL     1      10.577  29.388  56.750  1.00  0.00     0.050 C 
ENDBRANCH   1  17
TORSDOF 5
ENDMDL
MODEL 8
REMARK VINA RESULT:      -8.3      5.179      7.964
REMARK  5 active torsions:
REMARK  status: ('A' for Active; 'I' for Inactive)
REMARK    1  A    between atoms: C_6  and  N_7 
REMARK       I    between atoms: N_7  and  C_8 
REMARK    2  A    between atoms: C_8  and  C_9 
REMARK    3  A    between atoms: C_9  and  N_10 
REMARK    4  A    between atoms: C_12  and  C_13 
REMARK    5  A    between atoms: C_14  and  O_15 
ROOT
HETATM    1  N   UNL     1       6.195  31.118  59.211  1.00  0.00    -0.325 N 
HETATM    2  C   UNL     1       5.410  32.224  58.955  1.00  0.00     0.239 C 
HETATM    3  O   UNL     1       5.604  33.104  58.121  1.00  0.00    -0.271 OA
HETATM    4  H   UNL     1       5.720  30.317  59.610  1.00  0.00     0.169 HD
ENDROOT
BRANCH   2   5
HETATM    5  C   UNL     1       4.160  32.274  59.817  1.00  0.00     0.222 C 
BRANCH   5   6
HETATM    6  N   UNL     1       4.599  32.465  61.214  1.00  0.00    -0.389 N 
HETATM    7  H   UNL     1       4.178  31.810  61.899  1.00  0.00     0.159 HD
HETATM    8  C   UNL     1       5.379  33.379  61.670  1.00  0.00     0.097 C 
BRANCH   8   9
HETATM    9  C   UNL     1       5.741  33.504  63.094  1.00  0.00     0.012 A 
HETATM   10  C   UNL     1       4.786  33.609  64.115  1.00  0.00     0.077 A 
HETATM   11  C   UNL     1       5.184  33.717  65.446  1.00  0.00     0.037 A 
HETATM   12  C   UNL     1       6.544  33.723  65.758  1.00  0.00     0.003 A 
HETATM   13  C   UNL     1       7.501  33.622  64.746  1.00  0.00     0.001 A 
HETATM   14  C   UNL     1       7.103  33.510  63.413  1.00  0.00     0.016 A 
BRANCH  10  15
HETATM   15  O   UNL     1       3.453  33.603  63.796  1.00  0.00    -0.360 OA
HETATM   16  H   UNL     1       3.338  34.076  62.945  1.00  0.00     0.217 HD
ENDBRANCH  10  15
ENDBRANCH   8   9
ENDBRANCH   5   6
ENDBRANCH   2   5
BRANCH   1  17
HETATM   17  C   UNL     1       7.495  30.834  58.714  1.00  0.00     0.046 A 
HETATM   18  C   UNL     1       8.675  31.461  59.170  1.00  0.00    -0.034 A 
HETATM   19  C   UNL     1       9.915  31.085  58.609  1.00  0.00     0.015 A 
HETATM   20  C   UNL     1       8.745  32.489  60.267  1.00  0.00     0.050 C 
HETATM   21  C   UNL     1      10.015  30.073  57.655  1.00  0.00    -0.061 A 
HETATM   22  C   UNL     1      11.349  29.645  57.115  1.00  0.00     0.048 C 
HETATM   23  C   UNL     1       8.855  29.421  57.249  1.00  0.00     0.015 A 
HETATM   24  C   UNL     1       7.597  29.788  57.759  1.00  0.00    -0.034 A 
HETATM   25  C   UNL     1       6.396  29.040  57.233  1.00  0.00     0.050 C 
ENDBRANCH   1  17
TORSDOF 5
ENDMDL
MODEL 9
REMARK VINA RESULT:      -8.3      3.496      6.235
REMARK  5 active torsions:
REMARK  status: ('A' for Active; 'I' for Inactive)
REMARK    1  A    between atoms: C_6  and  N_7 
REMARK       I    between atoms: N_7  and  C_8 
REMARK    2  A    between atoms: C_8  and  C_9 
REMARK    3  A    between atoms: C_9  and  N_10 
REMARK    4  A    between atoms: C_12  and  C_13 
REMARK    5  A    between atoms: C_14  and  O_15 
ROOT
HETATM    1  N   UNL     1       7.563  25.941  54.667  1.00  0.00    -0.325 N 
HETATM    2  C   UNL     1       6.370  26.635  54.691  1.00  0.00     0.239 C 
HETATM    3  O   UNL     1       5.283  26.244  55.109  1.00  0.00    -0.271 OA
HETATM    4  H   UNL     1       8.406  26.503  54.681  1.00  0.00     0.169 HD
ENDROOT
BRANCH   2   5
HETATM    5  C   UNL     1       6.499  28.051  54.156  1.00  0.00     0.222 C 
BRANCH   5   6
HETATM    6  N   UNL     1       6.318  27.984  52.692  1.00  0.00    -0.389 N 
HETATM    7  H   UNL     1       7.132  28.302  52.134  1.00  0.00     0.159 HD
HETATM    8  C   UNL     1       5.258  27.644  52.051  1.00  0.00     0.097 C 
BRANCH   8   9
HETATM    9  C   UNL     1       5.164  27.633  50.579  1.00  0.00     0.012 A 
HETATM   10  C   UNL     1       5.536  28.727  49.786  1.00  0.00     0.077 A 
HETATM   11  C   UNL     1       5.435  28.659  48.398  1.00  0.00     0.037 A 
HETATM   12  C   UNL     1       4.957  27.492  47.799  1.00  0.00     0.003 A 
HETATM   13  C   UNL     1       4.582  26.400  48.583  1.00  0.00     0.001 A 
HETATM   14  C   UNL     1       4.686  26.466  49.974  1.00  0.00     0.016 A 
BRANCH  10  15
HETATM   15  O   UNL     1       6.003  29.868  50.384  1.00  0.00    -0.360 OA
HETATM   16  H   UNL     1       5.237  30.361  50.745  1.00  0.00     0.217 HD
ENDBRANCH  10  15
ENDBRANCH   8   9
ENDBRANCH   5   6
ENDBRANCH   2   5
BRANCH   1  17
HETATM   17  C   UNL     1       7.779  24.564  54.938  1.00  0.00     0.046 A 
HETATM   18  C   UNL     1       7.794  23.553  53.953  1.00  0.00    -0.034 A 
HETATM   19  C   UNL     1       8.035  22.216  54.342  1.00  0.00     0.015 A 
HETATM   20  C   UNL     1       7.624  23.777  52.475  1.00  0.00     0.050 C 
HETATM   21  C   UNL     1       8.311  21.872  55.665  1.00  0.00    -0.061 A 
HETATM   22  C   UNL     1       8.623  20.455  56.048  1.00  0.00     0.048 C 
HETATM   23  C   UNL     1       8.348  22.881  56.623  1.00  0.00     0.015 A 
HETATM   24  C   UNL     1       8.082  24.219  56.282  1.00  0.00    -0.034 A 
HETATM   25  C   UNL     1       8.119  25.233  57.399  1.00  0.00     0.050 C 
ENDBRANCH   1  17
TORSDOF 5
ENDMDL
MODEL 10
REMARK VINA RESULT:      -8.2      1.710      2.941
REMARK  5 active torsions:
REMARK  status: ('A' for Active; 'I' for Inactive)
REMARK    1  A    between atoms: C_6  and  N_7 
REMARK       I    between atoms: N_7  and  C_8 
REMARK    2  A    between atoms: C_8  and  C_9 
REMARK    3  A    between atoms: C_9  and  N_10 
REMARK    4  A    between atoms: C_12  and  C_13 
REMARK    5  A    between atoms: C_14  and  O_15 
ROOT
HETATM    1  N   UNL     1       5.893  26.063  56.041  1.00  0.00    -0.325 N 
HETATM    2  C   UNL     1       6.094  27.422  55.912  1.00  0.00     0.239 C 
HETATM    3  O   UNL     1       6.788  28.003  55.082  1.00  0.00    -0.271 OA
HETATM    4  H   UNL     1       5.023  25.780  56.477  1.00  0.00     0.169 HD
ENDROOT
BRANCH   2   5
HETATM    5  C   UNL     1       5.305  28.235  56.925  1.00  0.00     0.222 C 
BRANCH   5   6
HETATM    6  N   UNL     1       6.281  28.998  57.730  1.00  0.00    -0.389 N 
HETATM    7  H   UNL     1       6.955  28.420  58.266  1.00  0.00     0.159 HD
HETATM    8  C   UNL     1       6.341  30.272  57.883  1.00  0.00     0.097 C 
BRANCH   8   9
HETATM    9  C   UNL     1       7.341  30.944  58.732  1.00  0.00     0.012 A 
HETATM   10  C   UNL     1       8.720  30.727  58.600  1.00  0.00     0.077 A 
HETATM   11  C   UNL     1       9.622  31.397  59.424  1.00  0.00     0.037 A 
HETATM   12  C   UNL     1       9.145  32.286  60.388  1.00  0.00     0.003 A 
HETATM   13  C   UNL     1       7.773  32.505  60.527  1.00  0.00     0.001 A 
HETATM   14  C   UNL     1       6.868  31.838  59.699  1.00  0.00     0.016 A 
BRANCH  10  15
HETATM   15  O   UNL     1       9.178  29.851  57.651  1.00  0.00    -0.360 OA
HETATM   16  H   UNL     1       8.964  30.217  56.767  1.00  0.00     0.217 HD
ENDBRANCH  10  15
ENDBRANCH   8   9
ENDBRANCH   5   6
ENDBRANCH   2   5
BRANCH   1  17
HETATM   17  C   UNL     1       6.579  25.011  55.378  1.00  0.00     0.046 A 
HETATM   18  C   UNL     1       6.220  24.503  54.111  1.00  0.00    -0.034 A 
HETATM   19  C   UNL     1       6.988  23.462  53.544  1.00  0.00     0.015 A 
HETATM   20  C   UNL     1       5.092  25.015  53.256  1.00  0.00     0.050 C 
HETATM   21  C   UNL     1       8.124  22.956  54.175  1.00  0.00    -0.061 A 
HETATM   22  C   UNL     1       8.962  21.892  53.529  1.00  0.00     0.048 C 
HETATM   23  C   UNL     1       8.504  23.499  55.399  1.00  0.00     0.015 A 
HETATM   24  C   UNL     1       7.747  24.513  56.013  1.00  0.00    -0.034 A 
HETATM   25  C   UNL     1       8.227  25.013  57.353  1.00  0.00     0.050 C 
ENDBRANCH   1  17
TORSDOF 5
ENDMDL
