MODEL 1
REMARK VINA RESULT:      -9.8      0.000      0.000
REMARK  8 active torsions:
REMARK  status: ('A' for Active; 'I' for Inactive)
REMARK    1  A    between atoms: O_2  and  C_3 
REMARK    2  A    between atoms: C_6  and  C_7 
REMARK    3  A    between atoms: C_11  and  S_12 
REMARK    4  A    between atoms: S_12  and  C_13 
REMARK    5  A    between atoms: C_13  and  C_14 
REMARK       I    between atoms: C_14  and  N_15 
REMARK    6  A    between atoms: N_15  and  C_16 
REMARK    7  A    between atoms: C_16  and  C_17 
REMARK       I    between atoms: C_17  and  N_18 
REMARK    8  A    between atoms: N_18  and  C_19 
ROOT
HETATM    1  C   UNL     1       8.006  29.005  56.509  1.00  0.00     0.185 C 
ENDROOT
BRANCH   1   2
HETATM    2  S   UNL     1       9.718  29.306  57.054  1.00  0.00    -0.081 SA
BRANCH   2   3
HETATM    3  C   UNL     1       9.445  30.515  58.247  1.00  0.00     0.185 A 
HETATM    4  N   UNL     1      10.214  31.629  58.320  1.00  0.00    -0.253 N 
HETATM    5  N   UNL     1       9.840  32.405  59.350  1.00  0.00    -0.152 NA
HETATM    6  H   UNL     1      10.987  31.909  57.729  1.00  0.00     0.191 HD
HETATM    7  C   UNL     1       8.819  31.702  59.872  1.00  0.00     0.182 A 
HETATM    8  N   UNL     1       8.550  30.526  59.198  1.00  0.00    -0.201 NA
BRANCH   7   9
HETATM    9  C   UNL     1       8.057  32.113  61.048  1.00  0.00     0.014 A 
HETATM   10  C   UNL     1       6.739  32.574  60.932  1.00  0.00     0.018 A 
HETATM   11  C   UNL     1       6.022  32.966  62.067  1.00  0.00     0.037 A 
HETATM   12  C   UNL     1       6.602  32.900  63.335  1.00  0.00     0.068 A 
HETATM   13  C   UNL     1       7.916  32.449  63.460  1.00  0.00     0.037 A 
HETATM   14  C   UNL     1       8.637  32.059  62.323  1.00  0.00     0.018 A 
BRANCH  12  15
HETATM   15  O   UNL     1       5.790  33.307  64.357  1.00  0.00    -0.356 OA
HETATM   16  C   UNL     1       4.478  33.727  64.006  1.00  0.00     0.210 C 
ENDBRANCH  12  15
ENDBRANCH   7   9
ENDBRANCH   2   3
ENDBRANCH   1   2
BRANCH   1  17
HETATM   17  C   UNL     1       7.432  27.687  57.011  1.00  0.00     0.227 C 
HETATM   18  N   UNL     1       6.265  27.241  56.447  1.00  0.00    -0.352 N 
HETATM   19  H   UNL     1       5.829  27.806  55.727  1.00  0.00     0.162 HD
HETATM   20  O   UNL     1       7.961  27.065  57.936  1.00  0.00    -0.273 OA
BRANCH  18  21
HETATM   21  C   UNL     1       5.690  25.940  56.747  1.00  0.00     0.225 C 
BRANCH  21  22
HETATM   22  C   UNL     1       5.877  24.918  55.620  1.00  0.00     0.239 C 
HETATM   23  N   UNL     1       6.844  23.970  55.911  1.00  0.00    -0.326 N 
HETATM   24  H   UNL     1       7.264  24.043  56.841  1.00  0.00     0.169 HD
HETATM   25  O   UNL     1       5.242  25.020  54.573  1.00  0.00    -0.271 OA
BRANCH  23  26
HETATM   26  C   UNL     1       7.310  22.927  55.092  1.00  0.00     0.035 A 
HETATM   27  C   UNL     1       7.524  21.619  55.538  1.00  0.00     0.032 A 
HETATM   28  C   UNL     1       7.982  20.637  54.653  1.00  0.00     0.044 A 
HETATM   29  C   UNL     1       8.224  20.965  53.326  1.00  0.00     0.116 A 
HETATM   30  F   UNL     1       8.661  20.022  52.480  1.00  0.00    -0.206 F 
HETATM   31  C   UNL     1       8.019  22.258  52.864  1.00  0.00     0.044 A 
HETATM   32  C   UNL     1       7.561  23.239  53.748  1.00  0.00     0.032 A 
ENDBRANCH  23  26
ENDBRANCH  21  22
ENDBRANCH  18  21
ENDBRANCH   1  17
TORSDOF 8
ENDMDL
MODEL 2
REMARK VINA RESULT:      -9.8      1.328      1.636
REMARK  8 active torsions:
REMARK  status: ('A' for Active; 'I' for Inactive)
REMARK    1  A    between atoms: O_2  and  C_3 
REMARK    2  A    between atoms: C_6  and  C_7 
REMARK    3  A    between atoms: C_11  and  S_12 
REMARK    4  A    between atoms: S_12  and  C_13 
REMARK    5  A    between atoms: C_13  and  C_14 
REMARK       I    between atoms: C_14  and  N_15 
REMARK    6  A    between atoms: N_15  and  C_16 
REMARK    7  A    between atoms: C_16  and  C_17 
REMARK       I    between atoms: C_17  and  N_18 
REMARK    8  A    between atoms: N_18  and  C_19 
ROOT
HETATM    1  C   UNL     1       7.597  28.894  56.566  1.00  0.00     0.185 C 
ENDROOT
BRANCH   1   2
HETATM    2  S   UNL     1       9.361  29.141  56.951  1.00  0.00    -0.081 SA
BRANCH   2   3
HETATM    3  C   UNL     1       9.238  30.384  58.134  1.00  0.00     0.185 A 
HETATM    4  N   UNL     1      10.080  31.446  58.140  1.00  0.00    -0.253 N 
HETATM    5  N   UNL     1       9.819  32.262  59.174  1.00  0.00    -0.152 NA
HETATM    6  H   UNL     1      10.833  31.666  57.500  1.00  0.00     0.191 HD
HETATM    7  C   UNL     1       8.788  31.635  59.770  1.00  0.00     0.182 A 
HETATM    8  N   UNL     1       8.404  30.468  59.135  1.00  0.00    -0.201 NA
BRANCH   7   9
HETATM    9  C   UNL     1       8.126  32.114  60.980  1.00  0.00     0.014 A 
HETATM   10  C   UNL     1       6.888  32.767  60.917  1.00  0.00     0.018 A 
HETATM   11  C   UNL     1       6.266  33.221  62.084  1.00  0.00     0.037 A 
HETATM   12  C   UNL     1       6.861  33.029  63.332  1.00  0.00     0.068 A 
HETATM   13  C   UNL     1       8.097  32.386  63.404  1.00  0.00     0.037 A 
HETATM   14  C   UNL     1       8.724  31.932  62.234  1.00  0.00     0.018 A 
BRANCH  12  15
HETATM   15  O   UNL     1       6.146  33.516  64.390  1.00  0.00    -0.356 OA
HETATM   16  C   UNL     1       6.873  33.802  65.578  1.00  0.00     0.210 C 
ENDBRANCH  12  15
ENDBRANCH   7   9
ENDBRANCH   2   3
ENDBRANCH   1   2
BRANCH   1  17
HETATM   17  C   UNL     1       7.358  28.257  55.204  1.00  0.00     0.227 C 
HETATM   18  N   UNL     1       6.230  27.493  55.045  1.00  0.00    -0.352 N 
HETATM   19  H   UNL     1       5.608  27.378  55.837  1.00  0.00     0.162 HD
HETATM   20  O   UNL     1       8.176  28.369  54.288  1.00  0.00    -0.273 OA
BRANCH  18  21
HETATM   21  C   UNL     1       5.824  26.943  53.762  1.00  0.00     0.225 C 
BRANCH  21  22
HETATM   22  C   UNL     1       5.824  25.410  53.731  1.00  0.00     0.239 C 
HETATM   23  N   UNL     1       7.037  24.866  54.119  1.00  0.00    -0.326 N 
HETATM   24  H   UNL     1       7.745  25.540  54.417  1.00  0.00     0.169 HD
HETATM   25  O   UNL     1       4.835  24.794  53.342  1.00  0.00    -0.271 OA
BRANCH  23  26
HETATM   26  C   UNL     1       7.407  23.510  54.156  1.00  0.00     0.035 A 
HETATM   27  C   UNL     1       7.725  22.755  53.023  1.00  0.00     0.032 A 
HETATM   28  C   UNL     1       8.093  21.411  53.149  1.00  0.00     0.044 A 
HETATM   29  C   UNL     1       8.141  20.826  54.407  1.00  0.00     0.116 A 
HETATM   30  F   UNL     1       8.496  19.540  54.525  1.00  0.00    -0.206 F 
HETATM   31  C   UNL     1       7.828  21.558  55.545  1.00  0.00     0.044 A 
HETATM   32  C   UNL     1       7.461  22.900  55.418  1.00  0.00     0.032 A 
ENDBRANCH  23  26
ENDBRANCH  21  22
ENDBRANCH  18  21
ENDBRANCH   1  17
TORSDOF 8
ENDMDL
MODEL 3
REMARK VINA RESULT:      -9.6      4.238     11.308
REMARK  8 active torsions:
REMARK  status: ('A' for Active; 'I' for Inactive)
REMARK    1  A    between atoms: O_2  and  C_3 
REMARK    2  A    between atoms: C_6  and  C_7 
REMARK    3  A    between atoms: C_11  and  S_12 
REMARK    4  A    between atoms: S_12  and  C_13 
REMARK    5  A    between atoms: C_13  and  C_14 
REMARK       I    between atoms: C_14  and  N_15 
REMARK    6  A    between atoms: N_15  and  C_16 
REMARK    7  A    between atoms: C_16  and  C_17 
REMARK       I    between atoms: C_17  and  N_18 
REMARK    8  A    between atoms: N_18  and  C_19 
ROOT
HETATM    1  C   UNL     1       5.754  28.570  57.346  1.00  0.00     0.185 C 
ENDROOT
BRANCH   1   2
HETATM    2  S   UNL     1       5.561  29.045  55.598  1.00  0.00    -0.081 SA
BRANCH   2   3
HETATM    3  C   UNL     1       6.362  27.726  54.838  1.00  0.00     0.185 A 
HETATM    4  N   UNL     1       7.064  27.886  53.689  1.00  0.00    -0.253 N 
HETATM    5  N   UNL     1       7.566  26.716  53.265  1.00  0.00    -0.152 NA
HETATM    6  H   UNL     1       7.227  28.731  53.155  1.00  0.00     0.191 HD
HETATM    7  C   UNL     1       7.134  25.866  54.214  1.00  0.00     0.182 A 
HETATM    8  N   UNL     1       6.389  26.474  55.208  1.00  0.00    -0.201 NA
BRANCH   7   9
HETATM    9  C   UNL     1       7.401  24.431  54.214  1.00  0.00     0.014 A 
HETATM   10  C   UNL     1       7.418  23.697  55.407  1.00  0.00     0.018 A 
HETATM   11  C   UNL     1       7.677  22.323  55.391  1.00  0.00     0.037 A 
HETATM   12  C   UNL     1       7.916  21.655  54.189  1.00  0.00     0.068 A 
HETATM   13  C   UNL     1       7.907  22.378  52.996  1.00  0.00     0.037 A 
HETATM   14  C   UNL     1       7.651  23.757  53.010  1.00  0.00     0.018 A 
BRANCH  12  15
HETATM   15  O   UNL     1       8.149  20.314  54.314  1.00  0.00    -0.356 OA
HETATM   16  C   UNL     1       8.660  19.867  55.564  1.00  0.00     0.210 C 
ENDBRANCH  12  15
ENDBRANCH   7   9
ENDBRANCH   2   3
ENDBRANCH   1   2
BRANCH   1  17
HETATM   17  C   UNL     1       7.156  28.812  57.890  1.00  0.00     0.227 C 
HETATM   18  N   UNL     1       7.531  30.107  58.137  1.00  0.00    -0.352 N 
HETATM   19  H   UNL     1       6.867  30.848  57.943  1.00  0.00     0.162 HD
HETATM   20  O   UNL     1       7.955  27.885  58.047  1.00  0.00    -0.273 OA
BRANCH  18  21
HETATM   21  C   UNL     1       8.789  30.457  58.775  1.00  0.00     0.225 C 
BRANCH  21  22
HETATM   22  C   UNL     1       8.666  31.625  59.762  1.00  0.00     0.239 C 
HETATM   23  N   UNL     1       7.774  31.367  60.788  1.00  0.00    -0.326 N 
HETATM   24  H   UNL     1       7.357  30.433  60.784  1.00  0.00     0.169 HD
HETATM   25  O   UNL     1       9.283  32.670  59.571  1.00  0.00    -0.271 OA
BRANCH  23  26
HETATM   26  C   UNL     1       7.377  32.226  61.828  1.00  0.00     0.035 A 
HETATM   27  C   UNL     1       6.253  33.057  61.771  1.00  0.00     0.032 A 
HETATM   28  C   UNL     1       5.924  33.876  62.856  1.00  0.00     0.044 A 
HETATM   29  C   UNL     1       6.718  33.863  63.995  1.00  0.00     0.116 A 
HETATM   30  F   UNL     1       6.399  34.646  65.033  1.00  0.00    -0.206 F 
HETATM   31  C   UNL     1       7.838  33.046  64.071  1.00  0.00     0.044 A 
HETATM   32  C   UNL     1       8.167  32.228  62.987  1.00  0.00     0.032 A 
ENDBRANCH  23  26
ENDBRANCH  21  22
ENDBRANCH  18  21
ENDBRANCH   1  17
TORSDOF 8
ENDMDL
MODEL 4
REMARK VINA RESULT:      -9.6      4.196     11.333
REMARK  8 active torsions:
REMARK  status: ('A' for Active; 'I' for Inactive)
REMARK    1  A    between atoms: O_2  and  C_3 
REMARK    2  A    between atoms: C_6  and  C_7 
REMARK    3  A    between atoms: C_11  and  S_12 
REMARK    4  A    between atoms: S_12  and  C_13 
REMARK    5  A    between atoms: C_13  and  C_14 
REMARK       I    between atoms: C_14  and  N_15 
REMARK    6  A    between atoms: N_15  and  C_16 
REMARK    7  A    between atoms: C_16  and  C_17 
REMARK       I    between atoms: C_17  and  N_18 
REMARK    8  A    between atoms: N_18  and  C_19 
ROOT
HETATM    1  C   UNL     1       6.382  29.853  56.269  1.00  0.00     0.185 C 
ENDROOT
BRANCH   1   2
HETATM    2  S   UNL     1       4.696  29.164  56.253  1.00  0.00    -0.081 SA
BRANCH   2   3
HETATM    3  C   UNL     1       5.058  27.486  56.142  1.00  0.00     0.185 A 
HETATM    4  N   UNL     1       4.631  26.602  57.077  1.00  0.00    -0.253 N 
HETATM    5  N   UNL     1       5.066  25.362  56.802  1.00  0.00    -0.152 NA
HETATM    6  H   UNL     1       4.069  26.770  57.903  1.00  0.00     0.191 HD
HETATM    7  C   UNL     1       5.761  25.556  55.666  1.00  0.00     0.182 A 
HETATM    8  N   UNL     1       5.763  26.869  55.232  1.00  0.00    -0.201 NA
BRANCH   7   9
HETATM    9  C   UNL     1       6.465  24.500  54.945  1.00  0.00     0.014 A 
HETATM   10  C   UNL     1       7.070  23.437  55.628  1.00  0.00     0.018 A 
HETATM   11  C   UNL     1       7.743  22.433  54.925  1.00  0.00     0.037 A 
HETATM   12  C   UNL     1       7.819  22.466  53.531  1.00  0.00     0.068 A 
HETATM   13  C   UNL     1       7.225  23.524  52.842  1.00  0.00     0.037 A 
HETATM   14  C   UNL     1       6.553  24.533  53.546  1.00  0.00     0.018 A 
BRANCH  12  15
HETATM   15  O   UNL     1       8.500  21.422  52.969  1.00  0.00    -0.356 OA
HETATM   16  C   UNL     1       8.635  20.246  53.758  1.00  0.00     0.210 C 
ENDBRANCH  12  15
ENDBRANCH   7   9
ENDBRANCH   2   3
ENDBRANCH   1   2
BRANCH   1  17
HETATM   17  C   UNL     1       7.171  29.499  57.523  1.00  0.00     0.227 C 
HETATM   18  N   UNL     1       7.956  30.475  58.081  1.00  0.00    -0.352 N 
HETATM   19  H   UNL     1       7.985  31.385  57.636  1.00  0.00     0.162 HD
HETATM   20  O   UNL     1       7.157  28.358  57.991  1.00  0.00    -0.273 OA
BRANCH  18  21
HETATM   21  C   UNL     1       8.651  30.300  59.345  1.00  0.00     0.225 C 
BRANCH  21  22
HETATM   22  C   UNL     1       8.387  31.433  60.345  1.00  0.00     0.239 C 
HETATM   23  N   UNL     1       7.638  31.022  61.435  1.00  0.00    -0.326 N 
HETATM   24  H   UNL     1       7.404  30.026  61.456  1.00  0.00     0.169 HD
HETATM   25  O   UNL     1       8.782  32.573  60.115  1.00  0.00    -0.271 OA
BRANCH  23  26
HETATM   26  C   UNL     1       7.167  31.800  62.507  1.00  0.00     0.035 A 
HETATM   27  C   UNL     1       7.998  32.457  63.420  1.00  0.00     0.032 A 
HETATM   28  C   UNL     1       7.447  33.220  64.455  1.00  0.00     0.044 A 
HETATM   29  C   UNL     1       6.067  33.324  64.574  1.00  0.00     0.116 A 
HETATM   30  F   UNL     1       5.542  34.057  65.564  1.00  0.00    -0.206 F 
HETATM   31  C   UNL     1       5.225  32.678  63.678  1.00  0.00     0.044 A 
HETATM   32  C   UNL     1       5.776  31.916  62.645  1.00  0.00     0.032 A 
ENDBRANCH  23  26
ENDBRANCH  21  22
ENDBRANCH  18  21
ENDBRANCH   1  17
TORSDOF 8
ENDMDL
MODEL 5
REMARK VINA RESULT:      -9.4      1.900      2.571
REMARK  8 active torsions:
REMARK  status: ('A' for Active; 'I' for Inactive)
REMARK    1  A    between atoms: O_2  and  C_3 
REMARK    2  A    between atoms: C_6  and  C_7 
REMARK    3  A    between atoms: C_11  and  S_12 
REMARK    4  A    between atoms: S_12  and  C_13 
REMARK    5  A    between atoms: C_13  and  C_14 
REMARK       I    between atoms: C_14  and  N_15 
REMARK    6  A    between atoms: N_15  and  C_16 
REMARK    7  A    between atoms: C_16  and  C_17 
REMARK       I    between atoms: C_17  and  N_18 
REMARK    8  A    between atoms: N_18  and  C_19 
ROOT
HETATM    1  C   UNL     1       7.995  29.200  58.370  1.00  0.00     0.185 C 
ENDROOT
BRANCH   1   2
HETATM    2  S   UNL     1       7.872  31.016  58.465  1.00  0.00    -0.081 SA
BRANCH   2   3
HETATM    3  C   UNL     1       7.843  31.226  60.172  1.00  0.00     0.185 A 
HETATM    4  N   UNL     1       8.599  30.460  60.996  1.00  0.00    -0.253 N 
HETATM    5  N   UNL     1       8.382  30.778  62.283  1.00  0.00    -0.152 NA
HETATM    6  H   UNL     1       9.251  29.722  60.760  1.00  0.00     0.191 HD
HETATM    7  C   UNL     1       7.473  31.765  62.176  1.00  0.00     0.182 A 
HETATM    8  N   UNL     1       7.129  32.066  60.871  1.00  0.00    -0.201 NA
BRANCH   7   9
HETATM    9  C   UNL     1       6.881  32.461  63.315  1.00  0.00     0.014 A 
HETATM   10  C   UNL     1       7.685  33.076  64.284  1.00  0.00     0.018 A 
HETATM   11  C   UNL     1       7.104  33.738  65.370  1.00  0.00     0.037 A 
HETATM   12  C   UNL     1       5.716  33.804  65.508  1.00  0.00     0.068 A 
HETATM   13  C   UNL     1       4.908  33.188  64.551  1.00  0.00     0.037 A 
HETATM   14  C   UNL     1       5.489  32.522  63.463  1.00  0.00     0.018 A 
BRANCH  12  15
HETATM   15  O   UNL     1       5.280  34.484  66.610  1.00  0.00    -0.356 OA
HETATM   16  C   UNL     1       6.170  34.545  67.719  1.00  0.00     0.210 C 
ENDBRANCH  12  15
ENDBRANCH   7   9
ENDBRANCH   2   3
ENDBRANCH   1   2
BRANCH   1  17
HETATM   17  C   UNL     1       6.998  28.575  57.403  1.00  0.00     0.227 C 
HETATM   18  N   UNL     1       7.498  27.881  56.331  1.00  0.00    -0.352 N 
HETATM   19  H   UNL     1       8.504  27.818  56.222  1.00  0.00     0.162 HD
HETATM   20  O   UNL     1       5.783  28.734  57.538  1.00  0.00    -0.273 OA
BRANCH  18  21
HETATM   21  C   UNL     1       6.655  27.132  55.414  1.00  0.00     0.225 C 
BRANCH  21  22
HETATM   22  C   UNL     1       6.841  25.614  55.519  1.00  0.00     0.239 C 
HETATM   23  N   UNL     1       7.643  25.101  54.514  1.00  0.00    -0.326 N 
HETATM   24  H   UNL     1       8.040  25.792  53.873  1.00  0.00     0.169 HD
HETATM   25  O   UNL     1       6.266  24.974  56.396  1.00  0.00    -0.271 OA
BRANCH  23  26
HETATM   26  C   UNL     1       7.977  23.757  54.272  1.00  0.00     0.035 A 
HETATM   27  C   UNL     1       7.471  23.005  53.207  1.00  0.00     0.032 A 
HETATM   28  C   UNL     1       7.863  21.673  53.033  1.00  0.00     0.044 A 
HETATM   29  C   UNL     1       8.760  21.098  53.923  1.00  0.00     0.116 A 
HETATM   30  F   UNL     1       9.136  19.824  53.753  1.00  0.00    -0.206 F 
HETATM   31  C   UNL     1       9.274  21.828  54.987  1.00  0.00     0.044 A 
HETATM   32  C   UNL     1       8.882  23.158  55.160  1.00  0.00     0.032 A 
ENDBRANCH  23  26
ENDBRANCH  21  22
ENDBRANCH  18  21
ENDBRANCH   1  17
TORSDOF 8
ENDMDL
MODEL 6
REMARK VINA RESULT:      -9.3      4.640      9.633
REMARK  8 active torsions:
REMARK  status: ('A' for Active; 'I' for Inactive)
REMARK    1  A    between atoms: O_2  and  C_3 
REMARK    2  A    between atoms: C_6  and  C_7 
REMARK    3  A    between atoms: C_11  and  S_12 
REMARK    4  A    between atoms: S_12  and  C_13 
REMARK    5  A    between atoms: C_13  and  C_14 
REMARK       I    between atoms: C_14  and  N_15 
REMARK    6  A    between atoms: N_15  and  C_16 
REMARK    7  A    between atoms: C_16  and  C_17 
REMARK       I    between atoms: C_17  and  N_18 
REMARK    8  A    between atoms: N_18  and  C_19 
ROOT
HETATM    1  C   UNL     1       3.886  28.981  52.510  1.00  0.00     0.185 C 
ENDROOT
BRANCH   1   2
HETATM    2  S   UNL     1       5.408  28.593  51.587  1.00  0.00    -0.081 SA
BRANCH   2   3
HETATM    3  C   UNL     1       5.604  26.938  52.010  1.00  0.00     0.185 A 
HETATM    4  N   UNL     1       4.688  26.001  51.661  1.00  0.00    -0.253 N 
HETATM    5  N   UNL     1       5.033  24.792  52.132  1.00  0.00    -0.152 NA
HETATM    6  H   UNL     1       3.833  26.113  51.130  1.00  0.00     0.191 HD
HETATM    7  C   UNL     1       6.189  25.059  52.767  1.00  0.00     0.182 A 
HETATM    8  N   UNL     1       6.568  26.387  52.698  1.00  0.00    -0.201 NA
BRANCH   7   9
HETATM    9  C   UNL     1       6.982  24.062  53.480  1.00  0.00     0.014 A 
HETATM   10  C   UNL     1       6.981  24.003  54.880  1.00  0.00     0.018 A 
HETATM   11  C   UNL     1       7.747  23.044  55.549  1.00  0.00     0.037 A 
HETATM   12  C   UNL     1       8.521  22.125  54.839  1.00  0.00     0.068 A 
HETATM   13  C   UNL     1       8.534  22.180  53.445  1.00  0.00     0.037 A 
HETATM   14  C   UNL     1       7.769  23.143  52.772  1.00  0.00     0.018 A 
BRANCH  12  15
HETATM   15  O   UNL     1       9.215  21.239  55.614  1.00  0.00    -0.356 OA
HETATM   16  C   UNL     1       8.449  20.288  56.344  1.00  0.00     0.210 C 
ENDBRANCH  12  15
ENDBRANCH   7   9
ENDBRANCH   2   3
ENDBRANCH   1   2
BRANCH   1  17
HETATM   17  C   UNL     1       4.127  29.258  53.988  1.00  0.00     0.227 C 
HETATM   18  N   UNL     1       4.000  28.210  54.863  1.00  0.00    -0.352 N 
HETATM   19  H   UNL     1       3.747  27.300  54.496  1.00  0.00     0.162 HD
HETATM   20  O   UNL     1       4.368  30.395  54.399  1.00  0.00    -0.273 OA
BRANCH  18  21
HETATM   21  C   UNL     1       4.330  28.317  56.275  1.00  0.00     0.225 C 
BRANCH  21  22
HETATM   22  C   UNL     1       5.826  28.140  56.565  1.00  0.00     0.239 C 
HETATM   23  N   UNL     1       6.492  29.346  56.699  1.00  0.00    -0.326 N 
HETATM   24  H   UNL     1       5.905  30.181  56.638  1.00  0.00     0.169 HD
HETATM   25  O   UNL     1       6.324  27.018  56.607  1.00  0.00    -0.271 OA
BRANCH  23  26
HETATM   26  C   UNL     1       7.866  29.559  56.911  1.00  0.00     0.035 A 
HETATM   27  C   UNL     1       8.411  30.001  58.120  1.00  0.00     0.032 A 
HETATM   28  C   UNL     1       9.792  30.179  58.249  1.00  0.00     0.044 A 
HETATM   29  C   UNL     1      10.625  29.915  57.170  1.00  0.00     0.116 A 
HETATM   30  F   UNL     1      11.947  30.084  57.296  1.00  0.00    -0.206 F 
HETATM   31  C   UNL     1      10.103  29.477  55.960  1.00  0.00     0.044 A 
HETATM   32  C   UNL     1       8.723  29.299  55.831  1.00  0.00     0.032 A 
ENDBRANCH  23  26
ENDBRANCH  21  22
ENDBRANCH  18  21
ENDBRANCH   1  17
TORSDOF 8
ENDMDL
MODEL 7
REMARK VINA RESULT:      -8.9      4.608     11.667
REMARK  8 active torsions:
REMARK  status: ('A' for Active; 'I' for Inactive)
REMARK    1  A    between atoms: O_2  and  C_3 
REMARK    2  A    between atoms: C_6  and  C_7 
REMARK    3  A    between atoms: C_11  and  S_12 
REMARK    4  A    between atoms: S_12  and  C_13 
REMARK    5  A    between atoms: C_13  and  C_14 
REMARK       I    between atoms: C_14  and  N_15 
REMARK    6  A    between atoms: N_15  and  C_16 
REMARK    7  A    between atoms: C_16  and  C_17 
REMARK       I    between atoms: C_17  and  N_18 
REMARK    8  A    between atoms: N_18  and  C_19 
ROOT
HETATM    1  C   UNL     1       6.018  29.645  57.578  1.00  0.00     0.185 C 
ENDROOT
BRANCH   1   2
HETATM    2  S   UNL     1       4.686  29.084  56.470  1.00  0.00    -0.081 SA
BRANCH   2   3
HETATM    3  C   UNL     1       5.098  27.421  56.323  1.00  0.00     0.185 A 
HETATM    4  N   UNL     1       4.551  26.477  57.128  1.00  0.00    -0.253 N 
HETATM    5  N   UNL     1       5.051  25.261  56.854  1.00  0.00    -0.152 NA
HETATM    6  H   UNL     1       3.864  26.589  57.863  1.00  0.00     0.191 HD
HETATM    7  C   UNL     1       5.909  25.532  55.854  1.00  0.00     0.182 A 
HETATM    8  N   UNL     1       5.950  26.868  55.500  1.00  0.00    -0.201 NA
BRANCH   7   9
HETATM    9  C   UNL     1       6.741  24.529  55.194  1.00  0.00     0.014 A 
HETATM   10  C   UNL     1       7.258  23.438  55.903  1.00  0.00     0.018 A 
HETATM   11  C   UNL     1       8.054  22.486  55.258  1.00  0.00     0.037 A 
HETATM   12  C   UNL     1       8.343  22.601  53.897  1.00  0.00     0.068 A 
HETATM   13  C   UNL     1       7.838  23.688  53.184  1.00  0.00     0.037 A 
HETATM   14  C   UNL     1       7.042  24.645  53.830  1.00  0.00     0.018 A 
BRANCH  12  15
HETATM   15  O   UNL     1       9.126  21.602  53.391  1.00  0.00    -0.356 OA
HETATM   16  C   UNL     1       8.713  20.267  53.656  1.00  0.00     0.210 C 
ENDBRANCH  12  15
ENDBRANCH   7   9
ENDBRANCH   2   3
ENDBRANCH   1   2
BRANCH   1  17
HETATM   17  C   UNL     1       5.800  31.049  58.126  1.00  0.00     0.227 C 
HETATM   18  N   UNL     1       4.535  31.386  58.536  1.00  0.00    -0.352 N 
HETATM   19  H   UNL     1       3.799  30.694  58.452  1.00  0.00     0.162 HD
HETATM   20  O   UNL     1       6.710  31.881  58.148  1.00  0.00    -0.273 OA
BRANCH  18  21
HETATM   21  C   UNL     1       4.228  32.644  59.195  1.00  0.00     0.225 C 
BRANCH  21  22
HETATM   22  C   UNL     1       4.471  32.613  60.709  1.00  0.00     0.239 C 
HETATM   23  N   UNL     1       5.602  33.318  61.085  1.00  0.00    -0.326 N 
HETATM   24  H   UNL     1       6.091  33.800  60.327  1.00  0.00     0.169 HD
HETATM   25  O   UNL     1       3.732  31.966  61.446  1.00  0.00    -0.271 OA
BRANCH  23  26
HETATM   26  C   UNL     1       6.152  33.454  62.372  1.00  0.00     0.035 A 
HETATM   27  C   UNL     1       7.230  32.699  62.845  1.00  0.00     0.032 A 
HETATM   28  C   UNL     1       7.722  32.904  64.138  1.00  0.00     0.044 A 
HETATM   29  C   UNL     1       7.136  33.862  64.955  1.00  0.00     0.116 A 
HETATM   30  F   UNL     1       7.610  34.058  66.192  1.00  0.00    -0.206 F 
HETATM   31  C   UNL     1       6.064  34.621  64.504  1.00  0.00     0.044 A 
HETATM   32  C   UNL     1       5.573  34.416  63.212  1.00  0.00     0.032 A 
ENDBRANCH  23  26
ENDBRANCH  21  22
ENDBRANCH  18  21
ENDBRANCH   1  17
TORSDOF 8
ENDMDL
MODEL 8
REMARK VINA RESULT:      -8.7      3.732      5.368
REMARK  8 active torsions:
REMARK  status: ('A' for Active; 'I' for Inactive)
REMARK    1  A    between atoms: O_2  and  C_3 
REMARK    2  A    between atoms: C_6  and  C_7 
REMARK    3  A    between atoms: C_11  and  S_12 
REMARK    4  A    between atoms: S_12  and  C_13 
REMARK    5  A    between atoms: C_13  and  C_14 
REMARK       I    between atoms: C_14  and  N_15 
REMARK    6  A    between atoms: N_15  and  C_16 
REMARK    7  A    between atoms: C_16  and  C_17 
REMARK       I    between atoms: C_17  and  N_18 
REMARK    8  A    between atoms: N_18  and  C_19 
ROOT
HETATM    1  C   UNL     1       4.569  28.899  51.546  1.00  0.00     0.185 C 
ENDROOT
BRANCH   1   2
HETATM    2  S   UNL     1       3.347  28.762  52.891  1.00  0.00    -0.081 SA
BRANCH   2   3
HETATM    3  C   UNL     1       4.397  28.487  54.225  1.00  0.00     0.185 A 
HETATM    4  N   UNL     1       4.449  27.287  54.854  1.00  0.00    -0.253 N 
HETATM    5  N   UNL     1       5.309  27.321  55.885  1.00  0.00    -0.152 NA
HETATM    6  H   UNL     1       3.938  26.438  54.649  1.00  0.00     0.191 HD
HETATM    7  C   UNL     1       5.761  28.588  55.829  1.00  0.00     0.182 A 
HETATM    8  N   UNL     1       5.214  29.330  54.799  1.00  0.00    -0.201 NA
BRANCH   7   9
HETATM    9  C   UNL     1       6.729  29.154  56.764  1.00  0.00     0.014 A 
HETATM   10  C   UNL     1       8.053  28.697  56.799  1.00  0.00     0.018 A 
HETATM   11  C   UNL     1       8.969  29.248  57.701  1.00  0.00     0.037 A 
HETATM   12  C   UNL     1       8.586  30.266  58.575  1.00  0.00     0.068 A 
HETATM   13  C   UNL     1       7.268  30.723  58.552  1.00  0.00     0.037 A 
HETATM   14  C   UNL     1       6.348  30.170  57.651  1.00  0.00     0.018 A 
BRANCH  12  15
HETATM   15  O   UNL     1       9.579  30.719  59.398  1.00  0.00    -0.356 OA
HETATM   16  C   UNL     1       9.346  31.954  60.065  1.00  0.00     0.210 C 
ENDBRANCH  12  15
ENDBRANCH   7   9
ENDBRANCH   2   3
ENDBRANCH   1   2
BRANCH   1  17
HETATM   17  C   UNL     1       5.074  27.552  51.046  1.00  0.00     0.227 C 
HETATM   18  N   UNL     1       6.054  26.927  51.774  1.00  0.00    -0.352 N 
HETATM   19  H   UNL     1       6.406  27.386  52.606  1.00  0.00     0.162 HD
HETATM   20  O   UNL     1       4.664  27.062  49.992  1.00  0.00    -0.273 OA
BRANCH  18  21
HETATM   21  C   UNL     1       6.524  25.585  51.474  1.00  0.00     0.225 C 
BRANCH  21  22
HETATM   22  C   UNL     1       6.424  24.625  52.666  1.00  0.00     0.239 C 
HETATM   23  N   UNL     1       7.510  23.771  52.759  1.00  0.00    -0.326 N 
HETATM   24  H   UNL     1       8.246  23.920  52.065  1.00  0.00     0.169 HD
HETATM   25  O   UNL     1       5.432  24.631  53.390  1.00  0.00    -0.271 OA
BRANCH  23  26
HETATM   26  C   UNL     1       7.722  22.735  53.686  1.00  0.00     0.035 A 
HETATM   27  C   UNL     1       7.727  22.916  55.072  1.00  0.00     0.032 A 
HETATM   28  C   UNL     1       7.937  21.828  55.926  1.00  0.00     0.044 A 
HETATM   29  C   UNL     1       8.141  20.563  55.391  1.00  0.00     0.116 A 
HETATM   30  F   UNL     1       8.340  19.522  56.211  1.00  0.00    -0.206 F 
HETATM   31  C   UNL     1       8.141  20.363  54.017  1.00  0.00     0.044 A 
HETATM   32  C   UNL     1       7.931  21.450  53.165  1.00  0.00     0.032 A 
ENDBRANCH  23  26
ENDBRANCH  21  22
ENDBRANCH  18  21
ENDBRANCH   1  17
TORSDOF 8
ENDMDL
MODEL 9
REMARK VINA RESULT:      -8.6      4.497      8.536
REMARK  8 active torsions:
REMARK  status: ('A' for Active; 'I' for Inactive)
REMARK    1  A    between atoms: O_2  and  C_3 
REMARK    2  A    between atoms: C_6  and  C_7 
REMARK    3  A    between atoms: C_11  and  S_12 
REMARK    4  A    between atoms: S_12  and  C_13 
REMARK    5  A    between atoms: C_13  and  C_14 
REMARK       I    between atoms: C_14  and  N_15 
REMARK    6  A    between atoms: N_15  and  C_16 
REMARK    7  A    between atoms: C_16  and  C_17 
REMARK       I    between atoms: C_17  and  N_18 
REMARK    8  A    between atoms: N_18  and  C_19 
ROOT
HETATM    1  C   UNL     1       6.737  29.637  56.538  1.00  0.00     0.185 C 
ENDROOT
BRANCH   1   2
HETATM    2  S   UNL     1       4.954  29.263  56.589  1.00  0.00    -0.081 SA
BRANCH   2   3
HETATM    3  C   UNL     1       4.801  28.332  55.151  1.00  0.00     0.185 A 
HETATM    4  N   UNL     1       4.917  26.981  55.162  1.00  0.00    -0.253 N 
HETATM    5  N   UNL     1       4.799  26.478  53.923  1.00  0.00    -0.152 NA
HETATM    6  H   UNL     1       5.079  26.362  55.947  1.00  0.00     0.191 HD
HETATM    7  C   UNL     1       4.606  27.589  53.188  1.00  0.00     0.182 A 
HETATM    8  N   UNL     1       4.595  28.754  53.932  1.00  0.00    -0.201 NA
BRANCH   7   9
HETATM    9  C   UNL     1       4.433  27.593  51.738  1.00  0.00     0.014 A 
HETATM   10  C   UNL     1       3.757  28.637  51.093  1.00  0.00     0.018 A 
HETATM   11  C   UNL     1       3.597  28.627  49.704  1.00  0.00     0.037 A 
HETATM   12  C   UNL     1       4.112  27.582  48.934  1.00  0.00     0.068 A 
HETATM   13  C   UNL     1       4.781  26.535  49.568  1.00  0.00     0.037 A 
HETATM   14  C   UNL     1       4.939  26.542  50.961  1.00  0.00     0.018 A 
BRANCH  12  15
HETATM   15  O   UNL     1       3.892  27.699  47.590  1.00  0.00    -0.356 OA
HETATM   16  C   UNL     1       2.881  26.867  47.032  1.00  0.00     0.210 C 
ENDBRANCH  12  15
ENDBRANCH   7   9
ENDBRANCH   2   3
ENDBRANCH   1   2
BRANCH   1  17
HETATM   17  C   UNL     1       7.619  28.424  56.805  1.00  0.00     0.227 C 
HETATM   18  N   UNL     1       7.103  27.417  57.579  1.00  0.00    -0.352 N 
HETATM   19  H   UNL     1       6.163  27.521  57.946  1.00  0.00     0.162 HD
HETATM   20  O   UNL     1       8.780  28.369  56.394  1.00  0.00    -0.273 OA
BRANCH  18  21
HETATM   21  C   UNL     1       7.793  26.157  57.797  1.00  0.00     0.225 C 
BRANCH  21  22
HETATM   22  C   UNL     1       7.273  25.017  56.913  1.00  0.00     0.239 C 
HETATM   23  N   UNL     1       8.276  24.409  56.177  1.00  0.00    -0.326 N 
HETATM   24  H   UNL     1       9.221  24.757  56.352  1.00  0.00     0.169 HD
HETATM   25  O   UNL     1       6.072  24.760  56.869  1.00  0.00    -0.271 OA
BRANCH  23  26
HETATM   26  C   UNL     1       8.152  23.376  55.231  1.00  0.00     0.035 A 
HETATM   27  C   UNL     1       7.988  23.589  53.859  1.00  0.00     0.032 A 
HETATM   28  C   UNL     1       7.882  22.504  52.983  1.00  0.00     0.044 A 
HETATM   29  C   UNL     1       7.941  21.209  53.481  1.00  0.00     0.116 A 
HETATM   30  F   UNL     1       7.842  20.171  52.640  1.00  0.00    -0.206 F 
HETATM   31  C   UNL     1       8.103  20.976  54.840  1.00  0.00     0.044 A 
HETATM   32  C   UNL     1       8.209  22.061  55.715  1.00  0.00     0.032 A 
ENDBRANCH  23  26
ENDBRANCH  21  22
ENDBRANCH  18  21
ENDBRANCH   1  17
TORSDOF 8
ENDMDL
MODEL 10
REMARK VINA RESULT:      -8.6      7.218     10.488
REMARK  8 active torsions:
REMARK  status: ('A' for Active; 'I' for Inactive)
REMARK    1  A    between atoms: O_2  and  C_3 
REMARK    2  A    between atoms: C_6  and  C_7 
REMARK    3  A    between atoms: C_11  and  S_12 
REMARK    4  A    between atoms: S_12  and  C_13 
REMARK    5  A    between atoms: C_13  and  C_14 
REMARK       I    between atoms: C_14  and  N_15 
REMARK    6  A    between atoms: N_15  and  C_16 
REMARK    7  A    between atoms: C_16  and  C_17 
REMARK       I    between atoms: C_17  and  N_18 
REMARK    8  A    between atoms: N_18  and  C_19 
ROOT
HETATM    1  C   UNL     1       3.473  28.711  52.747  1.00  0.00     0.185 C 
ENDROOT
BRANCH   1   2
HETATM    2  S   UNL     1       4.450  29.112  54.232  1.00  0.00    -0.081 SA
BRANCH   2   3
HETATM    3  C   UNL     1       5.701  27.940  54.093  1.00  0.00     0.185 A 
HETATM    4  N   UNL     1       6.944  28.273  53.668  1.00  0.00    -0.253 N 
HETATM    5  N   UNL     1       7.737  27.191  53.604  1.00  0.00    -0.152 NA
HETATM    6  H   UNL     1       7.305  29.181  53.405  1.00  0.00     0.191 HD
HETATM    7  C   UNL     1       6.908  26.213  54.013  1.00  0.00     0.182 A 
HETATM    8  N   UNL     1       5.638  26.657  54.331  1.00  0.00    -0.201 NA
BRANCH   7   9
HETATM    9  C   UNL     1       7.285  24.806  54.111  1.00  0.00     0.014 A 
HETATM   10  C   UNL     1       7.335  24.155  55.350  1.00  0.00     0.018 A 
HETATM   11  C   UNL     1       7.699  22.807  55.429  1.00  0.00     0.037 A 
HETATM   12  C   UNL     1       8.013  22.084  54.277  1.00  0.00     0.068 A 
HETATM   13  C   UNL     1       7.973  22.726  53.039  1.00  0.00     0.037 A 
HETATM   14  C   UNL     1       7.610  24.078  52.959  1.00  0.00     0.018 A 
BRANCH  12  15
HETATM   15  O   UNL     1       8.346  20.776  54.493  1.00  0.00    -0.356 OA
HETATM   16  C   UNL     1       8.081  20.253  55.790  1.00  0.00     0.210 C 
ENDBRANCH  12  15
ENDBRANCH   7   9
ENDBRANCH   2   3
ENDBRANCH   1   2
BRANCH   1  17
HETATM   17  C   UNL     1       4.320  28.243  51.571  1.00  0.00     0.227 C 
HETATM   18  N   UNL     1       4.222  26.928  51.197  1.00  0.00    -0.352 N 
HETATM   19  H   UNL     1       3.599  26.321  51.718  1.00  0.00     0.162 HD
HETATM   20  O   UNL     1       5.115  29.000  51.009  1.00  0.00    -0.273 OA
BRANCH  18  21
HETATM   21  C   UNL     1       4.878  26.393  50.015  1.00  0.00     0.225 C 
BRANCH  21  22
HETATM   22  C   UNL     1       4.150  26.734  48.709  1.00  0.00     0.239 C 
HETATM   23  N   UNL     1       2.981  27.447  48.918  1.00  0.00    -0.326 N 
HETATM   24  H   UNL     1       2.785  27.692  49.891  1.00  0.00     0.169 HD
HETATM   25  O   UNL     1       4.584  26.338  47.631  1.00  0.00    -0.271 OA
BRANCH  23  26
HETATM   26  C   UNL     1       2.044  27.874  47.961  1.00  0.00     0.035 A 
HETATM   27  C   UNL     1       0.968  27.098  47.520  1.00  0.00     0.032 A 
HETATM   28  C   UNL     1       0.074  27.603  46.570  1.00  0.00     0.044 A 
HETATM   29  C   UNL     1       0.258  28.883  46.064  1.00  0.00     0.116 A 
HETATM   30  F   UNL     1      -0.600  29.366  45.156  1.00  0.00    -0.206 F 
HETATM   31  C   UNL     1       1.321  29.670  46.488  1.00  0.00     0.044 A 
HETATM   32  C   UNL     1       2.214  29.164  47.437  1.00  0.00     0.032 A 
ENDBRANCH  23  26
ENDBRANCH  21  22
ENDBRANCH  18  21
ENDBRANCH   1  17
TORSDOF 8
ENDMDL
