MODEL 1
REMARK VINA RESULT:      -9.9      0.000      0.000
REMARK  6 active torsions:
REMARK  status: ('A' for Active; 'I' for Inactive)
REMARK    1  A    between atoms: C_4  and  C_5 
REMARK    2  A    between atoms: C_6  and  N_7 
REMARK    3  A    between atoms: C_9  and  C_10 
REMARK       I    between atoms: C_10  and  N_11 
REMARK    4  A    between atoms: N_11  and  C_12 
REMARK    5  A    between atoms: C_12  and  C_13 
REMARK    6  A    between atoms: C_13  and  N_14 
ROOT
HETATM    1  C   UNL     1       7.077  24.451  55.006  1.00  0.00     0.019 A 
HETATM    2  C   UNL     1       7.047  25.344  56.039  1.00  0.00     0.111 A 
HETATM    3  C   UNL     1       7.704  24.919  57.365  1.00  0.00     0.273 A 
HETATM    4  O   UNL     1       7.740  25.646  58.357  1.00  0.00    -0.266 OA
HETATM    5  N   UNL     1       8.279  23.688  57.442  1.00  0.00    -0.321 N 
HETATM    6  C   UNL     1       8.316  22.778  56.397  1.00  0.00     0.046 A 
HETATM    7  C   UNL     1       7.737  23.120  55.174  1.00  0.00     0.006 A 
HETATM    8  C   UNL     1       8.942  21.544  56.594  1.00  0.00     0.032 A 
HETATM    9  C   UNL     1       9.001  20.624  55.550  1.00  0.00     0.026 A 
HETATM   10  C   UNL     1       8.433  20.947  54.322  1.00  0.00     0.035 A 
HETATM   11 CL   UNL     1       8.509  19.821  53.024  1.00  0.00    -0.084 Cl
HETATM   12  C   UNL     1       7.805  22.180  54.131  1.00  0.00     0.038 A 
HETATM   13  H   UNL     1       8.683  23.456  58.341  1.00  0.00     0.169 HD
ENDROOT
BRANCH   2  14
HETATM   14  N   UNL     1       6.438  26.645  55.985  1.00  0.00    -0.375 N 
HETATM   15  C   UNL     1       7.278  27.842  55.690  1.00  0.00     0.137 C 
HETATM   16  C   UNL     1       6.429  29.021  55.208  1.00  0.00     0.096 C 
HETATM   17  C   UNL     1       5.175  29.268  56.056  1.00  0.00     0.017 C 
HETATM   18  C   UNL     1       4.470  27.993  56.513  1.00  0.00     0.021 C 
HETATM   19  C   UNL     1       5.467  26.977  57.058  1.00  0.00     0.123 C 
BRANCH  16  20
HETATM   20  C   UNL     1       6.119  28.907  53.725  1.00  0.00     0.223 C 
HETATM   21  N   UNL     1       4.863  29.270  53.325  1.00  0.00    -0.359 N 
HETATM   22  H   UNL     1       4.236  29.574  54.077  1.00  0.00     0.162 HD
HETATM   23  O   UNL     1       6.942  28.462  52.922  1.00  0.00    -0.273 OA
BRANCH  21  24
HETATM   24  C   UNL     1       4.422  29.516  51.955  1.00  0.00     0.150 C 
BRANCH  24  25
HETATM   25  C   UNL     1       2.991  29.109  51.535  1.00  0.00     0.254 C 
BRANCH  25  26
HETATM   26  N   UNL     1       2.942  28.333  50.242  1.00  0.00    -0.066 N 
HETATM   27  H   UNL     1       3.023  27.345  50.554  1.00  0.00     0.280 HD
HETATM   28  C   UNL     1       1.670  28.485  49.438  1.00  0.00     0.261 C 
HETATM   29  C   UNL     1       1.738  27.600  48.188  1.00  0.00     0.195 C 
HETATM   30  O   UNL     1       2.894  27.908  47.400  1.00  0.00    -0.388 OA
HETATM   31  C   UNL     1       4.103  27.678  48.135  1.00  0.00     0.195 C 
HETATM   32  C   UNL     1       4.165  28.578  49.375  1.00  0.00     0.261 C 
ENDBRANCH  25  26
ENDBRANCH  24  25
ENDBRANCH  21  24
ENDBRANCH  16  20
ENDBRANCH   2  14
BRANCH   1  33
HETATM   33  C   UNL     1       6.480  24.838  53.698  1.00  0.00    -0.023 A 
HETATM   34  C   UNL     1       5.100  25.043  53.585  1.00  0.00     0.012 A 
HETATM   35  C   UNL     1       4.546  25.469  52.376  1.00  0.00     0.001 A 
HETATM   36  C   UNL     1       5.370  25.702  51.275  1.00  0.00     0.000 A 
HETATM   37  C   UNL     1       6.747  25.528  51.386  1.00  0.00     0.001 A 
HETATM   38  C   UNL     1       7.303  25.110  52.596  1.00  0.00     0.012 A 
ENDBRANCH   1  33
TORSDOF 6
ENDMDL
MODEL 2
REMARK VINA RESULT:      -9.3      2.636      7.523
REMARK  6 active torsions:
REMARK  status: ('A' for Active; 'I' for Inactive)
REMARK    1  A    between atoms: C_4  and  C_5 
REMARK    2  A    between atoms: C_6  and  N_7 
REMARK    3  A    between atoms: C_9  and  C_10 
REMARK       I    between atoms: C_10  and  N_11 
REMARK    4  A    between atoms: N_11  and  C_12 
REMARK    5  A    between atoms: C_12  and  C_13 
REMARK    6  A    between atoms: C_13  and  N_14 
ROOT
HETATM    1  C   UNL     1       4.874  27.726  52.663  1.00  0.00     0.019 A 
HETATM    2  C   UNL     1       4.724  28.506  53.774  1.00  0.00     0.111 A 
HETATM    3  C   UNL     1       3.727  29.677  53.692  1.00  0.00     0.273 A 
HETATM    4  O   UNL     1       3.510  30.438  54.633  1.00  0.00    -0.266 OA
HETATM    5  N   UNL     1       3.049  29.873  52.528  1.00  0.00    -0.321 N 
HETATM    6  C   UNL     1       3.193  29.083  51.399  1.00  0.00     0.046 A 
HETATM    7  C   UNL     1       4.083  28.008  51.427  1.00  0.00     0.006 A 
HETATM    8  C   UNL     1       2.435  29.380  50.262  1.00  0.00     0.032 A 
HETATM    9  C   UNL     1       2.558  28.587  49.123  1.00  0.00     0.026 A 
HETATM   10  C   UNL     1       3.436  27.509  49.132  1.00  0.00     0.035 A 
HETATM   11 CL   UNL     1       3.587  26.519  47.733  1.00  0.00    -0.084 Cl
HETATM   12  C   UNL     1       4.194  27.218  50.269  1.00  0.00     0.038 A 
HETATM   13  H   UNL     1       2.417  30.664  52.525  1.00  0.00     0.169 HD
ENDROOT
BRANCH   2  14
HETATM   14  N   UNL     1       5.436  28.324  55.009  1.00  0.00    -0.375 N 
HETATM   15  C   UNL     1       4.728  27.757  56.193  1.00  0.00     0.137 C 
HETATM   16  C   UNL     1       5.712  27.201  57.225  1.00  0.00     0.096 C 
HETATM   17  C   UNL     1       6.888  28.139  57.527  1.00  0.00     0.017 C 
HETATM   18  C   UNL     1       7.439  28.863  56.300  1.00  0.00     0.021 C 
HETATM   19  C   UNL     1       6.315  29.439  55.449  1.00  0.00     0.123 C 
BRANCH  16  20
HETATM   20  C   UNL     1       6.164  25.798  56.856  1.00  0.00     0.223 C 
HETATM   21  N   UNL     1       7.465  25.475  57.126  1.00  0.00    -0.359 N 
HETATM   22  H   UNL     1       8.024  26.226  57.542  1.00  0.00     0.162 HD
HETATM   23  O   UNL     1       5.410  25.000  56.295  1.00  0.00    -0.273 OA
BRANCH  21  24
HETATM   24  C   UNL     1       8.048  24.136  57.129  1.00  0.00     0.150 C 
BRANCH  24  25
HETATM   25  C   UNL     1       8.900  23.678  55.923  1.00  0.00     0.254 C 
BRANCH  25  26
HETATM   26  N   UNL     1       8.504  22.325  55.387  1.00  0.00    -0.066 N 
HETATM   27  H   UNL     1       7.504  22.451  55.136  1.00  0.00     0.280 HD
HETATM   28  C   UNL     1       9.260  21.862  54.161  1.00  0.00     0.261 C 
HETATM   29  C   UNL     1       8.715  20.506  53.697  1.00  0.00     0.195 C 
HETATM   30  O   UNL     1       8.782  19.536  54.748  1.00  0.00    -0.388 OA
HETATM   31  C   UNL     1       7.995  19.934  55.877  1.00  0.00     0.195 C 
HETATM   32  C   UNL     1       8.510  21.253  56.464  1.00  0.00     0.261 C 
ENDBRANCH  25  26
ENDBRANCH  24  25
ENDBRANCH  21  24
ENDBRANCH  16  20
ENDBRANCH   2  14
BRANCH   1  33
HETATM   33  C   UNL     1       5.806  26.565  52.715  1.00  0.00    -0.023 A 
HETATM   34  C   UNL     1       5.308  25.268  52.885  1.00  0.00     0.012 A 
HETATM   35  C   UNL     1       6.174  24.172  52.870  1.00  0.00     0.001 A 
HETATM   36  C   UNL     1       7.541  24.366  52.673  1.00  0.00     0.000 A 
HETATM   37  C   UNL     1       8.042  25.650  52.475  1.00  0.00     0.001 A 
HETATM   38  C   UNL     1       7.177  26.745  52.483  1.00  0.00     0.012 A 
ENDBRANCH   1  33
TORSDOF 6
ENDMDL
MODEL 3
REMARK VINA RESULT:      -8.9      3.811      8.044
REMARK  6 active torsions:
REMARK  status: ('A' for Active; 'I' for Inactive)
REMARK    1  A    between atoms: C_4  and  C_5 
REMARK    2  A    between atoms: C_6  and  N_7 
REMARK    3  A    between atoms: C_9  and  C_10 
REMARK       I    between atoms: C_10  and  N_11 
REMARK    4  A    between atoms: N_11  and  C_12 
REMARK    5  A    between atoms: C_12  and  C_13 
REMARK    6  A    between atoms: C_13  and  N_14 
ROOT
HETATM    1  C   UNL     1       5.423  26.943  52.648  1.00  0.00     0.019 A 
HETATM    2  C   UNL     1       5.310  27.663  53.803  1.00  0.00     0.111 A 
HETATM    3  C   UNL     1       4.405  28.907  53.780  1.00  0.00     0.273 A 
HETATM    4  O   UNL     1       4.227  29.623  54.764  1.00  0.00    -0.266 OA
HETATM    5  N   UNL     1       3.765  29.225  52.622  1.00  0.00    -0.321 N 
HETATM    6  C   UNL     1       3.871  28.498  51.447  1.00  0.00     0.046 A 
HETATM    7  C   UNL     1       4.678  27.359  51.420  1.00  0.00     0.006 A 
HETATM    8  C   UNL     1       3.159  28.920  50.321  1.00  0.00     0.032 A 
HETATM    9  C   UNL     1       3.243  28.192  49.136  1.00  0.00     0.026 A 
HETATM   10  C   UNL     1       4.039  27.052  49.090  1.00  0.00     0.035 A 
HETATM   11 CL   UNL     1       4.142  26.142  47.634  1.00  0.00    -0.084 Cl
HETATM   12  C   UNL     1       4.752  26.636  50.217  1.00  0.00     0.038 A 
HETATM   13  H   UNL     1       3.194  30.061  52.660  1.00  0.00     0.169 HD
ENDROOT
BRANCH   2  14
HETATM   14  N   UNL     1       5.984  27.352  55.035  1.00  0.00    -0.375 N 
HETATM   15  C   UNL     1       7.467  27.488  55.119  1.00  0.00     0.137 C 
HETATM   16  C   UNL     1       7.942  27.586  56.571  1.00  0.00     0.096 C 
HETATM   17  C   UNL     1       7.304  26.547  57.502  1.00  0.00     0.017 C 
HETATM   18  C   UNL     1       5.824  26.290  57.228  1.00  0.00     0.021 C 
HETATM   19  C   UNL     1       5.561  26.114  55.738  1.00  0.00     0.123 C 
BRANCH  16  20
HETATM   20  C   UNL     1       7.810  29.003  57.099  1.00  0.00     0.223 C 
HETATM   21  N   UNL     1       8.335  29.255  58.336  1.00  0.00    -0.359 N 
HETATM   22  H   UNL     1       8.760  28.448  58.803  1.00  0.00     0.162 HD
HETATM   23  O   UNL     1       7.215  29.879  56.466  1.00  0.00    -0.273 OA
BRANCH  21  24
HETATM   24  C   UNL     1       8.583  30.568  58.927  1.00  0.00     0.150 C 
BRANCH  24  25
HETATM   25  C   UNL     1       8.542  30.727  60.464  1.00  0.00     0.254 C 
BRANCH  25  26
HETATM   26  N   UNL     1       7.192  31.151  60.989  1.00  0.00    -0.066 N 
HETATM   27  H   UNL     1       6.601  30.310  60.833  1.00  0.00     0.280 HD
HETATM   28  C   UNL     1       7.147  31.512  62.457  1.00  0.00     0.261 C 
HETATM   29  C   UNL     1       5.711  31.864  62.860  1.00  0.00     0.195 C 
HETATM   30  O   UNL     1       5.190  32.921  62.046  1.00  0.00    -0.388 OA
HETATM   31  C   UNL     1       5.151  32.545  60.663  1.00  0.00     0.195 C 
HETATM   32  C   UNL     1       6.561  32.242  60.141  1.00  0.00     0.261 C 
ENDBRANCH  25  26
ENDBRANCH  24  25
ENDBRANCH  21  24
ENDBRANCH  16  20
ENDBRANCH   2  14
BRANCH   1  33
HETATM   33  C   UNL     1       6.265  25.714  52.640  1.00  0.00    -0.023 A 
HETATM   34  C   UNL     1       7.606  25.781  52.245  1.00  0.00     0.012 A 
HETATM   35  C   UNL     1       8.415  24.643  52.298  1.00  0.00     0.001 A 
HETATM   36  C   UNL     1       7.889  23.435  52.757  1.00  0.00     0.000 A 
HETATM   37  C   UNL     1       6.564  23.366  53.177  1.00  0.00     0.001 A 
HETATM   38  C   UNL     1       5.757  24.504  53.132  1.00  0.00     0.012 A 
ENDBRANCH   1  33
TORSDOF 6
ENDMDL
MODEL 4
REMARK VINA RESULT:      -8.5      8.185     11.757
REMARK  6 active torsions:
REMARK  status: ('A' for Active; 'I' for Inactive)
REMARK    1  A    between atoms: C_4  and  C_5 
REMARK    2  A    between atoms: C_6  and  N_7 
REMARK    3  A    between atoms: C_9  and  C_10 
REMARK       I    between atoms: C_10  and  N_11 
REMARK    4  A    between atoms: N_11  and  C_12 
REMARK    5  A    between atoms: C_12  and  C_13 
REMARK    6  A    between atoms: C_13  and  N_14 
ROOT
HETATM    1  C   UNL     1       5.068  33.331  63.314  1.00  0.00     0.019 A 
HETATM    2  C   UNL     1       4.118  33.433  62.337  1.00  0.00     0.111 A 
HETATM    3  C   UNL     1       2.828  34.200  62.678  1.00  0.00     0.273 A 
HETATM    4  O   UNL     1       1.911  34.357  61.873  1.00  0.00    -0.266 OA
HETATM    5  N   UNL     1       2.699  34.738  63.922  1.00  0.00    -0.321 N 
HETATM    6  C   UNL     1       3.660  34.642  64.916  1.00  0.00     0.046 A 
HETATM    7  C   UNL     1       4.848  33.959  64.653  1.00  0.00     0.006 A 
HETATM    8  C   UNL     1       3.417  35.242  66.155  1.00  0.00     0.032 A 
HETATM    9  C   UNL     1       4.378  35.167  67.160  1.00  0.00     0.026 A 
HETATM   10  C   UNL     1       5.571  34.494  66.916  1.00  0.00     0.035 A 
HETATM   11 CL   UNL     1       6.767  34.405  68.149  1.00  0.00    -0.084 Cl
HETATM   12  C   UNL     1       5.808  33.893  65.678  1.00  0.00     0.038 A 
HETATM   13  H   UNL     1       1.825  35.219  64.096  1.00  0.00     0.169 HD
ENDROOT
BRANCH   2  14
HETATM   14  N   UNL     1       4.227  32.866  61.021  1.00  0.00    -0.375 N 
HETATM   15  C   UNL     1       4.876  33.651  59.931  1.00  0.00     0.137 C 
HETATM   16  C   UNL     1       5.326  32.749  58.779  1.00  0.00     0.096 C 
HETATM   17  C   UNL     1       4.267  31.731  58.340  1.00  0.00     0.017 C 
HETATM   18  C   UNL     1       3.480  31.112  59.493  1.00  0.00     0.021 C 
HETATM   19  C   UNL     1       3.026  32.177  60.484  1.00  0.00     0.123 C 
BRANCH  16  20
HETATM   20  C   UNL     1       6.669  32.104  59.076  1.00  0.00     0.223 C 
HETATM   21  N   UNL     1       6.747  30.746  58.942  1.00  0.00    -0.359 N 
HETATM   22  H   UNL     1       5.875  30.284  58.665  1.00  0.00     0.162 HD
HETATM   23  O   UNL     1       7.633  32.764  59.468  1.00  0.00    -0.273 OA
BRANCH  21  24
HETATM   24  C   UNL     1       7.966  29.943  58.893  1.00  0.00     0.150 C 
BRANCH  24  25
HETATM   25  C   UNL     1       8.211  29.008  57.687  1.00  0.00     0.254 C 
BRANCH  25  26
HETATM   26  N   UNL     1       7.213  27.882  57.586  1.00  0.00    -0.066 N 
HETATM   27  H   UNL     1       6.828  27.818  58.549  1.00  0.00     0.280 HD
HETATM   28  C   UNL     1       6.071  28.106  56.620  1.00  0.00     0.261 C 
HETATM   29  C   UNL     1       5.111  26.912  56.665  1.00  0.00     0.195 C 
HETATM   30  O   UNL     1       5.798  25.686  56.387  1.00  0.00    -0.388 OA
HETATM   31  C   UNL     1       6.823  25.430  57.355  1.00  0.00     0.195 C 
HETATM   32  C   UNL     1       7.880  26.540  57.336  1.00  0.00     0.261 C 
ENDBRANCH  25  26
ENDBRANCH  24  25
ENDBRANCH  21  24
ENDBRANCH  16  20
ENDBRANCH   2  14
BRANCH   1  33
HETATM   33  C   UNL     1       6.343  32.624  63.011  1.00  0.00    -0.023 A 
HETATM   34  C   UNL     1       6.351  31.239  62.811  1.00  0.00     0.012 A 
HETATM   35  C   UNL     1       7.534  30.582  62.464  1.00  0.00     0.001 A 
HETATM   36  C   UNL     1       8.714  31.309  62.305  1.00  0.00     0.000 A 
HETATM   37  C   UNL     1       8.710  32.691  62.476  1.00  0.00     0.001 A 
HETATM   38  C   UNL     1       7.527  33.349  62.815  1.00  0.00     0.012 A 
ENDBRANCH   1  33
TORSDOF 6
ENDMDL
MODEL 5
REMARK VINA RESULT:      -8.4      4.344      8.283
REMARK  6 active torsions:
REMARK  status: ('A' for Active; 'I' for Inactive)
REMARK    1  A    between atoms: C_4  and  C_5 
REMARK    2  A    between atoms: C_6  and  N_7 
REMARK    3  A    between atoms: C_9  and  C_10 
REMARK       I    between atoms: C_10  and  N_11 
REMARK    4  A    between atoms: N_11  and  C_12 
REMARK    5  A    between atoms: C_12  and  C_13 
REMARK    6  A    between atoms: C_13  and  N_14 
ROOT
HETATM    1  C   UNL     1       5.901  27.778  54.811  1.00  0.00     0.019 A 
HETATM    2  C   UNL     1       4.816  28.513  54.428  1.00  0.00     0.111 A 
HETATM    3  C   UNL     1       3.869  27.892  53.385  1.00  0.00     0.273 A 
HETATM    4  O   UNL     1       2.860  28.463  52.973  1.00  0.00    -0.266 OA
HETATM    5  N   UNL     1       4.155  26.652  52.903  1.00  0.00    -0.321 N 
HETATM    6  C   UNL     1       5.253  25.899  53.290  1.00  0.00     0.046 A 
HETATM    7  C   UNL     1       6.137  26.418  54.236  1.00  0.00     0.006 A 
HETATM    8  C   UNL     1       5.438  24.632  52.728  1.00  0.00     0.032 A 
HETATM    9  C   UNL     1       6.528  23.856  53.116  1.00  0.00     0.026 A 
HETATM   10  C   UNL     1       7.420  24.355  54.061  1.00  0.00     0.035 A 
HETATM   11 CL   UNL     1       8.763  23.400  54.554  1.00  0.00    -0.084 Cl
HETATM   12  C   UNL     1       7.231  25.622  54.617  1.00  0.00     0.038 A 
HETATM   13  H   UNL     1       3.507  26.298  52.210  1.00  0.00     0.169 HD
ENDROOT
BRANCH   2  14
HETATM   14  N   UNL     1       4.499  29.827  54.915  1.00  0.00    -0.375 N 
HETATM   15  C   UNL     1       3.329  30.016  55.822  1.00  0.00     0.137 C 
HETATM   16  C   UNL     1       3.426  31.331  56.600  1.00  0.00     0.096 C 
HETATM   17  C   UNL     1       3.810  32.536  55.732  1.00  0.00     0.017 C 
HETATM   18  C   UNL     1       4.865  32.230  54.670  1.00  0.00     0.021 C 
HETATM   19  C   UNL     1       4.543  30.938  53.930  1.00  0.00     0.123 C 
BRANCH  16  20
HETATM   20  C   UNL     1       4.315  31.184  57.822  1.00  0.00     0.223 C 
HETATM   21  N   UNL     1       5.375  32.042  57.923  1.00  0.00    -0.359 N 
HETATM   22  H   UNL     1       5.480  32.701  57.145  1.00  0.00     0.162 HD
HETATM   23  O   UNL     1       4.124  30.303  58.662  1.00  0.00    -0.273 OA
BRANCH  21  24
HETATM   24  C   UNL     1       6.189  32.286  59.111  1.00  0.00     0.150 C 
BRANCH  24  25
HETATM   25  C   UNL     1       5.555  32.991  60.332  1.00  0.00     0.254 C 
BRANCH  25  26
HETATM   26  N   UNL     1       6.222  32.643  61.640  1.00  0.00    -0.066 N 
HETATM   27  H   UNL     1       5.744  31.766  61.926  1.00  0.00     0.280 HD
HETATM   28  C   UNL     1       7.711  32.384  61.565  1.00  0.00     0.261 C 
HETATM   29  C   UNL     1       8.238  31.989  62.949  1.00  0.00     0.195 C 
HETATM   30  O   UNL     1       7.931  32.992  63.924  1.00  0.00    -0.388 OA
HETATM   31  C   UNL     1       6.516  33.174  64.058  1.00  0.00     0.195 C 
HETATM   32  C   UNL     1       5.900  33.645  62.736  1.00  0.00     0.261 C 
ENDBRANCH  25  26
ENDBRANCH  24  25
ENDBRANCH  21  24
ENDBRANCH  16  20
ENDBRANCH   2  14
BRANCH   1  33
HETATM   33  C   UNL     1       6.823  28.332  55.842  1.00  0.00    -0.023 A 
HETATM   34  C   UNL     1       7.978  29.021  55.457  1.00  0.00     0.012 A 
HETATM   35  C   UNL     1       8.810  29.597  56.420  1.00  0.00     0.001 A 
HETATM   36  C   UNL     1       8.485  29.496  57.773  1.00  0.00     0.000 A 
HETATM   37  C   UNL     1       7.323  28.836  58.163  1.00  0.00     0.001 A 
HETATM   38  C   UNL     1       6.487  28.266  57.201  1.00  0.00     0.012 A 
ENDBRANCH   1  33
TORSDOF 6
ENDMDL
MODEL 6
REMARK VINA RESULT:      -8.4      3.468      7.167
REMARK  6 active torsions:
REMARK  status: ('A' for Active; 'I' for Inactive)
REMARK    1  A    between atoms: C_4  and  C_5 
REMARK    2  A    between atoms: C_6  and  N_7 
REMARK    3  A    between atoms: C_9  and  C_10 
REMARK       I    between atoms: C_10  and  N_11 
REMARK    4  A    between atoms: N_11  and  C_12 
REMARK    5  A    between atoms: C_12  and  C_13 
REMARK    6  A    between atoms: C_13  and  N_14 
ROOT
HETATM    1  C   UNL     1       5.405  26.872  52.856  1.00  0.00     0.019 A 
HETATM    2  C   UNL     1       5.266  27.496  54.063  1.00  0.00     0.111 A 
HETATM    3  C   UNL     1       4.326  28.713  54.131  1.00  0.00     0.273 A 
HETATM    4  O   UNL     1       4.123  29.344  55.167  1.00  0.00    -0.266 OA
HETATM    5  N   UNL     1       3.682  29.102  52.997  1.00  0.00    -0.321 N 
HETATM    6  C   UNL     1       3.815  28.472  51.769  1.00  0.00     0.046 A 
HETATM    7  C   UNL     1       4.654  27.362  51.659  1.00  0.00     0.006 A 
HETATM    8  C   UNL     1       3.097  28.961  50.675  1.00  0.00     0.032 A 
HETATM    9  C   UNL     1       3.207  28.331  49.437  1.00  0.00     0.026 A 
HETATM   10  C   UNL     1       4.035  27.221  49.308  1.00  0.00     0.035 A 
HETATM   11 CL   UNL     1       4.171  26.431  47.786  1.00  0.00    -0.084 Cl
HETATM   12  C   UNL     1       4.754  26.738  50.404  1.00  0.00     0.038 A 
HETATM   13  H   UNL     1       3.088  29.916  53.096  1.00  0.00     0.169 HD
ENDROOT
BRANCH   2  14
HETATM   14  N   UNL     1       5.943  27.109  55.271  1.00  0.00    -0.375 N 
HETATM   15  C   UNL     1       7.407  27.357  55.409  1.00  0.00     0.137 C 
HETATM   16  C   UNL     1       7.847  27.334  56.875  1.00  0.00     0.096 C 
HETATM   17  C   UNL     1       7.284  26.150  57.671  1.00  0.00     0.017 C 
HETATM   18  C   UNL     1       5.836  25.801  57.332  1.00  0.00     0.021 C 
HETATM   19  C   UNL     1       5.616  25.770  55.824  1.00  0.00     0.123 C 
BRANCH  16  20
HETATM   20  C   UNL     1       7.584  28.669  57.550  1.00  0.00     0.223 C 
HETATM   21  N   UNL     1       6.856  29.587  56.845  1.00  0.00    -0.359 N 
HETATM   22  H   UNL     1       6.567  29.289  55.908  1.00  0.00     0.162 HD
HETATM   23  O   UNL     1       8.044  28.936  58.662  1.00  0.00    -0.273 OA
BRANCH  21  24
HETATM   24  C   UNL     1       6.241  30.803  57.371  1.00  0.00     0.150 C 
BRANCH  24  25
HETATM   25  C   UNL     1       4.982  30.692  58.260  1.00  0.00     0.254 C 
BRANCH  25  26
HETATM   26  N   UNL     1       4.429  32.029  58.689  1.00  0.00    -0.066 N 
HETATM   27  H   UNL     1       5.256  32.510  59.093  1.00  0.00     0.280 HD
HETATM   28  C   UNL     1       3.861  32.886  57.580  1.00  0.00     0.261 C 
HETATM   29  C   UNL     1       3.392  34.229  58.152  1.00  0.00     0.195 C 
HETATM   30  O   UNL     1       2.440  34.038  59.204  1.00  0.00    -0.388 OA
HETATM   31  C   UNL     1       3.007  33.300  60.294  1.00  0.00     0.195 C 
HETATM   32  C   UNL     1       3.443  31.903  59.838  1.00  0.00     0.261 C 
ENDBRANCH  25  26
ENDBRANCH  24  25
ENDBRANCH  21  24
ENDBRANCH  16  20
ENDBRANCH   2  14
BRANCH   1  33
HETATM   33  C   UNL     1       6.281  25.672  52.758  1.00  0.00    -0.023 A 
HETATM   34  C   UNL     1       7.619  25.805  52.367  1.00  0.00     0.012 A 
HETATM   35  C   UNL     1       8.460  24.690  52.337  1.00  0.00     0.001 A 
HETATM   36  C   UNL     1       7.970  23.438  52.707  1.00  0.00     0.000 A 
HETATM   37  C   UNL     1       6.649  23.300  53.123  1.00  0.00     0.001 A 
HETATM   38  C   UNL     1       5.810  24.415  53.161  1.00  0.00     0.012 A 
ENDBRANCH   1  33
TORSDOF 6
ENDMDL
MODEL 7
REMARK VINA RESULT:      -8.4      5.286      8.910
REMARK  6 active torsions:
REMARK  status: ('A' for Active; 'I' for Inactive)
REMARK    1  A    between atoms: C_4  and  C_5 
REMARK    2  A    between atoms: C_6  and  N_7 
REMARK    3  A    between atoms: C_9  and  C_10 
REMARK       I    between atoms: C_10  and  N_11 
REMARK    4  A    between atoms: N_11  and  C_12 
REMARK    5  A    between atoms: C_12  and  C_13 
REMARK    6  A    between atoms: C_13  and  N_14 
ROOT
HETATM    1  C   UNL     1       6.191  31.928  59.172  1.00  0.00     0.019 A 
HETATM    2  C   UNL     1       7.483  31.572  59.439  1.00  0.00     0.111 A 
HETATM    3  C   UNL     1       8.104  32.083  60.752  1.00  0.00     0.273 A 
HETATM    4  O   UNL     1       9.255  31.819  61.094  1.00  0.00    -0.266 OA
HETATM    5  N   UNL     1       7.343  32.854  61.575  1.00  0.00    -0.321 N 
HETATM    6  C   UNL     1       6.031  33.215  61.313  1.00  0.00     0.046 A 
HETATM    7  C   UNL     1       5.423  32.773  60.136  1.00  0.00     0.006 A 
HETATM    8  C   UNL     1       5.346  34.007  62.240  1.00  0.00     0.032 A 
HETATM    9  C   UNL     1       4.023  34.368  61.998  1.00  0.00     0.026 A 
HETATM   10  C   UNL     1       3.398  33.934  60.833  1.00  0.00     0.035 A 
HETATM   11 CL   UNL     1       1.761  34.366  60.531  1.00  0.00    -0.084 Cl
HETATM   12  C   UNL     1       4.087  33.145  59.908  1.00  0.00     0.038 A 
HETATM   13  H   UNL     1       7.805  33.173  62.417  1.00  0.00     0.169 HD
ENDROOT
BRANCH   2  14
HETATM   14  N   UNL     1       8.309  30.768  58.580  1.00  0.00    -0.375 N 
HETATM   15  C   UNL     1       8.267  29.282  58.697  1.00  0.00     0.137 C 
HETATM   16  C   UNL     1       8.812  28.602  57.438  1.00  0.00     0.096 C 
HETATM   17  C   UNL     1      10.129  29.204  56.931  1.00  0.00     0.017 C 
HETATM   18  C   UNL     1      10.201  30.726  57.035  1.00  0.00     0.021 C 
HETATM   19  C   UNL     1       9.715  31.208  58.397  1.00  0.00     0.123 C 
BRANCH  16  20
HETATM   20  C   UNL     1       7.751  28.521  56.353  1.00  0.00     0.223 C 
HETATM   21  N   UNL     1       7.178  27.298  56.139  1.00  0.00    -0.359 N 
HETATM   22  H   UNL     1       7.535  26.539  56.727  1.00  0.00     0.162 HD
HETATM   23  O   UNL     1       7.452  29.497  55.663  1.00  0.00    -0.273 OA
BRANCH  21  24
HETATM   24  C   UNL     1       5.965  27.026  55.371  1.00  0.00     0.150 C 
BRANCH  24  25
HETATM   25  C   UNL     1       5.597  25.565  55.028  1.00  0.00     0.254 C 
BRANCH  25  26
HETATM   26  N   UNL     1       6.778  24.732  54.596  1.00  0.00    -0.066 N 
HETATM   27  H   UNL     1       7.542  25.431  54.508  1.00  0.00     0.280 HD
HETATM   28  C   UNL     1       7.211  23.659  55.570  1.00  0.00     0.261 C 
HETATM   29  C   UNL     1       8.449  22.936  55.029  1.00  0.00     0.195 C 
HETATM   30  O   UNL     1       8.201  22.391  53.728  1.00  0.00    -0.388 OA
HETATM   31  C   UNL     1       7.877  23.420  52.784  1.00  0.00     0.195 C 
HETATM   32  C   UNL     1       6.600  24.159  53.200  1.00  0.00     0.261 C 
ENDBRANCH  25  26
ENDBRANCH  24  25
ENDBRANCH  21  24
ENDBRANCH  16  20
ENDBRANCH   2  14
BRANCH   1  33
HETATM   33  C   UNL     1       5.546  31.427  57.927  1.00  0.00    -0.023 A 
HETATM   34  C   UNL     1       4.855  30.210  57.931  1.00  0.00     0.012 A 
HETATM   35  C   UNL     1       4.194  29.769  56.783  1.00  0.00     0.001 A 
HETATM   36  C   UNL     1       4.212  30.547  55.626  1.00  0.00     0.000 A 
HETATM   37  C   UNL     1       4.873  31.773  55.620  1.00  0.00     0.001 A 
HETATM   38  C   UNL     1       5.527  32.218  56.769  1.00  0.00     0.012 A 
ENDBRANCH   1  33
TORSDOF 6
ENDMDL
MODEL 8
REMARK VINA RESULT:      -8.2      4.932      7.873
REMARK  6 active torsions:
REMARK  status: ('A' for Active; 'I' for Inactive)
REMARK    1  A    between atoms: C_4  and  C_5 
REMARK    2  A    between atoms: C_6  and  N_7 
REMARK    3  A    between atoms: C_9  and  C_10 
REMARK       I    between atoms: C_10  and  N_11 
REMARK    4  A    between atoms: N_11  and  C_12 
REMARK    5  A    between atoms: C_12  and  C_13 
REMARK    6  A    between atoms: C_13  and  N_14 
ROOT
HETATM    1  C   UNL     1       6.208  31.556  58.835  1.00  0.00     0.019 A 
HETATM    2  C   UNL     1       7.303  30.740  58.870  1.00  0.00     0.111 A 
HETATM    3  C   UNL     1       8.265  30.891  60.062  1.00  0.00     0.273 A 
HETATM    4  O   UNL     1       9.277  30.206  60.196  1.00  0.00    -0.266 OA
HETATM    5  N   UNL     1       7.978  31.818  61.016  1.00  0.00    -0.321 N 
HETATM    6  C   UNL     1       6.867  32.646  60.990  1.00  0.00     0.046 A 
HETATM    7  C   UNL     1       5.964  32.543  59.931  1.00  0.00     0.006 A 
HETATM    8  C   UNL     1       6.675  33.557  62.033  1.00  0.00     0.032 A 
HETATM    9  C   UNL     1       5.555  34.386  62.030  1.00  0.00     0.026 A 
HETATM   10  C   UNL     1       4.642  34.297  60.985  1.00  0.00     0.035 A 
HETATM   11 CL   UNL     1       3.252  35.310  60.977  1.00  0.00    -0.084 Cl
HETATM   12  C   UNL     1       4.840  33.387  59.943  1.00  0.00     0.038 A 
HETATM   13  H   UNL     1       8.651  31.884  61.770  1.00  0.00     0.169 HD
ENDROOT
BRANCH   2  14
HETATM   14  N   UNL     1       7.632  29.762  57.869  1.00  0.00    -0.375 N 
HETATM   15  C   UNL     1       7.400  28.315  58.148  1.00  0.00     0.137 C 
HETATM   16  C   UNL     1       7.347  27.494  56.857  1.00  0.00     0.096 C 
HETATM   17  C   UNL     1       8.474  27.820  55.869  1.00  0.00     0.017 C 
HETATM   18  C   UNL     1       8.817  29.306  55.783  1.00  0.00     0.021 C 
HETATM   19  C   UNL     1       8.931  29.927  57.169  1.00  0.00     0.123 C 
BRANCH  16  20
HETATM   20  C   UNL     1       5.971  27.563  56.217  1.00  0.00     0.223 C 
HETATM   21  N   UNL     1       5.905  28.058  54.944  1.00  0.00    -0.359 N 
HETATM   22  H   UNL     1       6.800  28.355  54.544  1.00  0.00     0.162 HD
HETATM   23  O   UNL     1       4.953  27.234  56.830  1.00  0.00    -0.273 OA
BRANCH  21  24
HETATM   24  C   UNL     1       4.769  27.963  54.030  1.00  0.00     0.150 C 
BRANCH  24  25
HETATM   25  C   UNL     1       4.616  26.709  53.140  1.00  0.00     0.254 C 
BRANCH  25  26
HETATM   26  N   UNL     1       4.242  27.025  51.713  1.00  0.00    -0.066 N 
HETATM   27  H   UNL     1       3.300  26.599  51.613  1.00  0.00     0.280 HD
HETATM   28  C   UNL     1       4.148  28.497  51.375  1.00  0.00     0.261 C 
HETATM   29  C   UNL     1       3.706  28.666  49.917  1.00  0.00     0.195 C 
HETATM   30  O   UNL     1       4.593  27.981  49.026  1.00  0.00    -0.388 OA
HETATM   31  C   UNL     1       4.615  26.573  49.290  1.00  0.00     0.195 C 
HETATM   32  C   UNL     1       5.118  26.293  50.711  1.00  0.00     0.261 C 
ENDBRANCH  25  26
ENDBRANCH  24  25
ENDBRANCH  21  24
ENDBRANCH  16  20
ENDBRANCH   2  14
BRANCH   1  33
HETATM   33  C   UNL     1       5.238  31.417  57.714  1.00  0.00    -0.023 A 
HETATM   34  C   UNL     1       5.437  32.117  56.519  1.00  0.00     0.012 A 
HETATM   35  C   UNL     1       4.564  31.939  55.443  1.00  0.00     0.001 A 
HETATM   36  C   UNL     1       3.493  31.053  55.553  1.00  0.00     0.000 A 
HETATM   37  C   UNL     1       3.303  30.331  56.728  1.00  0.00     0.001 A 
HETATM   38  C   UNL     1       4.179  30.502  57.801  1.00  0.00     0.012 A 
ENDBRANCH   1  33
TORSDOF 6
ENDMDL
MODEL 9
REMARK VINA RESULT:      -8.1      3.338      6.375
REMARK  6 active torsions:
REMARK  status: ('A' for Active; 'I' for Inactive)
REMARK    1  A    between atoms: C_4  and  C_5 
REMARK    2  A    between atoms: C_6  and  N_7 
REMARK    3  A    between atoms: C_9  and  C_10 
REMARK       I    between atoms: C_10  and  N_11 
REMARK    4  A    between atoms: N_11  and  C_12 
REMARK    5  A    between atoms: C_12  and  C_13 
REMARK    6  A    between atoms: C_13  and  N_14 
ROOT
HETATM    1  C   UNL     1       6.279  26.445  54.038  1.00  0.00     0.019 A 
HETATM    2  C   UNL     1       5.689  26.759  52.847  1.00  0.00     0.111 A 
HETATM    3  C   UNL     1       5.628  25.658  51.773  1.00  0.00     0.273 A 
HETATM    4  O   UNL     1       5.115  25.829  50.668  1.00  0.00    -0.266 OA
HETATM    5  N   UNL     1       6.156  24.437  52.060  1.00  0.00    -0.321 N 
HETATM    6  C   UNL     1       6.752  24.111  53.268  1.00  0.00     0.046 A 
HETATM    7  C   UNL     1       6.828  25.075  54.275  1.00  0.00     0.006 A 
HETATM    8  C   UNL     1       7.254  22.818  53.450  1.00  0.00     0.032 A 
HETATM    9  C   UNL     1       7.844  22.469  54.663  1.00  0.00     0.026 A 
HETATM   10  C   UNL     1       7.925  23.415  55.680  1.00  0.00     0.035 A 
HETATM   11 CL   UNL     1       8.643  22.990  57.184  1.00  0.00    -0.084 Cl
HETATM   12  C   UNL     1       7.425  24.706  55.492  1.00  0.00     0.038 A 
HETATM   13  H   UNL     1       6.100  23.756  51.313  1.00  0.00     0.169 HD
ENDROOT
BRANCH   2  14
HETATM   14  N   UNL     1       5.134  28.043  52.517  1.00  0.00    -0.375 N 
HETATM   15  C   UNL     1       3.705  28.332  52.831  1.00  0.00     0.137 C 
HETATM   16  C   UNL     1       3.427  29.837  52.860  1.00  0.00     0.096 C 
HETATM   17  C   UNL     1       4.025  30.599  51.671  1.00  0.00     0.017 C 
HETATM   18  C   UNL     1       5.412  30.115  51.253  1.00  0.00     0.021 C 
HETATM   19  C   UNL     1       5.465  28.594  51.178  1.00  0.00     0.123 C 
BRANCH  16  20
HETATM   20  C   UNL     1       3.816  30.443  54.197  1.00  0.00     0.223 C 
HETATM   21  N   UNL     1       4.632  31.540  54.167  1.00  0.00    -0.359 N 
HETATM   22  H   UNL     1       4.921  31.843  53.232  1.00  0.00     0.162 HD
HETATM   23  O   UNL     1       3.455  29.944  55.266  1.00  0.00    -0.273 OA
BRANCH  21  24
HETATM   24  C   UNL     1       4.908  32.452  55.273  1.00  0.00     0.150 C 
BRANCH  24  25
HETATM   25  C   UNL     1       3.754  33.285  55.875  1.00  0.00     0.254 C 
BRANCH  25  26
HETATM   26  N   UNL     1       3.774  33.341  57.383  1.00  0.00    -0.066 N 
HETATM   27  H   UNL     1       4.777  33.503  57.602  1.00  0.00     0.280 HD
HETATM   28  C   UNL     1       2.955  34.449  58.007  1.00  0.00     0.261 C 
HETATM   29  C   UNL     1       3.116  34.418  59.531  1.00  0.00     0.195 C 
HETATM   30  O   UNL     1       2.754  33.138  60.062  1.00  0.00    -0.388 OA
HETATM   31  C   UNL     1       3.589  32.099  59.536  1.00  0.00     0.195 C 
HETATM   32  C   UNL     1       3.443  31.999  58.014  1.00  0.00     0.261 C 
ENDBRANCH  25  26
ENDBRANCH  24  25
ENDBRANCH  21  24
ENDBRANCH  16  20
ENDBRANCH   2  14
BRANCH   1  33
HETATM   33  C   UNL     1       6.329  27.474  55.114  1.00  0.00    -0.023 A 
HETATM   34  C   UNL     1       5.462  27.392  56.209  1.00  0.00     0.012 A 
HETATM   35  C   UNL     1       5.550  28.319  57.250  1.00  0.00     0.001 A 
HETATM   36  C   UNL     1       6.513  29.327  57.207  1.00  0.00     0.000 A 
HETATM   37  C   UNL     1       7.399  29.399  56.135  1.00  0.00     0.001 A 
HETATM   38  C   UNL     1       7.316  28.470  55.097  1.00  0.00     0.012 A 
ENDBRANCH   1  33
TORSDOF 6
ENDMDL
MODEL 10
REMARK VINA RESULT:      -8.1      2.513      4.373
REMARK  6 active torsions:
REMARK  status: ('A' for Active; 'I' for Inactive)
REMARK    1  A    between atoms: C_4  and  C_5 
REMARK    2  A    between atoms: C_6  and  N_7 
REMARK    3  A    between atoms: C_9  and  C_10 
REMARK       I    between atoms: C_10  and  N_11 
REMARK    4  A    between atoms: N_11  and  C_12 
REMARK    5  A    between atoms: C_12  and  C_13 
REMARK    6  A    between atoms: C_13  and  N_14 
ROOT
HETATM    1  C   UNL     1       6.206  26.379  54.258  1.00  0.00     0.019 A 
HETATM    2  C   UNL     1       5.595  26.537  53.047  1.00  0.00     0.111 A 
HETATM    3  C   UNL     1       5.588  25.330  52.091  1.00  0.00     0.273 A 
HETATM    4  O   UNL     1       5.061  25.360  50.980  1.00  0.00    -0.266 OA
HETATM    5  N   UNL     1       6.183  24.175  52.497  1.00  0.00    -0.321 N 
HETATM    6  C   UNL     1       6.802  24.007  53.726  1.00  0.00     0.046 A 
HETATM    7  C   UNL     1       6.830  25.072  54.627  1.00  0.00     0.006 A 
HETATM    8  C   UNL     1       7.374  22.769  54.033  1.00  0.00     0.032 A 
HETATM    9  C   UNL     1       7.987  22.578  55.269  1.00  0.00     0.026 A 
HETATM   10  C   UNL     1       8.022  23.626  56.183  1.00  0.00     0.035 A 
HETATM   11 CL   UNL     1       8.769  23.397  57.715  1.00  0.00    -0.084 Cl
HETATM   12  C   UNL     1       7.452  24.863  55.870  1.00  0.00     0.038 A 
HETATM   13  H   UNL     1       6.161  23.419  51.824  1.00  0.00     0.169 HD
ENDROOT
BRANCH   2  14
HETATM   14  N   UNL     1       4.969  27.749  52.593  1.00  0.00    -0.375 N 
HETATM   15  C   UNL     1       5.814  28.900  52.162  1.00  0.00     0.137 C 
HETATM   16  C   UNL     1       5.028  29.881  51.289  1.00  0.00     0.096 C 
HETATM   17  C   UNL     1       3.643  30.232  51.846  1.00  0.00     0.017 C 
HETATM   18  C   UNL     1       2.905  29.050  52.472  1.00  0.00     0.021 C 
HETATM   19  C   UNL     1       3.822  28.252  53.391  1.00  0.00     0.123 C 
BRANCH  16  20
HETATM   20  C   UNL     1       4.976  29.413  49.845  1.00  0.00     0.223 C 
HETATM   21  N   UNL     1       4.253  30.178  48.972  1.00  0.00    -0.359 N 
HETATM   22  H   UNL     1       3.795  30.996  49.384  1.00  0.00     0.162 HD
HETATM   23  O   UNL     1       5.518  28.367  49.481  1.00  0.00    -0.273 OA
BRANCH  21  24
HETATM   24  C   UNL     1       4.284  30.101  47.513  1.00  0.00     0.150 C 
BRANCH  24  25
HETATM   25  C   UNL     1       3.002  30.419  46.710  1.00  0.00     0.254 C 
BRANCH  25  26
HETATM   26  N   UNL     1       2.123  29.215  46.478  1.00  0.00    -0.066 N 
HETATM   27  H   UNL     1       2.288  28.989  45.478  1.00  0.00     0.280 HD
HETATM   28  C   UNL     1       2.451  27.997  47.313  1.00  0.00     0.261 C 
HETATM   29  C   UNL     1       1.519  26.841  46.932  1.00  0.00     0.195 C 
HETATM   30  O   UNL     1       0.145  27.217  47.074  1.00  0.00    -0.388 OA
HETATM   31  C   UNL     1      -0.187  28.316  46.217  1.00  0.00     0.195 C 
HETATM   32  C   UNL     1       0.645  29.554  46.570  1.00  0.00     0.261 C 
ENDBRANCH  25  26
ENDBRANCH  24  25
ENDBRANCH  21  24
ENDBRANCH  16  20
ENDBRANCH   2  14
BRANCH   1  33
HETATM   33  C   UNL     1       6.205  27.515  55.222  1.00  0.00    -0.023 A 
HETATM   34  C   UNL     1       5.205  27.612  56.196  1.00  0.00     0.012 A 
HETATM   35  C   UNL     1       5.238  28.640  57.142  1.00  0.00     0.001 A 
HETATM   36  C   UNL     1       6.277  29.569  57.126  1.00  0.00     0.000 A 
HETATM   37  C   UNL     1       7.292  29.463  56.178  1.00  0.00     0.001 A 
HETATM   38  C   UNL     1       7.264  28.433  55.237  1.00  0.00     0.012 A 
ENDBRANCH   1  33
TORSDOF 6
ENDMDL
