MODEL 1
REMARK VINA RESULT:      -9.0      0.000      0.000
REMARK  3 active torsions:
REMARK  status: ('A' for Active; 'I' for Inactive)
REMARK    1  A    between atoms: C_7  and  C_8 
REMARK    2  A    between atoms: N_11  and  C_13 
REMARK    3  A    between atoms: C_13  and  C_14 
ROOT
HETATM    1  C   UNL     1       6.064  25.610  56.701  1.00  0.00     0.024 C 
HETATM    2  C   UNL     1       5.612  27.085  56.664  1.00  0.00     0.037 C 
HETATM    3  C   UNL     1       6.743  28.009  56.227  1.00  0.00     0.236 C 
HETATM    4  N   UNL     1       7.946  27.857  57.131  1.00  0.00    -0.067 N 
HETATM    5  H   UNL     1       7.693  28.210  58.064  1.00  0.00     0.280 HD
HETATM    6  C   UNL     1       8.386  26.418  57.302  1.00  0.00     0.236 C 
HETATM    7  C   UNL     1       7.207  25.550  57.716  1.00  0.00     0.037 C 
ENDROOT
BRANCH   1   8
HETATM    8  C   UNL     1       6.380  25.064  55.312  1.00  0.00    -0.026 A 
HETATM    9  C   UNL     1       6.988  23.813  54.906  1.00  0.00    -0.001 A 
HETATM   10  C   UNL     1       7.127  23.852  53.513  1.00  0.00     0.045 A 
HETATM   11  C   UNL     1       7.454  22.649  55.564  1.00  0.00     0.017 A 
HETATM   12  C   UNL     1       7.745  22.836  52.771  1.00  0.00     0.072 A 
HETATM   13  N   UNL     1       6.536  25.007  53.071  1.00  0.00    -0.365 N 
HETATM   14  C   UNL     1       8.223  21.733  53.467  1.00  0.00     0.118 A 
HETATM   15  C   UNL     1       8.076  21.623  54.839  1.00  0.00     0.043 A 
HETATM   16  F   UNL     1       8.831  20.747  52.794  1.00  0.00    -0.206 F 
HETATM   17  C   UNL     1       6.080  25.732  54.134  1.00  0.00     0.096 A 
HETATM   18  H   UNL     1       6.440  25.266  52.096  1.00  0.00     0.165 HD
ENDBRANCH   1   8
BRANCH   4  19
HETATM   19  C   UNL     1       9.077  28.750  56.638  1.00  0.00     0.282 C 
BRANCH  19  20
HETATM   20  C   UNL     1       9.358  29.918  57.511  1.00  0.00     0.027 A 
HETATM   21  S   UNL     1       8.351  30.311  58.845  1.00  0.00    -0.084 SA
HETATM   22  C   UNL     1       9.371  31.644  59.203  1.00  0.00     0.166 A 
HETATM   23  N   UNL     1      10.404  31.801  58.406  1.00  0.00    -0.265 NA
HETATM   24  C   UNL     1      10.388  30.834  57.426  1.00  0.00     0.133 A 
ENDBRANCH  19  20
ENDBRANCH   4  19
TORSDOF 3
ENDMDL
MODEL 2
REMARK VINA RESULT:      -8.5      1.370      1.889
REMARK  3 active torsions:
REMARK  status: ('A' for Active; 'I' for Inactive)
REMARK    1  A    between atoms: C_7  and  C_8 
REMARK    2  A    between atoms: N_11  and  C_13 
REMARK    3  A    between atoms: C_13  and  C_14 
ROOT
HETATM    1  C   UNL     1       6.271  26.044  55.883  1.00  0.00     0.024 C 
HETATM    2  C   UNL     1       6.724  27.110  54.864  1.00  0.00     0.037 C 
HETATM    3  C   UNL     1       8.025  27.781  55.291  1.00  0.00     0.236 C 
HETATM    4  N   UNL     1       7.888  28.400  56.664  1.00  0.00    -0.067 N 
HETATM    5  H   UNL     1       7.224  29.183  56.598  1.00  0.00     0.280 HD
HETATM    6  C   UNL     1       7.347  27.439  57.701  1.00  0.00     0.236 C 
HETATM    7  C   UNL     1       6.063  26.791  57.202  1.00  0.00     0.037 C 
ENDROOT
BRANCH   1   8
HETATM    8  C   UNL     1       7.221  24.852  55.939  1.00  0.00    -0.026 A 
HETATM    9  C   UNL     1       7.591  23.891  54.920  1.00  0.00    -0.001 A 
HETATM   10  C   UNL     1       8.432  22.948  55.523  1.00  0.00     0.045 A 
HETATM   11  C   UNL     1       7.295  23.701  53.547  1.00  0.00     0.017 A 
HETATM   12  C   UNL     1       8.933  21.822  54.855  1.00  0.00     0.072 A 
HETATM   13  N   UNL     1       8.662  23.363  56.809  1.00  0.00    -0.365 N 
HETATM   14  C   UNL     1       8.581  21.658  53.521  1.00  0.00     0.118 A 
HETATM   15  C   UNL     1       7.786  22.581  52.863  1.00  0.00     0.043 A 
HETATM   16  F   UNL     1       9.030  20.588  52.852  1.00  0.00    -0.206 F 
HETATM   17  C   UNL     1       7.954  24.502  57.064  1.00  0.00     0.096 A 
HETATM   18  H   UNL     1       9.285  22.898  57.459  1.00  0.00     0.165 HD
ENDBRANCH   1   8
BRANCH   4  19
HETATM   19  C   UNL     1       9.218  29.013  57.087  1.00  0.00     0.282 C 
BRANCH  19  20
HETATM   20  C   UNL     1       9.090  30.234  57.922  1.00  0.00     0.027 A 
HETATM   21  S   UNL     1       7.598  30.677  58.649  1.00  0.00    -0.084 SA
HETATM   22  C   UNL     1       8.361  32.051  59.339  1.00  0.00     0.166 A 
HETATM   23  N   UNL     1       9.640  32.187  59.070  1.00  0.00    -0.265 NA
HETATM   24  C   UNL     1      10.055  31.168  58.244  1.00  0.00     0.133 A 
ENDBRANCH  19  20
ENDBRANCH   4  19
TORSDOF 3
ENDMDL
MODEL 3
REMARK VINA RESULT:      -8.2      2.166      3.313
REMARK  3 active torsions:
REMARK  status: ('A' for Active; 'I' for Inactive)
REMARK    1  A    between atoms: C_7  and  C_8 
REMARK    2  A    between atoms: N_11  and  C_13 
REMARK    3  A    between atoms: C_13  and  C_14 
ROOT
HETATM    1  C   UNL     1       5.957  24.776  53.105  1.00  0.00     0.024 C 
HETATM    2  C   UNL     1       6.977  25.402  52.131  1.00  0.00     0.037 C 
HETATM    3  C   UNL     1       7.876  26.415  52.831  1.00  0.00     0.236 C 
HETATM    4  N   UNL     1       7.055  27.500  53.492  1.00  0.00    -0.067 N 
HETATM    5  H   UNL     1       6.599  28.052  52.752  1.00  0.00     0.280 HD
HETATM    6  C   UNL     1       5.960  26.960  54.386  1.00  0.00     0.236 C 
HETATM    7  C   UNL     1       5.116  25.941  53.632  1.00  0.00     0.037 C 
ENDROOT
BRANCH   1   8
HETATM    8  C   UNL     1       6.624  23.906  54.165  1.00  0.00    -0.026 A 
HETATM    9  C   UNL     1       7.387  22.681  54.038  1.00  0.00    -0.001 A 
HETATM   10  C   UNL     1       7.696  22.247  55.333  1.00  0.00     0.045 A 
HETATM   11  C   UNL     1       7.841  21.873  52.966  1.00  0.00     0.017 A 
HETATM   12  C   UNL     1       8.370  21.048  55.604  1.00  0.00     0.072 A 
HETATM   13  N   UNL     1       7.252  23.205  56.206  1.00  0.00    -0.365 N 
HETATM   14  C   UNL     1       8.759  20.271  54.521  1.00  0.00     0.118 A 
HETATM   15  C   UNL     1       8.516  20.671  53.218  1.00  0.00     0.043 A 
HETATM   16  F   UNL     1       9.395  19.113  54.741  1.00  0.00    -0.206 F 
HETATM   17  C   UNL     1       6.620  24.203  55.520  1.00  0.00     0.096 A 
HETATM   18  H   UNL     1       7.394  23.178  57.208  1.00  0.00     0.165 HD
ENDBRANCH   1   8
BRANCH   4  19
HETATM   19  C   UNL     1       7.976  28.465  54.229  1.00  0.00     0.282 C 
BRANCH  19  20
HETATM   20  C   UNL     1       7.825  28.445  55.706  1.00  0.00     0.027 A 
HETATM   21  S   UNL     1       7.029  29.712  56.549  1.00  0.00    -0.084 SA
HETATM   22  C   UNL     1       7.310  28.884  58.026  1.00  0.00     0.166 A 
HETATM   23  N   UNL     1       7.941  27.737  57.925  1.00  0.00    -0.265 NA
HETATM   24  C   UNL     1       8.258  27.492  56.607  1.00  0.00     0.133 A 
ENDBRANCH  19  20
ENDBRANCH   4  19
TORSDOF 3
ENDMDL
MODEL 4
REMARK VINA RESULT:      -8.2      1.756      1.988
REMARK  3 active torsions:
REMARK  status: ('A' for Active; 'I' for Inactive)
REMARK    1  A    between atoms: C_7  and  C_8 
REMARK    2  A    between atoms: N_11  and  C_13 
REMARK    3  A    between atoms: C_13  and  C_14 
ROOT
HETATM    1  C   UNL     1       6.917  24.821  57.039  1.00  0.00     0.024 C 
HETATM    2  C   UNL     1       5.545  25.509  57.201  1.00  0.00     0.037 C 
HETATM    3  C   UNL     1       5.507  26.861  56.497  1.00  0.00     0.236 C 
HETATM    4  N   UNL     1       6.606  27.767  57.007  1.00  0.00    -0.067 N 
HETATM    5  H   UNL     1       6.400  28.000  57.988  1.00  0.00     0.280 HD
HETATM    6  C   UNL     1       7.974  27.121  56.978  1.00  0.00     0.236 C 
HETATM    7  C   UNL     1       7.935  25.769  57.677  1.00  0.00     0.037 C 
ENDROOT
BRANCH   1   8
HETATM    8  C   UNL     1       7.199  24.418  55.596  1.00  0.00    -0.026 A 
HETATM    9  C   UNL     1       7.461  23.118  55.013  1.00  0.00    -0.001 A 
HETATM   10  C   UNL     1       7.741  23.319  53.656  1.00  0.00     0.045 A 
HETATM   11  C   UNL     1       7.510  21.783  55.486  1.00  0.00     0.017 A 
HETATM   12  C   UNL     1       8.113  22.287  52.783  1.00  0.00     0.072 A 
HETATM   13  N   UNL     1       7.551  24.650  53.388  1.00  0.00    -0.365 N 
HETATM   14  C   UNL     1       8.187  21.002  53.305  1.00  0.00     0.118 A 
HETATM   15  C   UNL     1       7.881  20.739  54.629  1.00  0.00     0.043 A 
HETATM   16  F   UNL     1       8.552  19.991  52.505  1.00  0.00    -0.206 F 
HETATM   17  C   UNL     1       7.217  25.312  54.535  1.00  0.00     0.096 A 
HETATM   18  H   UNL     1       7.628  25.067  52.468  1.00  0.00     0.165 HD
ENDBRANCH   1   8
BRANCH   4  19
HETATM   19  C   UNL     1       6.577  29.088  56.247  1.00  0.00     0.282 C 
BRANCH  19  20
HETATM   20  C   UNL     1       6.441  30.287  57.112  1.00  0.00     0.027 A 
HETATM   21  S   UNL     1       5.126  31.378  56.943  1.00  0.00    -0.084 SA
HETATM   22  C   UNL     1       5.758  32.316  58.233  1.00  0.00     0.166 A 
HETATM   23  N   UNL     1       6.865  31.864  58.777  1.00  0.00    -0.265 NA
HETATM   24  C   UNL     1       7.272  30.721  58.127  1.00  0.00     0.133 A 
ENDBRANCH  19  20
ENDBRANCH   4  19
TORSDOF 3
ENDMDL
MODEL 5
REMARK VINA RESULT:      -8.0      2.758      3.736
REMARK  3 active torsions:
REMARK  status: ('A' for Active; 'I' for Inactive)
REMARK    1  A    between atoms: C_7  and  C_8 
REMARK    2  A    between atoms: N_11  and  C_13 
REMARK    3  A    between atoms: C_13  and  C_14 
ROOT
HETATM    1  C   UNL     1       6.690  24.813  57.007  1.00  0.00     0.024 C 
HETATM    2  C   UNL     1       5.333  25.514  57.227  1.00  0.00     0.037 C 
HETATM    3  C   UNL     1       5.185  26.744  56.341  1.00  0.00     0.236 C 
HETATM    4  N   UNL     1       6.318  27.719  56.575  1.00  0.00    -0.067 N 
HETATM    5  H   UNL     1       6.225  28.096  57.528  1.00  0.00     0.280 HD
HETATM    6  C   UNL     1       7.687  27.079  56.479  1.00  0.00     0.236 C 
HETATM    7  C   UNL     1       7.757  25.847  57.371  1.00  0.00     0.037 C 
ENDROOT
BRANCH   1   8
HETATM    8  C   UNL     1       6.808  24.198  55.616  1.00  0.00    -0.026 A 
HETATM    9  C   UNL     1       7.445  22.974  55.176  1.00  0.00    -0.001 A 
HETATM   10  C   UNL     1       7.336  22.927  53.781  1.00  0.00     0.045 A 
HETATM   11  C   UNL     1       8.120  21.897  55.803  1.00  0.00     0.017 A 
HETATM   12  C   UNL     1       7.904  21.913  52.996  1.00  0.00     0.072 A 
HETATM   13  N   UNL     1       6.578  23.999  53.389  1.00  0.00    -0.365 N 
HETATM   14  C   UNL     1       8.592  20.901  53.655  1.00  0.00     0.118 A 
HETATM   15  C   UNL     1       8.695  20.875  55.035  1.00  0.00     0.043 A 
HETATM   16  F   UNL     1       9.159  19.922  52.938  1.00  0.00    -0.206 F 
HETATM   17  C   UNL     1       6.250  24.758  54.476  1.00  0.00     0.096 A 
HETATM   18  H   UNL     1       6.292  24.182  52.435  1.00  0.00     0.165 HD
ENDBRANCH   1   8
BRANCH   4  19
HETATM   19  C   UNL     1       6.174  28.911  55.637  1.00  0.00     0.282 C 
BRANCH  19  20
HETATM   20  C   UNL     1       5.726  28.559  54.266  1.00  0.00     0.027 A 
HETATM   21  S   UNL     1       4.084  28.713  53.785  1.00  0.00    -0.084 SA
HETATM   22  C   UNL     1       4.507  28.150  52.219  1.00  0.00     0.166 A 
HETATM   23  N   UNL     1       5.777  27.870  52.038  1.00  0.00    -0.265 NA
HETATM   24  C   UNL     1       6.473  28.078  53.208  1.00  0.00     0.133 A 
ENDBRANCH  19  20
ENDBRANCH   4  19
TORSDOF 3
ENDMDL
MODEL 6
REMARK VINA RESULT:      -7.8      3.637      7.482
REMARK  3 active torsions:
REMARK  status: ('A' for Active; 'I' for Inactive)
REMARK    1  A    between atoms: C_7  and  C_8 
REMARK    2  A    between atoms: N_11  and  C_13 
REMARK    3  A    between atoms: C_13  and  C_14 
ROOT
HETATM    1  C   UNL     1       6.160  27.314  54.757  1.00  0.00     0.024 C 
HETATM    2  C   UNL     1       5.151  26.218  55.158  1.00  0.00     0.037 C 
HETATM    3  C   UNL     1       5.838  25.048  55.853  1.00  0.00     0.236 C 
HETATM    4  N   UNL     1       6.924  24.461  54.978  1.00  0.00    -0.067 N 
HETATM    5  H   UNL     1       6.476  24.026  54.160  1.00  0.00     0.280 HD
HETATM    6  C   UNL     1       7.897  25.498  54.457  1.00  0.00     0.236 C 
HETATM    7  C   UNL     1       7.144  26.644  53.796  1.00  0.00     0.037 C 
ENDROOT
BRANCH   1   8
HETATM    8  C   UNL     1       6.780  28.005  55.968  1.00  0.00    -0.026 A 
HETATM    9  C   UNL     1       8.043  28.699  56.115  1.00  0.00    -0.001 A 
HETATM   10  C   UNL     1       8.160  29.069  57.460  1.00  0.00     0.045 A 
HETATM   11  C   UNL     1       9.117  29.046  55.258  1.00  0.00     0.017 A 
HETATM   12  C   UNL     1       9.293  29.702  57.990  1.00  0.00     0.072 A 
HETATM   13  N   UNL     1       6.989  28.727  58.086  1.00  0.00    -0.365 N 
HETATM   14  C   UNL     1      10.337  29.984  57.118  1.00  0.00     0.118 A 
HETATM   15  C   UNL     1      10.258  29.678  55.771  1.00  0.00     0.043 A 
HETATM   16  F   UNL     1      11.442  30.576  57.591  1.00  0.00    -0.206 F 
HETATM   17  C   UNL     1       6.156  28.101  57.203  1.00  0.00     0.096 A 
HETATM   18  H   UNL     1       6.776  28.931  59.054  1.00  0.00     0.165 HD
ENDBRANCH   1   8
BRANCH   4  19
HETATM   19  C   UNL     1       7.629  23.332  55.720  1.00  0.00     0.282 C 
BRANCH  19  20
HETATM   20  C   UNL     1       7.907  22.134  54.887  1.00  0.00     0.027 A 
HETATM   21  S   UNL     1       7.849  22.194  53.172  1.00  0.00    -0.084 SA
HETATM   22  C   UNL     1       8.276  20.533  53.115  1.00  0.00     0.166 A 
HETATM   23  N   UNL     1       8.466  19.954  54.278  1.00  0.00    -0.265 NA
HETATM   24  C   UNL     1       8.233  20.855  55.293  1.00  0.00     0.133 A 
ENDBRANCH  19  20
ENDBRANCH   4  19
TORSDOF 3
ENDMDL
MODEL 7
REMARK VINA RESULT:      -7.4      4.637      6.411
REMARK  3 active torsions:
REMARK  status: ('A' for Active; 'I' for Inactive)
REMARK    1  A    between atoms: C_7  and  C_8 
REMARK    2  A    between atoms: N_11  and  C_13 
REMARK    3  A    between atoms: C_13  and  C_14 
ROOT
HETATM    1  C   UNL     1       6.866  25.514  54.290  1.00  0.00     0.024 C 
HETATM    2  C   UNL     1       5.324  25.473  54.325  1.00  0.00     0.037 C 
HETATM    3  C   UNL     1       4.738  25.133  52.959  1.00  0.00     0.236 C 
HETATM    4  N   UNL     1       5.208  26.117  51.910  1.00  0.00    -0.067 N 
HETATM    5  H   UNL     1       4.799  27.036  52.126  1.00  0.00     0.280 HD
HETATM    6  C   UNL     1       6.711  26.291  51.885  1.00  0.00     0.236 C 
HETATM    7  C   UNL     1       7.230  26.606  53.281  1.00  0.00     0.037 C 
ENDROOT
BRANCH   1   8
HETATM    8  C   UNL     1       7.479  24.141  54.032  1.00  0.00    -0.026 A 
HETATM    9  C   UNL     1       7.882  23.099  54.953  1.00  0.00    -0.001 A 
HETATM   10  C   UNL     1       8.467  22.077  54.195  1.00  0.00     0.045 A 
HETATM   11  C   UNL     1       7.834  22.909  56.357  1.00  0.00     0.017 A 
HETATM   12  C   UNL     1       9.042  20.930  54.760  1.00  0.00     0.072 A 
HETATM   13  N   UNL     1       8.330  22.413  52.874  1.00  0.00    -0.365 N 
HETATM   14  C   UNL     1       9.006  20.809  56.144  1.00  0.00     0.118 A 
HETATM   15  C   UNL     1       8.404  21.769  56.939  1.00  0.00     0.043 A 
HETATM   16  F   UNL     1       9.556  19.733  56.721  1.00  0.00    -0.206 F 
HETATM   17  C   UNL     1       7.734  23.637  52.764  1.00  0.00     0.096 A 
HETATM   18  H   UNL     1       8.614  21.825  52.100  1.00  0.00     0.165 HD
ENDBRANCH   1   8
BRANCH   4  19
HETATM   19  C   UNL     1       4.652  25.720  50.548  1.00  0.00     0.282 C 
BRANCH  19  20
HETATM   20  C   UNL     1       4.549  26.842  49.580  1.00  0.00     0.027 A 
HETATM   21  S   UNL     1       4.208  28.446  50.091  1.00  0.00    -0.084 SA
HETATM   22  C   UNL     1       4.295  28.967  48.458  1.00  0.00     0.166 A 
HETATM   23  N   UNL     1       4.567  28.033  47.576  1.00  0.00    -0.265 NA
HETATM   24  C   UNL     1       4.690  26.816  48.206  1.00  0.00     0.133 A 
ENDBRANCH  19  20
ENDBRANCH   4  19
TORSDOF 3
ENDMDL
MODEL 8
REMARK VINA RESULT:      -7.3      4.077      6.072
REMARK  3 active torsions:
REMARK  status: ('A' for Active; 'I' for Inactive)
REMARK    1  A    between atoms: C_7  and  C_8 
REMARK    2  A    between atoms: N_11  and  C_13 
REMARK    3  A    between atoms: C_13  and  C_14 
ROOT
HETATM    1  C   UNL     1       7.032  26.751  55.197  1.00  0.00     0.024 C 
HETATM    2  C   UNL     1       5.527  27.022  54.990  1.00  0.00     0.037 C 
HETATM    3  C   UNL     1       4.984  26.282  53.773  1.00  0.00     0.236 C 
HETATM    4  N   UNL     1       5.756  26.653  52.526  1.00  0.00    -0.067 N 
HETATM    5  H   UNL     1       5.564  27.641  52.312  1.00  0.00     0.280 HD
HETATM    6  C   UNL     1       7.254  26.512  52.687  1.00  0.00     0.236 C 
HETATM    7  C   UNL     1       7.725  27.255  53.930  1.00  0.00     0.037 C 
ENDROOT
BRANCH   1   8
HETATM    8  C   UNL     1       7.315  25.301  55.576  1.00  0.00    -0.026 A 
HETATM    9  C   UNL     1       7.555  24.138  54.746  1.00  0.00    -0.001 A 
HETATM   10  C   UNL     1       7.673  23.034  55.599  1.00  0.00     0.045 A 
HETATM   11  C   UNL     1       7.673  23.888  53.356  1.00  0.00     0.017 A 
HETATM   12  C   UNL     1       7.841  21.720  55.142  1.00  0.00     0.072 A 
HETATM   13  N   UNL     1       7.623  23.501  56.887  1.00  0.00    -0.365 N 
HETATM   14  C   UNL     1       7.909  21.522  53.769  1.00  0.00     0.118 A 
HETATM   15  C   UNL     1       7.840  22.581  52.881  1.00  0.00     0.043 A 
HETATM   16  F   UNL     1       8.056  20.278  53.293  1.00  0.00    -0.206 F 
HETATM   17  C   UNL     1       7.420  24.852  56.884  1.00  0.00     0.096 A 
HETATM   18  H   UNL     1       7.741  22.925  57.711  1.00  0.00     0.165 HD
ENDBRANCH   1   8
BRANCH   4  19
HETATM   19  C   UNL     1       5.228  25.857  51.339  1.00  0.00     0.282 C 
BRANCH  19  20
HETATM   20  C   UNL     1       4.929  26.678  50.137  1.00  0.00     0.027 A 
HETATM   21  S   UNL     1       4.035  26.048  48.813  1.00  0.00    -0.084 SA
HETATM   22  C   UNL     1       4.178  27.562  48.017  1.00  0.00     0.166 A 
HETATM   23  N   UNL     1       4.833  28.492  48.675  1.00  0.00    -0.265 NA
HETATM   24  C   UNL     1       5.284  27.987  49.874  1.00  0.00     0.133 A 
ENDBRANCH  19  20
ENDBRANCH   4  19
TORSDOF 3
ENDMDL
MODEL 9
REMARK VINA RESULT:      -6.9      7.586     10.464
REMARK  3 active torsions:
REMARK  status: ('A' for Active; 'I' for Inactive)
REMARK    1  A    between atoms: C_7  and  C_8 
REMARK    2  A    between atoms: N_11  and  C_13 
REMARK    3  A    between atoms: C_13  and  C_14 
ROOT
HETATM    1  C   UNL     1       5.271  27.729  48.301  1.00  0.00     0.024 C 
HETATM    2  C   UNL     1       4.610  28.860  47.487  1.00  0.00     0.037 C 
HETATM    3  C   UNL     1       3.104  28.914  47.718  1.00  0.00     0.236 C 
HETATM    4  N   UNL     1       2.458  27.588  47.383  1.00  0.00    -0.067 N 
HETATM    5  H   UNL     1       2.541  27.437  46.369  1.00  0.00     0.280 HD
HETATM    6  C   UNL     1       3.122  26.411  48.066  1.00  0.00     0.236 C 
HETATM    7  C   UNL     1       4.623  26.431  47.813  1.00  0.00     0.037 C 
ENDROOT
BRANCH   1   8
HETATM    8  C   UNL     1       5.205  27.979  49.804  1.00  0.00    -0.026 A 
HETATM    9  C   UNL     1       5.247  27.053  50.918  1.00  0.00    -0.001 A 
HETATM   10  C   UNL     1       5.062  27.801  52.087  1.00  0.00     0.045 A 
HETATM   11  C   UNL     1       5.408  25.654  51.071  1.00  0.00     0.017 A 
HETATM   12  C   UNL     1       4.973  27.228  53.364  1.00  0.00     0.072 A 
HETATM   13  N   UNL     1       5.022  29.124  51.730  1.00  0.00    -0.365 N 
HETATM   14  C   UNL     1       5.095  25.847  53.457  1.00  0.00     0.118 A 
HETATM   15  C   UNL     1       5.321  25.063  52.339  1.00  0.00     0.043 A 
HETATM   16  F   UNL     1       5.003  25.262  54.658  1.00  0.00    -0.206 F 
HETATM   17  C   UNL     1       5.116  29.241  50.373  1.00  0.00     0.096 A 
HETATM   18  H   UNL     1       4.953  29.893  52.384  1.00  0.00     0.165 HD
ENDBRANCH   1   8
BRANCH   4  19
HETATM   19  C   UNL     1       0.964  27.654  47.676  1.00  0.00     0.282 C 
BRANCH  19  20
HETATM   20  C   UNL     1       0.133  28.067  46.517  1.00  0.00     0.027 A 
HETATM   21  S   UNL     1      -0.404  29.687  46.323  1.00  0.00    -0.084 SA
HETATM   22  C   UNL     1      -1.186  29.236  44.863  1.00  0.00     0.166 A 
HETATM   23  N   UNL     1      -1.062  27.975  44.517  1.00  0.00    -0.265 NA
HETATM   24  C   UNL     1      -0.332  27.299  45.468  1.00  0.00     0.133 A 
ENDBRANCH  19  20
ENDBRANCH   4  19
TORSDOF 3
ENDMDL
MODEL 10
REMARK VINA RESULT:      -6.8      4.405      8.481
REMARK  3 active torsions:
REMARK  status: ('A' for Active; 'I' for Inactive)
REMARK    1  A    between atoms: C_7  and  C_8 
REMARK    2  A    between atoms: N_11  and  C_13 
REMARK    3  A    between atoms: C_13  and  C_14 
ROOT
HETATM    1  C   UNL     1       7.244  29.865  56.501  1.00  0.00     0.024 C 
HETATM    2  C   UNL     1       5.854  29.199  56.441  1.00  0.00     0.037 C 
HETATM    3  C   UNL     1       5.839  27.861  57.170  1.00  0.00     0.236 C 
HETATM    4  N   UNL     1       6.887  26.927  56.607  1.00  0.00    -0.067 N 
HETATM    5  H   UNL     1       6.614  26.681  55.646  1.00  0.00     0.280 HD
HETATM    6  C   UNL     1       8.265  27.549  56.536  1.00  0.00     0.236 C 
HETATM    7  C   UNL     1       8.203  28.889  55.816  1.00  0.00     0.037 C 
ENDROOT
BRANCH   1   8
HETATM    8  C   UNL     1       7.626  30.289  57.915  1.00  0.00    -0.026 A 
HETATM    9  C   UNL     1       6.955  31.166  58.852  1.00  0.00    -0.001 A 
HETATM   10  C   UNL     1       7.778  31.281  59.978  1.00  0.00     0.045 A 
HETATM   11  C   UNL     1       5.740  31.895  58.870  1.00  0.00     0.017 A 
HETATM   12  C   UNL     1       7.484  32.111  61.068  1.00  0.00     0.072 A 
HETATM   13  N   UNL     1       8.843  30.436  59.799  1.00  0.00    -0.365 N 
HETATM   14  C   UNL     1       6.300  32.838  61.020  1.00  0.00     0.118 A 
HETATM   15  C   UNL     1       5.429  32.731  59.951  1.00  0.00     0.043 A 
HETATM   16  F   UNL     1       5.990  33.652  62.038  1.00  0.00    -0.206 F 
HETATM   17  C   UNL     1       8.757  29.832  58.578  1.00  0.00     0.096 A 
HETATM   18  H   UNL     1       9.569  30.274  60.486  1.00  0.00     0.165 HD
ENDBRANCH   1   8
BRANCH   4  19
HETATM   19  C   UNL     1       6.885  25.620  57.391  1.00  0.00     0.282 C 
BRANCH  19  20
HETATM   20  C   UNL     1       7.413  24.455  56.637  1.00  0.00     0.027 A 
HETATM   21  S   UNL     1       6.879  24.093  55.045  1.00  0.00    -0.084 SA
HETATM   22  C   UNL     1       7.940  22.745  55.012  1.00  0.00     0.166 A 
HETATM   23  N   UNL     1       8.661  22.561  56.094  1.00  0.00    -0.265 NA
HETATM   24  C   UNL     1       8.348  23.518  57.033  1.00  0.00     0.133 A 
ENDBRANCH  19  20
ENDBRANCH   4  19
TORSDOF 3
ENDMDL
