MODEL 1
REMARK VINA RESULT:     -10.4      0.000      0.000
REMARK  8 active torsions:
REMARK  status: ('A' for Active; 'I' for Inactive)
REMARK    1  A    between atoms: O_2  and  C_3 
REMARK    2  A    between atoms: C_4  and  O_5 
REMARK    3  A    between atoms: C_8  and  C_9 
REMARK       I    between atoms: C_9  and  N_10 
REMARK    4  A    between atoms: N_10  and  N_11 
REMARK       I    between atoms: N_11  and  C_12 
REMARK    5  A    between atoms: C_12  and  C_13 
REMARK    6  A    between atoms: C_13  and  S_14 
REMARK    7  A    between atoms: S_14  and  C_15 
REMARK    8  A    between atoms: C_18  and  C_19 
ROOT
HETATM    1  N   UNL     1       8.145  30.096  59.732  1.00  0.00    -0.267 N 
HETATM    2  C   UNL     1       7.597  30.044  58.464  1.00  0.00     0.245 C 
HETATM    3  O   UNL     1       6.506  30.553  58.197  1.00  0.00    -0.271 OA
HETATM    4  H   UNL     1       9.168  30.024  59.838  1.00  0.00     0.190 HD
ENDROOT
BRANCH   2   5
HETATM    5  C   UNL     1       8.426  29.287  57.445  1.00  0.00     0.187 C 
BRANCH   5   6
HETATM    6  S   UNL     1       7.368  28.555  56.165  1.00  0.00    -0.083 SA
BRANCH   6   7
HETATM    7  C   UNL     1       7.661  26.881  56.432  1.00  0.00     0.167 A 
HETATM    8  N   UNL     1       8.025  26.312  57.553  1.00  0.00    -0.235 NA
HETATM    9  C   UNL     1       8.170  24.983  57.233  1.00  0.00     0.149 A 
HETATM   10  C   UNL     1       7.864  24.740  55.903  1.00  0.00     0.062 A 
HETATM   11  N   UNL     1       7.545  25.987  55.413  1.00  0.00    -0.333 N 
HETATM   12  H   UNL     1       7.302  26.220  54.462  1.00  0.00     0.168 HD
BRANCH  10  13
HETATM   13  C   UNL     1       7.876  23.519  55.105  1.00  0.00    -0.008 A 
HETATM   14  C   UNL     1       7.874  22.254  55.715  1.00  0.00     0.017 A 
HETATM   15  C   UNL     1       7.886  21.091  54.941  1.00  0.00     0.043 A 
HETATM   16  C   UNL     1       7.901  21.189  53.556  1.00  0.00     0.116 A 
HETATM   17  F   UNL     1       7.913  20.073  52.815  1.00  0.00    -0.206 F 
HETATM   18  C   UNL     1       7.907  22.428  52.929  1.00  0.00     0.043 A 
HETATM   19  C   UNL     1       7.896  23.591  53.703  1.00  0.00     0.017 A 
ENDBRANCH  10  13
ENDBRANCH   6   7
ENDBRANCH   5   6
ENDBRANCH   2   5
BRANCH   1  20
HETATM   20  N   UNL     1       7.483  30.886  60.683  1.00  0.00    -0.263 N 
HETATM   21  C   UNL     1       8.119  31.168  61.875  1.00  0.00     0.270 C 
HETATM   22  O   UNL     1       9.242  30.748  62.146  1.00  0.00    -0.266 OA
HETATM   23  H   UNL     1       6.635  31.341  60.355  1.00  0.00     0.190 HD
BRANCH  21  24
HETATM   24  C   UNL     1       7.386  32.035  62.849  1.00  0.00     0.036 A 
HETATM   25  C   UNL     1       5.983  32.059  62.779  1.00  0.00     0.056 A 
HETATM   26  C   UNL     1       5.218  32.865  63.637  1.00  0.00     0.102 A 
HETATM   27  C   UNL     1       5.880  33.638  64.607  1.00  0.00     0.101 A 
HETATM   28  C   UNL     1       7.280  33.631  64.658  1.00  0.00     0.040 A 
HETATM   29  C   UNL     1       8.034  32.841  63.787  1.00  0.00     0.020 A 
BRANCH  26  30
HETATM   30  O   UNL     1       3.853  32.946  63.568  1.00  0.00    -0.353 OA
HETATM   31  C   UNL     1       3.279  33.657  62.479  1.00  0.00     0.210 C 
ENDBRANCH  26  30
BRANCH  27  32
HETATM   32  O   UNL     1       5.326  34.484  65.532  1.00  0.00    -0.353 OA
HETATM   33  C   UNL     1       5.643  34.265  66.900  1.00  0.00     0.210 C 
ENDBRANCH  27  32
ENDBRANCH  21  24
ENDBRANCH   1  20
TORSDOF 8
ENDMDL
MODEL 2
REMARK VINA RESULT:      -9.7      1.519      2.089
REMARK  8 active torsions:
REMARK  status: ('A' for Active; 'I' for Inactive)
REMARK    1  A    between atoms: O_2  and  C_3 
REMARK    2  A    between atoms: C_4  and  O_5 
REMARK    3  A    between atoms: C_8  and  C_9 
REMARK       I    between atoms: C_9  and  N_10 
REMARK    4  A    between atoms: N_10  and  N_11 
REMARK       I    between atoms: N_11  and  C_12 
REMARK    5  A    between atoms: C_12  and  C_13 
REMARK    6  A    between atoms: C_13  and  S_14 
REMARK    7  A    between atoms: S_14  and  C_15 
REMARK    8  A    between atoms: C_18  and  C_19 
ROOT
HETATM    1  N   UNL     1       7.156  30.591  57.801  1.00  0.00    -0.267 N 
HETATM    2  C   UNL     1       7.751  29.360  57.602  1.00  0.00     0.245 C 
HETATM    3  O   UNL     1       8.090  28.633  58.538  1.00  0.00    -0.271 OA
HETATM    4  H   UNL     1       6.553  30.981  57.061  1.00  0.00     0.190 HD
ENDROOT
BRANCH   2   5
HETATM    5  C   UNL     1       7.981  28.994  56.149  1.00  0.00     0.187 C 
BRANCH   5   6
HETATM    6  S   UNL     1       6.439  28.448  55.366  1.00  0.00    -0.083 SA
BRANCH   6   7
HETATM    7  C   UNL     1       7.013  27.130  54.421  1.00  0.00     0.167 A 
HETATM    8  N   UNL     1       7.367  27.157  53.161  1.00  0.00    -0.235 NA
HETATM    9  C   UNL     1       7.702  25.856  52.869  1.00  0.00     0.149 A 
HETATM   10  C   UNL     1       7.573  25.033  53.978  1.00  0.00     0.062 A 
HETATM   11  N   UNL     1       7.121  25.886  54.961  1.00  0.00    -0.333 N 
HETATM   12  H   UNL     1       6.875  25.641  55.909  1.00  0.00     0.168 HD
BRANCH  10  13
HETATM   13  C   UNL     1       7.797  23.604  54.165  1.00  0.00    -0.008 A 
HETATM   14  C   UNL     1       7.894  22.736  53.066  1.00  0.00     0.017 A 
HETATM   15  C   UNL     1       8.107  21.368  53.257  1.00  0.00     0.043 A 
HETATM   16  C   UNL     1       8.224  20.865  54.545  1.00  0.00     0.116 A 
HETATM   17  F   UNL     1       8.428  19.554  54.728  1.00  0.00    -0.206 F 
HETATM   18  C   UNL     1       8.128  21.703  55.649  1.00  0.00     0.043 A 
HETATM   19  C   UNL     1       7.912  23.070  55.459  1.00  0.00     0.017 A 
ENDBRANCH  10  13
ENDBRANCH   6   7
ENDBRANCH   5   6
ENDBRANCH   2   5
BRANCH   1  20
HETATM   20  N   UNL     1       6.808  30.928  59.117  1.00  0.00    -0.263 N 
HETATM   21  C   UNL     1       7.547  31.890  59.777  1.00  0.00     0.270 C 
HETATM   22  O   UNL     1       8.506  32.460  59.263  1.00  0.00    -0.266 OA
HETATM   23  H   UNL     1       5.920  30.554  59.441  1.00  0.00     0.190 HD
BRANCH  21  24
HETATM   24  C   UNL     1       7.125  32.236  61.170  1.00  0.00     0.036 A 
HETATM   25  C   UNL     1       5.747  32.313  61.437  1.00  0.00     0.056 A 
HETATM   26  C   UNL     1       5.265  32.657  62.710  1.00  0.00     0.102 A 
HETATM   27  C   UNL     1       6.189  32.897  63.741  1.00  0.00     0.101 A 
HETATM   28  C   UNL     1       7.561  32.844  63.465  1.00  0.00     0.040 A 
HETATM   29  C   UNL     1       8.033  32.519  62.192  1.00  0.00     0.020 A 
BRANCH  26  30
HETATM   30  O   UNL     1       3.931  32.783  62.995  1.00  0.00    -0.353 OA
HETATM   31  C   UNL     1       3.321  34.052  62.793  1.00  0.00     0.210 C 
ENDBRANCH  26  30
BRANCH  27  32
HETATM   32  O   UNL     1       5.928  33.242  65.042  1.00  0.00    -0.353 OA
HETATM   33  C   UNL     1       6.983  33.827  65.794  1.00  0.00     0.210 C 
ENDBRANCH  27  32
ENDBRANCH  21  24
ENDBRANCH   1  20
TORSDOF 8
ENDMDL
MODEL 3
REMARK VINA RESULT:      -9.4      6.273     10.459
REMARK  8 active torsions:
REMARK  status: ('A' for Active; 'I' for Inactive)
REMARK    1  A    between atoms: O_2  and  C_3 
REMARK    2  A    between atoms: C_4  and  O_5 
REMARK    3  A    between atoms: C_8  and  C_9 
REMARK       I    between atoms: C_9  and  N_10 
REMARK    4  A    between atoms: N_10  and  N_11 
REMARK       I    between atoms: N_11  and  C_12 
REMARK    5  A    between atoms: C_12  and  C_13 
REMARK    6  A    between atoms: C_13  and  S_14 
REMARK    7  A    between atoms: S_14  and  C_15 
REMARK    8  A    between atoms: C_18  and  C_19 
ROOT
HETATM    1  N   UNL     1       4.531  26.837  54.467  1.00  0.00    -0.267 N 
HETATM    2  C   UNL     1       4.853  27.842  55.358  1.00  0.00     0.245 C 
HETATM    3  O   UNL     1       4.924  29.026  55.020  1.00  0.00    -0.271 OA
HETATM    4  H   UNL     1       4.110  25.967  54.824  1.00  0.00     0.190 HD
ENDROOT
BRANCH   2   5
HETATM    5  C   UNL     1       5.141  27.370  56.770  1.00  0.00     0.187 C 
BRANCH   5   6
HETATM    6  S   UNL     1       6.863  27.713  57.229  1.00  0.00    -0.083 SA
BRANCH   6   7
HETATM    7  C   UNL     1       7.541  26.136  57.116  1.00  0.00     0.167 A 
HETATM    8  N   UNL     1       8.322  25.549  57.986  1.00  0.00    -0.235 NA
HETATM    9  C   UNL     1       8.622  24.335  57.415  1.00  0.00     0.149 A 
HETATM   10  C   UNL     1       7.991  24.175  56.192  1.00  0.00     0.062 A 
HETATM   11  N   UNL     1       7.306  25.358  56.025  1.00  0.00    -0.333 N 
HETATM   12  H   UNL     1       6.753  25.630  55.226  1.00  0.00     0.168 HD
BRANCH  10  13
HETATM   13  C   UNL     1       8.004  23.086  55.220  1.00  0.00    -0.008 A 
HETATM   14  C   UNL     1       8.055  21.745  55.635  1.00  0.00     0.017 A 
HETATM   15  C   UNL     1       8.068  20.710  54.696  1.00  0.00     0.043 A 
HETATM   16  C   UNL     1       8.031  21.013  53.342  1.00  0.00     0.116 A 
HETATM   17  F   UNL     1       8.044  20.020  52.443  1.00  0.00    -0.206 F 
HETATM   18  C   UNL     1       7.985  22.331  52.907  1.00  0.00     0.043 A 
HETATM   19  C   UNL     1       7.974  23.366  53.845  1.00  0.00     0.017 A 
ENDBRANCH  10  13
ENDBRANCH   6   7
ENDBRANCH   5   6
ENDBRANCH   2   5
BRANCH   1  20
HETATM   20  N   UNL     1       4.137  27.227  53.179  1.00  0.00    -0.263 N 
HETATM   21  C   UNL     1       5.047  27.132  52.145  1.00  0.00     0.270 C 
HETATM   22  O   UNL     1       6.196  26.727  52.305  1.00  0.00    -0.266 OA
HETATM   23  H   UNL     1       3.141  27.399  53.062  1.00  0.00     0.190 HD
BRANCH  21  24
HETATM   24  C   UNL     1       4.575  27.534  50.784  1.00  0.00     0.036 A 
HETATM   25  C   UNL     1       4.543  26.548  49.783  1.00  0.00     0.056 A 
HETATM   26  C   UNL     1       4.139  26.845  48.472  1.00  0.00     0.102 A 
HETATM   27  C   UNL     1       3.729  28.156  48.171  1.00  0.00     0.101 A 
HETATM   28  C   UNL     1       3.786  29.142  49.164  1.00  0.00     0.040 A 
HETATM   29  C   UNL     1       4.207  28.842  50.461  1.00  0.00     0.020 A 
BRANCH  26  30
HETATM   30  O   UNL     1       4.136  25.920  47.462  1.00  0.00    -0.353 OA
HETATM   31  C   UNL     1       2.985  25.099  47.309  1.00  0.00     0.210 C 
ENDBRANCH  26  30
BRANCH  27  32
HETATM   32  O   UNL     1       3.301  28.649  46.966  1.00  0.00    -0.353 OA
HETATM   33  C   UNL     1       2.811  29.983  46.934  1.00  0.00     0.210 C 
ENDBRANCH  27  32
ENDBRANCH  21  24
ENDBRANCH   1  20
TORSDOF 8
ENDMDL
MODEL 4
REMARK VINA RESULT:      -9.2      4.943     12.096
REMARK  8 active torsions:
REMARK  status: ('A' for Active; 'I' for Inactive)
REMARK    1  A    between atoms: O_2  and  C_3 
REMARK    2  A    between atoms: C_4  and  O_5 
REMARK    3  A    between atoms: C_8  and  C_9 
REMARK       I    between atoms: C_9  and  N_10 
REMARK    4  A    between atoms: N_10  and  N_11 
REMARK       I    between atoms: N_11  and  C_12 
REMARK    5  A    between atoms: C_12  and  C_13 
REMARK    6  A    between atoms: C_13  and  S_14 
REMARK    7  A    between atoms: S_14  and  C_15 
REMARK    8  A    between atoms: C_18  and  C_19 
ROOT
HETATM    1  N   UNL     1       7.300  27.743  57.575  1.00  0.00    -0.267 N 
HETATM    2  C   UNL     1       7.762  28.970  57.140  1.00  0.00     0.245 C 
HETATM    3  O   UNL     1       8.272  29.127  56.028  1.00  0.00    -0.271 OA
HETATM    4  H   UNL     1       6.563  27.712  58.294  1.00  0.00     0.190 HD
ENDROOT
BRANCH   2   5
HETATM    5  C   UNL     1       7.623  30.094  58.148  1.00  0.00     0.187 C 
BRANCH   5   6
HETATM    6  S   UNL     1       9.250  30.656  58.721  1.00  0.00    -0.083 SA
BRANCH   6   7
HETATM    7  C   UNL     1       8.923  30.923  60.389  1.00  0.00     0.167 A 
HETATM    8  N   UNL     1       9.262  30.154  61.392  1.00  0.00    -0.235 NA
HETATM    9  C   UNL     1       8.734  30.779  62.497  1.00  0.00     0.149 A 
HETATM   10  C   UNL     1       8.089  31.958  62.160  1.00  0.00     0.062 A 
HETATM   11  N   UNL     1       8.224  32.019  60.791  1.00  0.00    -0.333 N 
HETATM   12  H   UNL     1       7.847  32.724  60.175  1.00  0.00     0.168 HD
BRANCH  10  13
HETATM   13  C   UNL     1       7.378  32.947  62.963  1.00  0.00    -0.008 A 
HETATM   14  C   UNL     1       7.555  33.013  64.354  1.00  0.00     0.017 A 
HETATM   15  C   UNL     1       6.869  33.965  65.114  1.00  0.00     0.043 A 
HETATM   16  C   UNL     1       6.005  34.851  64.485  1.00  0.00     0.116 A 
HETATM   17  F   UNL     1       5.347  35.762  65.214  1.00  0.00    -0.206 F 
HETATM   18  C   UNL     1       5.810  34.803  63.111  1.00  0.00     0.043 A 
HETATM   19  C   UNL     1       6.494  33.850  62.351  1.00  0.00     0.017 A 
ENDBRANCH  10  13
ENDBRANCH   6   7
ENDBRANCH   5   6
ENDBRANCH   2   5
BRANCH   1  20
HETATM   20  N   UNL     1       7.293  26.696  56.641  1.00  0.00    -0.263 N 
HETATM   21  C   UNL     1       7.906  25.504  56.971  1.00  0.00     0.270 C 
HETATM   22  O   UNL     1       8.469  25.321  58.048  1.00  0.00    -0.266 OA
HETATM   23  H   UNL     1       6.682  26.833  55.839  1.00  0.00     0.190 HD
BRANCH  21  24
HETATM   24  C   UNL     1       7.851  24.406  55.956  1.00  0.00     0.036 A 
HETATM   25  C   UNL     1       7.398  24.729  54.665  1.00  0.00     0.056 A 
HETATM   26  C   UNL     1       7.291  23.755  53.660  1.00  0.00     0.102 A 
HETATM   27  C   UNL     1       7.677  22.436  53.952  1.00  0.00     0.101 A 
HETATM   28  C   UNL     1       8.104  22.112  55.247  1.00  0.00     0.040 A 
HETATM   29  C   UNL     1       8.190  23.083  56.247  1.00  0.00     0.020 A 
BRANCH  26  30
HETATM   30  O   UNL     1       6.813  24.025  52.405  1.00  0.00    -0.353 OA
HETATM   31  C   UNL     1       6.999  25.336  51.886  1.00  0.00     0.210 C 
ENDBRANCH  26  30
BRANCH  27  32
HETATM   32  O   UNL     1       7.650  21.346  53.121  1.00  0.00    -0.353 OA
HETATM   33  C   UNL     1       8.656  20.358  53.295  1.00  0.00     0.210 C 
ENDBRANCH  27  32
ENDBRANCH  21  24
ENDBRANCH   1  20
TORSDOF 8
ENDMDL
MODEL 5
REMARK VINA RESULT:      -9.1      4.781     11.937
REMARK  8 active torsions:
REMARK  status: ('A' for Active; 'I' for Inactive)
REMARK    1  A    between atoms: O_2  and  C_3 
REMARK    2  A    between atoms: C_4  and  O_5 
REMARK    3  A    between atoms: C_8  and  C_9 
REMARK       I    between atoms: C_9  and  N_10 
REMARK    4  A    between atoms: N_10  and  N_11 
REMARK       I    between atoms: N_11  and  C_12 
REMARK    5  A    between atoms: C_12  and  C_13 
REMARK    6  A    between atoms: C_13  and  S_14 
REMARK    7  A    between atoms: S_14  and  C_15 
REMARK    8  A    between atoms: C_18  and  C_19 
ROOT
HETATM    1  N   UNL     1       4.659  27.663  56.324  1.00  0.00    -0.267 N 
HETATM    2  C   UNL     1       5.366  28.612  57.038  1.00  0.00     0.245 C 
HETATM    3  O   UNL     1       6.592  28.565  57.161  1.00  0.00    -0.271 OA
HETATM    4  H   UNL     1       3.747  27.920  55.920  1.00  0.00     0.190 HD
ENDROOT
BRANCH   2   5
HETATM    5  C   UNL     1       4.513  29.687  57.682  1.00  0.00     0.187 C 
BRANCH   5   6
HETATM    6  S   UNL     1       5.082  31.341  57.199  1.00  0.00    -0.083 SA
BRANCH   6   7
HETATM    7  C   UNL     1       6.169  31.690  58.486  1.00  0.00     0.167 A 
HETATM    8  N   UNL     1       7.476  31.658  58.445  1.00  0.00    -0.235 NA
HETATM    9  C   UNL     1       7.868  31.969  59.726  1.00  0.00     0.149 A 
HETATM   10  C   UNL     1       6.780  32.219  60.548  1.00  0.00     0.062 A 
HETATM   11  N   UNL     1       5.698  32.025  59.718  1.00  0.00    -0.333 N 
HETATM   12  H   UNL     1       4.723  32.081  59.970  1.00  0.00     0.168 HD
BRANCH  10  13
HETATM   13  C   UNL     1       6.683  32.571  61.960  1.00  0.00    -0.008 A 
HETATM   14  C   UNL     1       5.443  32.862  62.551  1.00  0.00     0.017 A 
HETATM   15  C   UNL     1       5.362  33.199  63.905  1.00  0.00     0.043 A 
HETATM   16  C   UNL     1       6.518  33.247  64.670  1.00  0.00     0.116 A 
HETATM   17  F   UNL     1       6.440  33.570  65.968  1.00  0.00    -0.206 F 
HETATM   18  C   UNL     1       7.757  32.966  64.108  1.00  0.00     0.043 A 
HETATM   19  C   UNL     1       7.839  32.631  62.754  1.00  0.00     0.017 A 
ENDBRANCH  10  13
ENDBRANCH   6   7
ENDBRANCH   5   6
ENDBRANCH   2   5
BRANCH   1  20
HETATM   20  N   UNL     1       5.405  26.716  55.608  1.00  0.00    -0.263 N 
HETATM   21  C   UNL     1       5.667  25.493  56.192  1.00  0.00     0.270 C 
HETATM   22  O   UNL     1       5.282  25.199  57.322  1.00  0.00    -0.266 OA
HETATM   23  H   UNL     1       5.561  26.937  54.627  1.00  0.00     0.190 HD
BRANCH  21  24
HETATM   24  C   UNL     1       6.443  24.503  55.382  1.00  0.00     0.036 A 
HETATM   25  C   UNL     1       7.255  23.586  56.071  1.00  0.00     0.056 A 
HETATM   26  C   UNL     1       8.037  22.641  55.387  1.00  0.00     0.102 A 
HETATM   27  C   UNL     1       7.974  22.598  53.984  1.00  0.00     0.101 A 
HETATM   28  C   UNL     1       7.182  23.530  53.300  1.00  0.00     0.040 A 
HETATM   29  C   UNL     1       6.422  24.479  53.987  1.00  0.00     0.020 A 
BRANCH  26  30
HETATM   30  O   UNL     1       8.872  21.761  56.023  1.00  0.00    -0.353 OA
HETATM   31  C   UNL     1       8.292  20.636  56.671  1.00  0.00     0.210 C 
ENDBRANCH  26  30
BRANCH  27  32
HETATM   32  O   UNL     1       8.649  21.760  53.135  1.00  0.00    -0.353 OA
HETATM   33  C   UNL     1       8.098  20.471  52.903  1.00  0.00     0.210 C 
ENDBRANCH  27  32
ENDBRANCH  21  24
ENDBRANCH   1  20
TORSDOF 8
ENDMDL
MODEL 6
REMARK VINA RESULT:      -9.1      1.425      2.042
REMARK  8 active torsions:
REMARK  status: ('A' for Active; 'I' for Inactive)
REMARK    1  A    between atoms: O_2  and  C_3 
REMARK    2  A    between atoms: C_4  and  O_5 
REMARK    3  A    between atoms: C_8  and  C_9 
REMARK       I    between atoms: C_9  and  N_10 
REMARK    4  A    between atoms: N_10  and  N_11 
REMARK       I    between atoms: N_11  and  C_12 
REMARK    5  A    between atoms: C_12  and  C_13 
REMARK    6  A    between atoms: C_13  and  S_14 
REMARK    7  A    between atoms: S_14  and  C_15 
REMARK    8  A    between atoms: C_18  and  C_19 
ROOT
HETATM    1  N   UNL     1       6.411  31.013  58.964  1.00  0.00    -0.267 N 
HETATM    2  C   UNL     1       7.220  30.014  58.459  1.00  0.00     0.245 C 
HETATM    3  O   UNL     1       8.249  29.647  59.032  1.00  0.00    -0.271 OA
HETATM    4  H   UNL     1       5.414  31.029  58.703  1.00  0.00     0.190 HD
ENDROOT
BRANCH   2   5
HETATM    5  C   UNL     1       6.761  29.432  57.137  1.00  0.00     0.187 C 
BRANCH   5   6
HETATM    6  S   UNL     1       8.169  28.794  56.186  1.00  0.00    -0.083 SA
BRANCH   6   7
HETATM    7  C   UNL     1       8.006  27.105  56.475  1.00  0.00     0.167 A 
HETATM    8  N   UNL     1       7.904  26.510  57.636  1.00  0.00    -0.235 NA
HETATM    9  C   UNL     1       7.844  25.170  57.331  1.00  0.00     0.149 A 
HETATM   10  C   UNL     1       7.885  24.954  55.963  1.00  0.00     0.062 A 
HETATM   11  N   UNL     1       7.996  26.223  55.439  1.00  0.00    -0.333 N 
HETATM   12  H   UNL     1       8.090  26.471  54.466  1.00  0.00     0.168 HD
BRANCH  10  13
HETATM   13  C   UNL     1       7.861  23.733  55.165  1.00  0.00    -0.008 A 
HETATM   14  C   UNL     1       7.858  23.783  53.762  1.00  0.00     0.017 A 
HETATM   15  C   UNL     1       7.833  22.607  53.008  1.00  0.00     0.043 A 
HETATM   16  C   UNL     1       7.812  21.379  53.654  1.00  0.00     0.116 A 
HETATM   17  F   UNL     1       7.789  20.251  52.932  1.00  0.00    -0.206 F 
HETATM   18  C   UNL     1       7.811  21.302  55.041  1.00  0.00     0.043 A 
HETATM   19  C   UNL     1       7.833  22.478  55.796  1.00  0.00     0.017 A 
ENDBRANCH  10  13
ENDBRANCH   6   7
ENDBRANCH   5   6
ENDBRANCH   2   5
BRANCH   1  20
HETATM   20  N   UNL     1       6.720  31.502  60.241  1.00  0.00    -0.263 N 
HETATM   21  C   UNL     1       6.023  32.592  60.725  1.00  0.00     0.270 C 
HETATM   22  O   UNL     1       5.147  33.162  60.078  1.00  0.00    -0.266 OA
HETATM   23  H   UNL     1       7.329  30.908  60.799  1.00  0.00     0.190 HD
BRANCH  21  24
HETATM   24  C   UNL     1       6.367  33.063  62.102  1.00  0.00     0.036 A 
HETATM   25  C   UNL     1       5.755  34.241  62.564  1.00  0.00     0.056 A 
HETATM   26  C   UNL     1       6.040  34.768  63.834  1.00  0.00     0.102 A 
HETATM   27  C   UNL     1       6.937  34.077  64.667  1.00  0.00     0.101 A 
HETATM   28  C   UNL     1       7.564  32.917  64.194  1.00  0.00     0.040 A 
HETATM   29  C   UNL     1       7.289  32.410  62.922  1.00  0.00     0.020 A 
BRANCH  26  30
HETATM   30  O   UNL     1       5.496  35.935  64.299  1.00  0.00    -0.353 OA
HETATM   31  C   UNL     1       5.774  37.134  63.587  1.00  0.00     0.210 C 
ENDBRANCH  26  30
BRANCH  27  32
HETATM   32  O   UNL     1       7.347  34.417  65.930  1.00  0.00    -0.353 OA
HETATM   33  C   UNL     1       6.508  34.052  67.017  1.00  0.00     0.210 C 
ENDBRANCH  27  32
ENDBRANCH  21  24
ENDBRANCH   1  20
TORSDOF 8
ENDMDL
MODEL 7
REMARK VINA RESULT:      -8.7      1.954      2.477
REMARK  8 active torsions:
REMARK  status: ('A' for Active; 'I' for Inactive)
REMARK    1  A    between atoms: O_2  and  C_3 
REMARK    2  A    between atoms: C_4  and  O_5 
REMARK    3  A    between atoms: C_8  and  C_9 
REMARK       I    between atoms: C_9  and  N_10 
REMARK    4  A    between atoms: N_10  and  N_11 
REMARK       I    between atoms: N_11  and  C_12 
REMARK    5  A    between atoms: C_12  and  C_13 
REMARK    6  A    between atoms: C_13  and  S_14 
REMARK    7  A    between atoms: S_14  and  C_15 
REMARK    8  A    between atoms: C_18  and  C_19 
ROOT
HETATM    1  N   UNL     1       6.133  30.463  58.310  1.00  0.00    -0.267 N 
HETATM    2  C   UNL     1       7.389  29.890  58.255  1.00  0.00     0.245 C 
HETATM    3  O   UNL     1       8.286  30.190  59.047  1.00  0.00    -0.271 OA
HETATM    4  H   UNL     1       5.330  29.944  57.925  1.00  0.00     0.190 HD
ENDROOT
BRANCH   2   5
HETATM    5  C   UNL     1       7.584  28.894  57.129  1.00  0.00     0.187 C 
BRANCH   5   6
HETATM    6  S   UNL     1       6.218  27.701  57.075  1.00  0.00    -0.083 SA
BRANCH   6   7
HETATM    7  C   UNL     1       7.093  26.222  56.990  1.00  0.00     0.167 A 
HETATM    8  N   UNL     1       8.002  25.794  57.828  1.00  0.00    -0.235 NA
HETATM    9  C   UNL     1       8.423  24.598  57.297  1.00  0.00     0.149 A 
HETATM   10  C   UNL     1       7.738  24.285  56.133  1.00  0.00     0.062 A 
HETATM   11  N   UNL     1       6.891  25.357  55.959  1.00  0.00    -0.333 N 
HETATM   12  H   UNL     1       6.254  25.507  55.192  1.00  0.00     0.168 HD
BRANCH  10  13
HETATM   13  C   UNL     1       7.833  23.152  55.219  1.00  0.00    -0.008 A 
HETATM   14  C   UNL     1       7.863  21.833  55.700  1.00  0.00     0.017 A 
HETATM   15  C   UNL     1       7.955  20.755  54.815  1.00  0.00     0.043 A 
HETATM   16  C   UNL     1       8.016  20.993  53.448  1.00  0.00     0.116 A 
HETATM   17  F   UNL     1       8.103  19.960  52.601  1.00  0.00    -0.206 F 
HETATM   18  C   UNL     1       7.990  22.289  52.948  1.00  0.00     0.043 A 
HETATM   19  C   UNL     1       7.901  23.367  53.833  1.00  0.00     0.017 A 
ENDBRANCH  10  13
ENDBRANCH   6   7
ENDBRANCH   5   6
ENDBRANCH   2   5
BRANCH   1  20
HETATM   20  N   UNL     1       5.859  31.298  59.403  1.00  0.00    -0.263 N 
HETATM   21  C   UNL     1       5.630  32.640  59.175  1.00  0.00     0.270 C 
HETATM   22  O   UNL     1       5.664  33.140  58.053  1.00  0.00    -0.266 OA
HETATM   23  H   UNL     1       5.681  30.819  60.282  1.00  0.00     0.190 HD
BRANCH  21  24
HETATM   24  C   UNL     1       5.315  33.489  60.366  1.00  0.00     0.036 A 
HETATM   25  C   UNL     1       4.306  34.458  60.232  1.00  0.00     0.056 A 
HETATM   26  C   UNL     1       3.966  35.314  61.292  1.00  0.00     0.102 A 
HETATM   27  C   UNL     1       4.633  35.169  62.520  1.00  0.00     0.101 A 
HETATM   28  C   UNL     1       5.655  34.219  62.642  1.00  0.00     0.040 A 
HETATM   29  C   UNL     1       6.001  33.384  61.578  1.00  0.00     0.020 A 
BRANCH  26  30
HETATM   30  O   UNL     1       3.019  36.298  61.184  1.00  0.00    -0.353 OA
HETATM   31  C   UNL     1       2.168  36.285  60.044  1.00  0.00     0.210 C 
ENDBRANCH  26  30
BRANCH  27  32
HETATM   32  O   UNL     1       4.452  35.895  63.668  1.00  0.00    -0.353 OA
HETATM   33  C   UNL     1       4.075  35.191  64.843  1.00  0.00     0.210 C 
ENDBRANCH  27  32
ENDBRANCH  21  24
ENDBRANCH   1  20
TORSDOF 8
ENDMDL
MODEL 8
REMARK VINA RESULT:      -8.6      2.065      3.142
REMARK  8 active torsions:
REMARK  status: ('A' for Active; 'I' for Inactive)
REMARK    1  A    between atoms: O_2  and  C_3 
REMARK    2  A    between atoms: C_4  and  O_5 
REMARK    3  A    between atoms: C_8  and  C_9 
REMARK       I    between atoms: C_9  and  N_10 
REMARK    4  A    between atoms: N_10  and  N_11 
REMARK       I    between atoms: N_11  and  C_12 
REMARK    5  A    between atoms: C_12  and  C_13 
REMARK    6  A    between atoms: C_13  and  S_14 
REMARK    7  A    between atoms: S_14  and  C_15 
REMARK    8  A    between atoms: C_18  and  C_19 
ROOT
HETATM    1  N   UNL     1       6.184  29.790  57.661  1.00  0.00    -0.267 N 
HETATM    2  C   UNL     1       7.259  28.925  57.745  1.00  0.00     0.245 C 
HETATM    3  O   UNL     1       8.075  28.975  58.668  1.00  0.00    -0.271 OA
HETATM    4  H   UNL     1       5.346  29.496  57.140  1.00  0.00     0.190 HD
ENDROOT
BRANCH   2   5
HETATM    5  C   UNL     1       7.370  27.940  56.598  1.00  0.00     0.187 C 
BRANCH   5   6
HETATM    6  S   UNL     1       6.144  28.301  55.311  1.00  0.00    -0.083 SA
BRANCH   6   7
HETATM    7  C   UNL     1       6.026  26.765  54.545  1.00  0.00     0.167 A 
HETATM    8  N   UNL     1       5.173  26.408  53.619  1.00  0.00    -0.235 NA
HETATM    9  C   UNL     1       5.461  25.086  53.378  1.00  0.00     0.149 A 
HETATM   10  C   UNL     1       6.521  24.643  54.153  1.00  0.00     0.062 A 
HETATM   11  N   UNL     1       6.859  25.749  54.900  1.00  0.00    -0.333 N 
HETATM   12  H   UNL     1       7.571  25.805  55.613  1.00  0.00     0.168 HD
BRANCH  10  13
HETATM   13  C   UNL     1       7.176  23.343  54.262  1.00  0.00    -0.008 A 
HETATM   14  C   UNL     1       7.339  22.716  55.507  1.00  0.00     0.017 A 
HETATM   15  C   UNL     1       7.969  21.472  55.599  1.00  0.00     0.043 A 
HETATM   16  C   UNL     1       8.437  20.853  54.448  1.00  0.00     0.116 A 
HETATM   17  F   UNL     1       9.040  19.661  54.537  1.00  0.00    -0.206 F 
HETATM   18  C   UNL     1       8.291  21.455  53.205  1.00  0.00     0.043 A 
HETATM   19  C   UNL     1       7.663  22.700  53.113  1.00  0.00     0.017 A 
ENDBRANCH  10  13
ENDBRANCH   6   7
ENDBRANCH   5   6
ENDBRANCH   2   5
BRANCH   1  20
HETATM   20  N   UNL     1       5.963  30.641  58.754  1.00  0.00    -0.263 N 
HETATM   21  C   UNL     1       5.775  31.989  58.522  1.00  0.00     0.270 C 
HETATM   22  O   UNL     1       5.803  32.481  57.396  1.00  0.00    -0.266 OA
HETATM   23  H   UNL     1       5.788  30.174  59.640  1.00  0.00     0.190 HD
BRANCH  21  24
HETATM   24  C   UNL     1       5.516  32.855  59.713  1.00  0.00     0.036 A 
HETATM   25  C   UNL     1       6.477  32.865  60.739  1.00  0.00     0.056 A 
HETATM   26  C   UNL     1       6.301  33.629  61.903  1.00  0.00     0.102 A 
HETATM   27  C   UNL     1       5.149  34.424  62.023  1.00  0.00     0.101 A 
HETATM   28  C   UNL     1       4.181  34.393  61.011  1.00  0.00     0.040 A 
HETATM   29  C   UNL     1       4.355  33.616  59.863  1.00  0.00     0.020 A 
BRANCH  26  30
HETATM   30  O   UNL     1       7.196  33.628  62.940  1.00  0.00    -0.353 OA
HETATM   31  C   UNL     1       7.711  32.377  63.379  1.00  0.00     0.210 C 
ENDBRANCH  26  30
BRANCH  27  32
HETATM   32  O   UNL     1       4.790  35.236  63.067  1.00  0.00    -0.353 OA
HETATM   33  C   UNL     1       3.411  35.546  63.219  1.00  0.00     0.210 C 
ENDBRANCH  27  32
ENDBRANCH  21  24
ENDBRANCH   1  20
TORSDOF 8
ENDMDL
MODEL 9
REMARK VINA RESULT:      -8.5      1.854      2.445
REMARK  8 active torsions:
REMARK  status: ('A' for Active; 'I' for Inactive)
REMARK    1  A    between atoms: O_2  and  C_3 
REMARK    2  A    between atoms: C_4  and  O_5 
REMARK    3  A    between atoms: C_8  and  C_9 
REMARK       I    between atoms: C_9  and  N_10 
REMARK    4  A    between atoms: N_10  and  N_11 
REMARK       I    between atoms: N_11  and  C_12 
REMARK    5  A    between atoms: C_12  and  C_13 
REMARK    6  A    between atoms: C_13  and  S_14 
REMARK    7  A    between atoms: S_14  and  C_15 
REMARK    8  A    between atoms: C_18  and  C_19 
ROOT
HETATM    1  N   UNL     1       6.873  30.767  58.838  1.00  0.00    -0.267 N 
HETATM    2  C   UNL     1       7.868  29.870  58.502  1.00  0.00     0.245 C 
HETATM    3  O   UNL     1       8.847  29.670  59.224  1.00  0.00    -0.271 OA
HETATM    4  H   UNL     1       5.928  30.635  58.449  1.00  0.00     0.190 HD
ENDROOT
BRANCH   2   5
HETATM    5  C   UNL     1       7.675  29.181  57.165  1.00  0.00     0.187 C 
BRANCH   5   6
HETATM    6  S   UNL     1       5.979  29.403  56.560  1.00  0.00    -0.083 SA
BRANCH   6   7
HETATM    7  C   UNL     1       5.837  28.047  55.510  1.00  0.00     0.167 A 
HETATM    8  N   UNL     1       4.864  27.796  54.673  1.00  0.00    -0.235 NA
HETATM    9  C   UNL     1       5.196  26.586  54.112  1.00  0.00     0.149 A 
HETATM   10  C   UNL     1       6.403  26.110  54.600  1.00  0.00     0.062 A 
HETATM   11  N   UNL     1       6.788  27.074  55.505  1.00  0.00    -0.333 N 
HETATM   12  H   UNL     1       7.607  27.060  56.093  1.00  0.00     0.168 HD
BRANCH  10  13
HETATM   13  C   UNL     1       7.155  24.891  54.324  1.00  0.00    -0.008 A 
HETATM   14  C   UNL     1       7.075  24.257  53.073  1.00  0.00     0.017 A 
HETATM   15  C   UNL     1       7.800  23.089  52.820  1.00  0.00     0.043 A 
HETATM   16  C   UNL     1       8.605  22.553  53.815  1.00  0.00     0.116 A 
HETATM   17  F   UNL     1       9.299  21.433  53.572  1.00  0.00    -0.206 F 
HETATM   18  C   UNL     1       8.698  23.159  55.061  1.00  0.00     0.043 A 
HETATM   19  C   UNL     1       7.972  24.325  55.315  1.00  0.00     0.017 A 
ENDBRANCH  10  13
ENDBRANCH   6   7
ENDBRANCH   5   6
ENDBRANCH   2   5
BRANCH   1  20
HETATM   20  N   UNL     1       6.936  31.342  60.116  1.00  0.00    -0.263 N 
HETATM   21  C   UNL     1       6.124  32.421  60.404  1.00  0.00     0.270 C 
HETATM   22  O   UNL     1       5.350  32.908  59.582  1.00  0.00    -0.266 OA
HETATM   23  H   UNL     1       7.463  30.812  60.806  1.00  0.00     0.190 HD
BRANCH  21  24
HETATM   24  C   UNL     1       6.205  32.985  61.786  1.00  0.00     0.036 A 
HETATM   25  C   UNL     1       5.591  34.227  62.025  1.00  0.00     0.056 A 
HETATM   26  C   UNL     1       5.641  34.840  63.286  1.00  0.00     0.102 A 
HETATM   27  C   UNL     1       6.297  34.175  64.336  1.00  0.00     0.101 A 
HETATM   28  C   UNL     1       6.929  32.950  64.089  1.00  0.00     0.040 A 
HETATM   29  C   UNL     1       6.890  32.355  62.826  1.00  0.00     0.020 A 
BRANCH  26  30
HETATM   30  O   UNL     1       5.092  36.068  63.543  1.00  0.00    -0.353 OA
HETATM   31  C   UNL     1       3.700  36.242  63.306  1.00  0.00     0.210 C 
ENDBRANCH  26  30
BRANCH  27  32
HETATM   32  O   UNL     1       6.457  34.597  65.631  1.00  0.00    -0.353 OA
HETATM   33  C   UNL     1       5.480  34.198  66.582  1.00  0.00     0.210 C 
ENDBRANCH  27  32
ENDBRANCH  21  24
ENDBRANCH   1  20
TORSDOF 8
ENDMDL
MODEL 10
REMARK VINA RESULT:      -8.3      1.742      2.712
REMARK  8 active torsions:
REMARK  status: ('A' for Active; 'I' for Inactive)
REMARK    1  A    between atoms: O_2  and  C_3 
REMARK    2  A    between atoms: C_4  and  O_5 
REMARK    3  A    between atoms: C_8  and  C_9 
REMARK       I    between atoms: C_9  and  N_10 
REMARK    4  A    between atoms: N_10  and  N_11 
REMARK       I    between atoms: N_11  and  C_12 
REMARK    5  A    between atoms: C_12  and  C_13 
REMARK    6  A    between atoms: C_13  and  S_14 
REMARK    7  A    between atoms: S_14  and  C_15 
REMARK    8  A    between atoms: C_18  and  C_19 
ROOT
HETATM    1  N   UNL     1       6.419  31.573  60.330  1.00  0.00    -0.267 N 
HETATM    2  C   UNL     1       7.473  31.692  59.446  1.00  0.00     0.245 C 
HETATM    3  O   UNL     1       8.429  32.443  59.656  1.00  0.00    -0.271 OA
HETATM    4  H   UNL     1       5.865  30.703  60.335  1.00  0.00     0.190 HD
ENDROOT
BRANCH   2   5
HETATM    5  C   UNL     1       7.344  30.855  58.188  1.00  0.00     0.187 C 
BRANCH   5   6
HETATM    6  S   UNL     1       8.754  29.725  58.014  1.00  0.00    -0.083 SA
BRANCH   6   7
HETATM    7  C   UNL     1       8.117  28.597  56.882  1.00  0.00     0.167 A 
HETATM    8  N   UNL     1       7.379  28.862  55.834  1.00  0.00    -0.235 NA
HETATM    9  C   UNL     1       7.097  27.631  55.291  1.00  0.00     0.149 A 
HETATM   10  C   UNL     1       7.695  26.606  56.009  1.00  0.00     0.062 A 
HETATM   11  N   UNL     1       8.341  27.264  57.032  1.00  0.00    -0.333 N 
HETATM   12  H   UNL     1       8.863  26.845  57.788  1.00  0.00     0.168 HD
BRANCH  10  13
HETATM   13  C   UNL     1       7.683  25.157  55.837  1.00  0.00    -0.008 A 
HETATM   14  C   UNL     1       7.151  24.569  54.679  1.00  0.00     0.017 A 
HETATM   15  C   UNL     1       7.144  23.180  54.526  1.00  0.00     0.043 A 
HETATM   16  C   UNL     1       7.669  22.377  55.529  1.00  0.00     0.116 A 
HETATM   17  F   UNL     1       7.662  21.045  55.382  1.00  0.00    -0.206 F 
HETATM   18  C   UNL     1       8.198  22.935  56.686  1.00  0.00     0.043 A 
HETATM   19  C   UNL     1       8.203  24.323  56.841  1.00  0.00     0.017 A 
ENDBRANCH  10  13
ENDBRANCH   6   7
ENDBRANCH   5   6
ENDBRANCH   2   5
BRANCH   1  20
HETATM   20  N   UNL     1       6.542  32.229  61.564  1.00  0.00    -0.263 N 
HETATM   21  C   UNL     1       5.400  32.502  62.291  1.00  0.00     0.270 C 
HETATM   22  O   UNL     1       4.275  32.202  61.900  1.00  0.00    -0.266 OA
HETATM   23  H   UNL     1       7.491  32.311  61.920  1.00  0.00     0.190 HD
BRANCH  21  24
HETATM   24  C   UNL     1       5.581  33.179  63.612  1.00  0.00     0.036 A 
HETATM   25  C   UNL     1       4.546  34.015  64.067  1.00  0.00     0.056 A 
HETATM   26  C   UNL     1       4.644  34.709  65.284  1.00  0.00     0.102 A 
HETATM   27  C   UNL     1       5.794  34.533  66.072  1.00  0.00     0.101 A 
HETATM   28  C   UNL     1       6.834  33.720  65.604  1.00  0.00     0.040 A 
HETATM   29  C   UNL     1       6.737  33.047  64.384  1.00  0.00     0.020 A 
BRANCH  26  30
HETATM   30  O   UNL     1       3.675  35.564  65.737  1.00  0.00    -0.353 OA
HETATM   31  C   UNL     1       2.804  35.105  66.764  1.00  0.00     0.210 C 
ENDBRANCH  26  30
BRANCH  27  32
HETATM   32  O   UNL     1       6.084  35.113  67.280  1.00  0.00    -0.353 OA
HETATM   33  C   UNL     1       6.848  34.356  68.209  1.00  0.00     0.210 C 
ENDBRANCH  27  32
ENDBRANCH  21  24
ENDBRANCH   1  20
TORSDOF 8
ENDMDL
