MODEL 1
REMARK VINA RESULT:     -10.3      0.000      0.000
REMARK  5 active torsions:
REMARK  status: ('A' for Active; 'I' for Inactive)
REMARK    1  A    between atoms: C_2  and  C_3 
REMARK    2  A    between atoms: C_5  and  N_6 
REMARK       I    between atoms: N_6  and  C_7 
REMARK    3  A    between atoms: C_7  and  C_8 
REMARK    4  A    between atoms: C_16  and  C_17 
REMARK    5  A    between atoms: C_19  and  O_20 
ROOT
HETATM    1  C   UNL     1       6.374  26.294  54.323  1.00  0.00     0.047 A 
HETATM    2  C   UNL     1       6.871  27.226  55.255  1.00  0.00     0.008 A 
HETATM    3  C   UNL     1       7.647  26.690  56.297  1.00  0.00     0.068 A 
HETATM    4  C   UNL     1       8.152  27.548  57.265  1.00  0.00     0.032 A 
HETATM    5  C   UNL     1       7.928  28.926  57.222  1.00  0.00     0.002 A 
HETATM    6  C   UNL     1       7.189  29.470  56.182  1.00  0.00     0.001 A 
HETATM    7  C   UNL     1       6.666  28.630  55.201  1.00  0.00     0.015 A 
HETATM    8  N   UNL     1       7.926  25.379  56.402  1.00  0.00    -0.248 NA
HETATM    9  C   UNL     1       7.480  24.502  55.465  1.00  0.00     0.069 A 
HETATM   10  C   UNL     1       6.704  24.939  54.407  1.00  0.00     0.050 A 
ENDROOT
BRANCH   1  11
HETATM   11  C   UNL     1       5.444  26.649  53.224  1.00  0.00     0.257 C 
HETATM   12  N   UNL     1       6.017  26.626  51.967  1.00  0.00    -0.323 N 
HETATM   13  H   UNL     1       6.977  26.305  51.908  1.00  0.00     0.169 HD
HETATM   14  O   UNL     1       4.309  26.993  53.523  1.00  0.00    -0.267 OA
BRANCH  12  15
HETATM   15  C   UNL     1       5.441  27.061  50.755  1.00  0.00     0.035 A 
HETATM   16  C   UNL     1       4.789  26.219  49.851  1.00  0.00     0.044 A 
HETATM   17  C   UNL     1       4.189  26.740  48.691  1.00  0.00     0.011 A 
HETATM   18  C   UNL     1       4.274  28.111  48.425  1.00  0.00     0.015 A 
HETATM   19  C   UNL     1       4.934  28.953  49.317  1.00  0.00     0.003 A 
HETATM   20  C   UNL     1       5.507  28.432  50.478  1.00  0.00     0.029 A 
BRANCH  17  21
HETATM   21  C   UNL     1       3.462  25.806  47.779  1.00  0.00     0.155 C 
HETATM   22  C   UNL     1       3.096  24.434  48.283  1.00  0.00     0.096 C 
HETATM   23  O   UNL     1       3.175  26.156  46.637  1.00  0.00    -0.293 OA
ENDBRANCH  17  21
ENDBRANCH  12  15
ENDBRANCH   1  11
BRANCH   9  24
HETATM   24  C   UNL     1       7.869  23.085  55.666  1.00  0.00    -0.005 A 
HETATM   25  C   UNL     1       8.019  22.181  54.591  1.00  0.00     0.050 A 
HETATM   26  C   UNL     1       8.398  20.849  54.796  1.00  0.00     0.069 A 
HETATM   27  C   UNL     1       8.616  20.391  56.094  1.00  0.00     0.037 A 
HETATM   28  C   UNL     1       8.467  21.252  57.177  1.00  0.00     0.004 A 
HETATM   29  C   UNL     1       8.100  22.582  56.961  1.00  0.00     0.014 A 
BRANCH  26  30
HETATM   30  O   UNL     1       8.577  19.906  53.821  1.00  0.00    -0.356 OA
HETATM   31  C   UNL     1       8.259  20.286  52.488  1.00  0.00     0.210 C 
ENDBRANCH  26  30
ENDBRANCH   9  24
TORSDOF 5
ENDMDL
MODEL 2
REMARK VINA RESULT:     -10.2      2.767      7.051
REMARK  5 active torsions:
REMARK  status: ('A' for Active; 'I' for Inactive)
REMARK    1  A    between atoms: C_2  and  C_3 
REMARK    2  A    between atoms: C_5  and  N_6 
REMARK       I    between atoms: N_6  and  C_7 
REMARK    3  A    between atoms: C_7  and  C_8 
REMARK    4  A    between atoms: C_16  and  C_17 
REMARK    5  A    between atoms: C_19  and  O_20 
ROOT
HETATM    1  C   UNL     1       6.855  26.783  54.607  1.00  0.00     0.047 A 
HETATM    2  C   UNL     1       6.300  27.165  53.370  1.00  0.00     0.008 A 
HETATM    3  C   UNL     1       6.220  26.151  52.400  1.00  0.00     0.068 A 
HETATM    4  C   UNL     1       5.704  26.461  51.149  1.00  0.00     0.032 A 
HETATM    5  C   UNL     1       5.247  27.743  50.834  1.00  0.00     0.002 A 
HETATM    6  C   UNL     1       5.293  28.744  51.793  1.00  0.00     0.001 A 
HETATM    7  C   UNL     1       5.812  28.460  53.055  1.00  0.00     0.015 A 
HETATM    8  N   UNL     1       6.621  24.887  52.627  1.00  0.00    -0.248 NA
HETATM    9  C   UNL     1       7.106  24.526  53.842  1.00  0.00     0.069 A 
HETATM   10  C   UNL     1       7.226  25.459  54.856  1.00  0.00     0.050 A 
ENDROOT
BRANCH   1  11
HETATM   11  C   UNL     1       7.129  27.733  55.712  1.00  0.00     0.257 C 
HETATM   12  N   UNL     1       8.264  28.501  55.530  1.00  0.00    -0.323 N 
HETATM   13  H   UNL     1       8.749  28.397  54.646  1.00  0.00     0.169 HD
HETATM   14  O   UNL     1       6.395  27.703  56.688  1.00  0.00    -0.267 OA
BRANCH  12  15
HETATM   15  C   UNL     1       8.866  29.372  56.462  1.00  0.00     0.035 A 
HETATM   16  C   UNL     1       8.164  30.075  57.445  1.00  0.00     0.044 A 
HETATM   17  C   UNL     1       8.845  30.880  58.374  1.00  0.00     0.011 A 
HETATM   18  C   UNL     1      10.236  31.003  58.294  1.00  0.00     0.015 A 
HETATM   19  C   UNL     1      10.940  30.316  57.306  1.00  0.00     0.003 A 
HETATM   20  C   UNL     1      10.259  29.500  56.401  1.00  0.00     0.029 A 
BRANCH  17  21
HETATM   21  C   UNL     1       8.055  31.573  59.436  1.00  0.00     0.155 C 
HETATM   22  C   UNL     1       8.354  31.269  60.881  1.00  0.00     0.096 C 
HETATM   23  O   UNL     1       7.175  32.374  59.129  1.00  0.00    -0.293 OA
ENDBRANCH  17  21
ENDBRANCH  12  15
ENDBRANCH   1  11
BRANCH   9  24
HETATM   24  C   UNL     1       7.493  23.102  53.990  1.00  0.00    -0.005 A 
HETATM   25  C   UNL     1       7.584  22.467  55.248  1.00  0.00     0.050 A 
HETATM   26  C   UNL     1       7.939  21.118  55.369  1.00  0.00     0.069 A 
HETATM   27  C   UNL     1       8.231  20.381  54.222  1.00  0.00     0.037 A 
HETATM   28  C   UNL     1       8.162  20.979  52.968  1.00  0.00     0.004 A 
HETATM   29  C   UNL     1       7.795  22.321  52.856  1.00  0.00     0.014 A 
BRANCH  26  30
HETATM   30  O   UNL     1       8.043  20.417  56.539  1.00  0.00    -0.356 OA
HETATM   31  C   UNL     1       8.421  21.149  57.699  1.00  0.00     0.210 C 
ENDBRANCH  26  30
ENDBRANCH   9  24
TORSDOF 5
ENDMDL
MODEL 3
REMARK VINA RESULT:      -9.9      2.829      7.107
REMARK  5 active torsions:
REMARK  status: ('A' for Active; 'I' for Inactive)
REMARK    1  A    between atoms: C_2  and  C_3 
REMARK    2  A    between atoms: C_5  and  N_6 
REMARK       I    between atoms: N_6  and  C_7 
REMARK    3  A    between atoms: C_7  and  C_8 
REMARK    4  A    between atoms: C_16  and  C_17 
REMARK    5  A    between atoms: C_19  and  O_20 
ROOT
HETATM    1  C   UNL     1       7.282  27.095  54.900  1.00  0.00     0.047 A 
HETATM    2  C   UNL     1       6.611  27.155  53.663  1.00  0.00     0.008 A 
HETATM    3  C   UNL     1       6.427  25.924  53.010  1.00  0.00     0.068 A 
HETATM    4  C   UNL     1       5.793  25.910  51.775  1.00  0.00     0.032 A 
HETATM    5  C   UNL     1       5.318  27.078  51.174  1.00  0.00     0.002 A 
HETATM    6  C   UNL     1       5.467  28.295  51.822  1.00  0.00     0.001 A 
HETATM    7  C   UNL     1       6.105  28.337  53.060  1.00  0.00     0.015 A 
HETATM    8  N   UNL     1       6.837  24.753  53.528  1.00  0.00    -0.248 NA
HETATM    9  C   UNL     1       7.437  24.710  54.745  1.00  0.00     0.069 A 
HETATM   10  C   UNL     1       7.664  25.873  55.458  1.00  0.00     0.050 A 
ENDROOT
BRANCH   1  11
HETATM   11  C   UNL     1       7.672  28.294  55.681  1.00  0.00     0.257 C 
HETATM   12  N   UNL     1       6.889  28.523  56.797  1.00  0.00    -0.323 N 
HETATM   13  H   UNL     1       6.186  27.825  57.013  1.00  0.00     0.169 HD
HETATM   14  O   UNL     1       8.573  28.994  55.243  1.00  0.00    -0.267 OA
BRANCH  12  15
HETATM   15  C   UNL     1       6.912  29.653  57.641  1.00  0.00     0.035 A 
HETATM   16  C   UNL     1       8.010  30.028  58.419  1.00  0.00     0.044 A 
HETATM   17  C   UNL     1       7.972  31.202  59.191  1.00  0.00     0.011 A 
HETATM   18  C   UNL     1       6.813  31.985  59.204  1.00  0.00     0.015 A 
HETATM   19  C   UNL     1       5.710  31.608  58.441  1.00  0.00     0.003 A 
HETATM   20  C   UNL     1       5.763  30.453  57.658  1.00  0.00     0.029 A 
BRANCH  17  21
HETATM   21  C   UNL     1       9.189  31.586  59.970  1.00  0.00     0.155 C 
HETATM   22  C   UNL     1       9.287  31.177  61.416  1.00  0.00     0.096 C 
HETATM   23  O   UNL     1      10.088  32.229  59.433  1.00  0.00    -0.293 OA
ENDBRANCH  17  21
ENDBRANCH  12  15
ENDBRANCH   1  11
BRANCH   9  24
HETATM   24  C   UNL     1       7.823  23.363  55.231  1.00  0.00    -0.005 A 
HETATM   25  C   UNL     1       8.042  22.275  54.356  1.00  0.00     0.050 A 
HETATM   26  C   UNL     1       8.419  21.013  54.830  1.00  0.00     0.069 A 
HETATM   27  C   UNL     1       8.564  20.811  56.201  1.00  0.00     0.037 A 
HETATM   28  C   UNL     1       8.345  21.858  57.092  1.00  0.00     0.004 A 
HETATM   29  C   UNL     1       7.981  23.116  56.609  1.00  0.00     0.014 A 
BRANCH  26  30
HETATM   30  O   UNL     1       8.661  19.907  54.062  1.00  0.00    -0.356 OA
HETATM   31  C   UNL     1       8.572  20.067  52.651  1.00  0.00     0.210 C 
ENDBRANCH  26  30
ENDBRANCH   9  24
TORSDOF 5
ENDMDL
MODEL 4
REMARK VINA RESULT:      -9.9      1.851      5.270
REMARK  5 active torsions:
REMARK  status: ('A' for Active; 'I' for Inactive)
REMARK    1  A    between atoms: C_2  and  C_3 
REMARK    2  A    between atoms: C_5  and  N_6 
REMARK       I    between atoms: N_6  and  C_7 
REMARK    3  A    between atoms: C_7  and  C_8 
REMARK    4  A    between atoms: C_16  and  C_17 
REMARK    5  A    between atoms: C_19  and  O_20 
ROOT
HETATM    1  C   UNL     1       6.451  25.408  53.677  1.00  0.00     0.047 A 
HETATM    2  C   UNL     1       7.234  24.288  54.020  1.00  0.00     0.008 A 
HETATM    3  C   UNL     1       8.046  24.437  55.158  1.00  0.00     0.068 A 
HETATM    4  C   UNL     1       8.861  23.381  55.541  1.00  0.00     0.032 A 
HETATM    5  C   UNL     1       8.884  22.172  54.842  1.00  0.00     0.002 A 
HETATM    6  C   UNL     1       8.066  22.003  53.735  1.00  0.00     0.001 A 
HETATM    7  C   UNL     1       7.243  23.049  53.326  1.00  0.00     0.015 A 
HETATM    8  N   UNL     1       8.069  25.560  55.898  1.00  0.00    -0.248 NA
HETATM    9  C   UNL     1       7.269  26.610  55.581  1.00  0.00     0.069 A 
HETATM   10  C   UNL     1       6.441  26.555  54.475  1.00  0.00     0.050 A 
ENDROOT
BRANCH   1  11
HETATM   11  C   UNL     1       5.622  25.485  52.450  1.00  0.00     0.257 C 
HETATM   12  N   UNL     1       6.010  26.474  51.566  1.00  0.00    -0.323 N 
HETATM   13  H   UNL     1       6.850  26.992  51.800  1.00  0.00     0.169 HD
HETATM   14  O   UNL     1       4.656  24.742  52.365  1.00  0.00    -0.267 OA
BRANCH  12  15
HETATM   15  C   UNL     1       5.335  26.892  50.401  1.00  0.00     0.035 A 
HETATM   16  C   UNL     1       4.636  26.033  49.549  1.00  0.00     0.044 A 
HETATM   17  C   UNL     1       3.940  26.538  48.437  1.00  0.00     0.011 A 
HETATM   18  C   UNL     1       3.975  27.909  48.162  1.00  0.00     0.015 A 
HETATM   19  C   UNL     1       4.682  28.768  49.001  1.00  0.00     0.003 A 
HETATM   20  C   UNL     1       5.351  28.263  50.117  1.00  0.00     0.029 A 
BRANCH  17  21
HETATM   21  C   UNL     1       3.167  25.585  47.583  1.00  0.00     0.155 C 
HETATM   22  C   UNL     1       2.923  24.187  48.088  1.00  0.00     0.096 C 
HETATM   23  O   UNL     1       2.743  25.942  46.486  1.00  0.00    -0.293 OA
ENDBRANCH  17  21
ENDBRANCH  12  15
ENDBRANCH   1  11
BRANCH   9  24
HETATM   24  C   UNL     1       7.356  27.786  56.481  1.00  0.00    -0.005 A 
HETATM   25  C   UNL     1       8.581  28.244  57.015  1.00  0.00     0.050 A 
HETATM   26  C   UNL     1       8.648  29.363  57.853  1.00  0.00     0.069 A 
HETATM   27  C   UNL     1       7.475  30.036  58.190  1.00  0.00     0.037 A 
HETATM   28  C   UNL     1       6.250  29.606  57.692  1.00  0.00     0.004 A 
HETATM   29  C   UNL     1       6.195  28.496  56.846  1.00  0.00     0.014 A 
BRANCH  26  30
HETATM   30  O   UNL     1       9.784  29.884  58.407  1.00  0.00    -0.356 OA
HETATM   31  C   UNL     1      10.452  30.905  57.675  1.00  0.00     0.210 C 
ENDBRANCH  26  30
ENDBRANCH   9  24
TORSDOF 5
ENDMDL
MODEL 5
REMARK VINA RESULT:      -9.8      2.549      8.373
REMARK  5 active torsions:
REMARK  status: ('A' for Active; 'I' for Inactive)
REMARK    1  A    between atoms: C_2  and  C_3 
REMARK    2  A    between atoms: C_5  and  N_6 
REMARK       I    between atoms: N_6  and  C_7 
REMARK    3  A    between atoms: C_7  and  C_8 
REMARK    4  A    between atoms: C_16  and  C_17 
REMARK    5  A    between atoms: C_19  and  O_20 
ROOT
HETATM    1  C   UNL     1       7.134  26.479  54.904  1.00  0.00     0.047 A 
HETATM    2  C   UNL     1       7.480  25.113  54.857  1.00  0.00     0.008 A 
HETATM    3  C   UNL     1       6.997  24.401  53.745  1.00  0.00     0.068 A 
HETATM    4  C   UNL     1       7.280  23.046  53.644  1.00  0.00     0.032 A 
HETATM    5  C   UNL     1       8.044  22.376  54.603  1.00  0.00     0.002 A 
HETATM    6  C   UNL     1       8.550  23.075  55.689  1.00  0.00     0.001 A 
HETATM    7  C   UNL     1       8.276  24.435  55.817  1.00  0.00     0.015 A 
HETATM    8  N   UNL     1       6.271  24.974  52.768  1.00  0.00    -0.248 NA
HETATM    9  C   UNL     1       5.992  26.302  52.805  1.00  0.00     0.069 A 
HETATM   10  C   UNL     1       6.421  27.081  53.864  1.00  0.00     0.050 A 
ENDROOT
BRANCH   1  11
HETATM   11  C   UNL     1       7.450  27.365  56.049  1.00  0.00     0.257 C 
HETATM   12  N   UNL     1       8.249  28.445  55.726  1.00  0.00    -0.323 N 
HETATM   13  H   UNL     1       8.478  28.568  54.746  1.00  0.00     0.169 HD
HETATM   14  O   UNL     1       7.051  27.034  57.156  1.00  0.00    -0.267 OA
BRANCH  12  15
HETATM   15  C   UNL     1       8.840  29.368  56.614  1.00  0.00     0.035 A 
HETATM   16  C   UNL     1       8.130  30.107  57.564  1.00  0.00     0.044 A 
HETATM   17  C   UNL     1       8.802  30.965  58.452  1.00  0.00     0.011 A 
HETATM   18  C   UNL     1      10.191  31.103  58.363  1.00  0.00     0.015 A 
HETATM   19  C   UNL     1      10.903  30.379  57.408  1.00  0.00     0.003 A 
HETATM   20  C   UNL     1      10.231  29.512  56.545  1.00  0.00     0.029 A 
BRANCH  17  21
HETATM   21  C   UNL     1       8.004  31.697  59.482  1.00  0.00     0.155 C 
HETATM   22  C   UNL     1       8.358  31.524  60.936  1.00  0.00     0.096 C 
HETATM   23  O   UNL     1       7.074  32.424  59.142  1.00  0.00    -0.293 OA
ENDBRANCH  17  21
ENDBRANCH  12  15
ENDBRANCH   1  11
BRANCH   9  24
HETATM   24  C   UNL     1       5.208  26.832  51.664  1.00  0.00    -0.005 A 
HETATM   25  C   UNL     1       5.105  26.149  50.431  1.00  0.00     0.050 A 
HETATM   26  C   UNL     1       4.351  26.658  49.367  1.00  0.00     0.069 A 
HETATM   27  C   UNL     1       3.698  27.880  49.514  1.00  0.00     0.037 A 
HETATM   28  C   UNL     1       3.787  28.586  50.710  1.00  0.00     0.004 A 
HETATM   29  C   UNL     1       4.532  28.064  51.770  1.00  0.00     0.014 A 
BRANCH  26  30
HETATM   30  O   UNL     1       4.186  26.066  48.146  1.00  0.00    -0.356 OA
HETATM   31  C   UNL     1       3.076  25.189  47.996  1.00  0.00     0.210 C 
ENDBRANCH  26  30
ENDBRANCH   9  24
TORSDOF 5
ENDMDL
MODEL 6
REMARK VINA RESULT:      -9.7      3.670      7.877
REMARK  5 active torsions:
REMARK  status: ('A' for Active; 'I' for Inactive)
REMARK    1  A    between atoms: C_2  and  C_3 
REMARK    2  A    between atoms: C_5  and  N_6 
REMARK       I    between atoms: N_6  and  C_7 
REMARK    3  A    between atoms: C_7  and  C_8 
REMARK    4  A    between atoms: C_16  and  C_17 
REMARK    5  A    between atoms: C_19  and  O_20 
ROOT
HETATM    1  C   UNL     1       6.705  27.611  56.322  1.00  0.00     0.047 A 
HETATM    2  C   UNL     1       5.740  28.239  55.509  1.00  0.00     0.008 A 
HETATM    3  C   UNL     1       5.341  27.518  54.371  1.00  0.00     0.068 A 
HETATM    4  C   UNL     1       4.408  28.085  53.513  1.00  0.00     0.032 A 
HETATM    5  C   UNL     1       3.844  29.339  53.757  1.00  0.00     0.002 A 
HETATM    6  C   UNL     1       4.208  30.047  54.893  1.00  0.00     0.001 A 
HETATM    7  C   UNL     1       5.146  29.503  55.768  1.00  0.00     0.015 A 
HETATM    8  N   UNL     1       5.820  26.298  54.072  1.00  0.00    -0.248 NA
HETATM    9  C   UNL     1       6.712  25.687  54.894  1.00  0.00     0.069 A 
HETATM   10  C   UNL     1       7.166  26.324  56.035  1.00  0.00     0.050 A 
ENDROOT
BRANCH   1  11
HETATM   11  C   UNL     1       7.334  28.260  57.497  1.00  0.00     0.257 C 
HETATM   12  N   UNL     1       7.351  29.640  57.441  1.00  0.00    -0.323 N 
HETATM   13  H   UNL     1       6.877  30.072  56.656  1.00  0.00     0.169 HD
HETATM   14  O   UNL     1       7.833  27.539  58.349  1.00  0.00    -0.267 OA
BRANCH  12  15
HETATM   15  C   UNL     1       8.009  30.524  58.322  1.00  0.00     0.035 A 
HETATM   16  C   UNL     1       7.396  31.144  59.413  1.00  0.00     0.044 A 
HETATM   17  C   UNL     1       8.138  31.969  60.278  1.00  0.00     0.011 A 
HETATM   18  C   UNL     1       9.495  32.194  60.024  1.00  0.00     0.015 A 
HETATM   19  C   UNL     1      10.108  31.590  58.929  1.00  0.00     0.003 A 
HETATM   20  C   UNL     1       9.371  30.754  58.088  1.00  0.00     0.029 A 
BRANCH  17  21
HETATM   21  C   UNL     1       7.449  32.571  61.459  1.00  0.00     0.155 C 
HETATM   22  C   UNL     1       8.025  32.344  62.832  1.00  0.00     0.096 C 
HETATM   23  O   UNL     1       6.427  33.236  61.306  1.00  0.00    -0.293 OA
ENDBRANCH  17  21
ENDBRANCH  12  15
ENDBRANCH   1  11
BRANCH   9  24
HETATM   24  C   UNL     1       7.153  24.333  54.482  1.00  0.00    -0.005 A 
HETATM   25  C   UNL     1       7.218  23.248  55.385  1.00  0.00     0.050 A 
HETATM   26  C   UNL     1       7.625  21.973  54.977  1.00  0.00     0.069 A 
HETATM   27  C   UNL     1       7.998  21.765  53.650  1.00  0.00     0.037 A 
HETATM   28  C   UNL     1       7.957  22.814  52.736  1.00  0.00     0.004 A 
HETATM   29  C   UNL     1       7.537  24.079  53.150  1.00  0.00     0.014 A 
BRANCH  26  30
HETATM   30  O   UNL     1       7.710  20.864  55.773  1.00  0.00    -0.356 OA
HETATM   31  C   UNL     1       8.869  20.052  55.630  1.00  0.00     0.210 C 
ENDBRANCH  26  30
ENDBRANCH   9  24
TORSDOF 5
ENDMDL
MODEL 7
REMARK VINA RESULT:      -9.7      1.248      2.051
REMARK  5 active torsions:
REMARK  status: ('A' for Active; 'I' for Inactive)
REMARK    1  A    between atoms: C_2  and  C_3 
REMARK    2  A    between atoms: C_5  and  N_6 
REMARK       I    between atoms: N_6  and  C_7 
REMARK    3  A    between atoms: C_7  and  C_8 
REMARK    4  A    between atoms: C_16  and  C_17 
REMARK    5  A    between atoms: C_19  and  O_20 
ROOT
HETATM    1  C   UNL     1       6.366  26.396  54.380  1.00  0.00     0.047 A 
HETATM    2  C   UNL     1       6.883  27.313  55.316  1.00  0.00     0.008 A 
HETATM    3  C   UNL     1       7.649  26.755  56.355  1.00  0.00     0.068 A 
HETATM    4  C   UNL     1       8.173  27.598  57.326  1.00  0.00     0.032 A 
HETATM    5  C   UNL     1       7.977  28.981  57.290  1.00  0.00     0.002 A 
HETATM    6  C   UNL     1       7.248  29.545  56.254  1.00  0.00     0.001 A 
HETATM    7  C   UNL     1       6.707  28.721  55.269  1.00  0.00     0.015 A 
HETATM    8  N   UNL     1       7.902  25.438  56.452  1.00  0.00    -0.248 NA
HETATM    9  C   UNL     1       7.436  24.576  55.512  1.00  0.00     0.069 A 
HETATM   10  C   UNL     1       6.669  25.034  54.457  1.00  0.00     0.050 A 
ENDROOT
BRANCH   1  11
HETATM   11  C   UNL     1       5.442  26.775  53.284  1.00  0.00     0.257 C 
HETATM   12  N   UNL     1       6.006  26.721  52.024  1.00  0.00    -0.323 N 
HETATM   13  H   UNL     1       6.953  26.365  51.962  1.00  0.00     0.169 HD
HETATM   14  O   UNL     1       4.323  27.162  53.587  1.00  0.00    -0.267 OA
BRANCH  12  15
HETATM   15  C   UNL     1       5.438  27.167  50.812  1.00  0.00     0.035 A 
HETATM   16  C   UNL     1       5.486  28.489  50.363  1.00  0.00     0.044 A 
HETATM   17  C   UNL     1       4.944  28.842  49.115  1.00  0.00     0.011 A 
HETATM   18  C   UNL     1       4.323  27.865  48.329  1.00  0.00     0.015 A 
HETATM   19  C   UNL     1       4.260  26.547  48.778  1.00  0.00     0.003 A 
HETATM   20  C   UNL     1       4.821  26.200  50.008  1.00  0.00     0.029 A 
BRANCH  17  21
HETATM   21  C   UNL     1       5.062  30.259  48.657  1.00  0.00     0.155 C 
HETATM   22  C   UNL     1       4.407  30.664  47.363  1.00  0.00     0.096 C 
HETATM   23  O   UNL     1       5.688  31.076  49.330  1.00  0.00    -0.293 OA
ENDBRANCH  17  21
ENDBRANCH  12  15
ENDBRANCH   1  11
BRANCH   9  24
HETATM   24  C   UNL     1       7.797  23.150  55.705  1.00  0.00    -0.005 A 
HETATM   25  C   UNL     1       7.820  22.223  54.639  1.00  0.00     0.050 A 
HETATM   26  C   UNL     1       8.174  20.883  54.836  1.00  0.00     0.069 A 
HETATM   27  C   UNL     1       8.493  20.440  56.118  1.00  0.00     0.037 A 
HETATM   28  C   UNL     1       8.469  21.324  57.192  1.00  0.00     0.004 A 
HETATM   29  C   UNL     1       8.127  22.661  56.984  1.00  0.00     0.014 A 
BRANCH  26  30
HETATM   30  O   UNL     1       8.234  19.918  53.868  1.00  0.00    -0.356 OA
HETATM   31  C   UNL     1       8.454  20.355  52.532  1.00  0.00     0.210 C 
ENDBRANCH  26  30
ENDBRANCH   9  24
TORSDOF 5
ENDMDL
MODEL 8
REMARK VINA RESULT:      -9.6      4.073      8.555
REMARK  5 active torsions:
REMARK  status: ('A' for Active; 'I' for Inactive)
REMARK    1  A    between atoms: C_2  and  C_3 
REMARK    2  A    between atoms: C_5  and  N_6 
REMARK       I    between atoms: N_6  and  C_7 
REMARK    3  A    between atoms: C_7  and  C_8 
REMARK    4  A    between atoms: C_16  and  C_17 
REMARK    5  A    between atoms: C_19  and  O_20 
ROOT
HETATM    1  C   UNL     1       7.373  28.712  56.891  1.00  0.00     0.047 A 
HETATM    2  C   UNL     1       6.291  29.158  56.107  1.00  0.00     0.008 A 
HETATM    3  C   UNL     1       5.746  28.208  55.226  1.00  0.00     0.068 A 
HETATM    4  C   UNL     1       4.691  28.584  54.405  1.00  0.00     0.032 A 
HETATM    5  C   UNL     1       4.146  29.869  54.444  1.00  0.00     0.002 A 
HETATM    6  C   UNL     1       4.656  30.807  55.329  1.00  0.00     0.001 A 
HETATM    7  C   UNL     1       5.718  30.456  56.160  1.00  0.00     0.015 A 
HETATM    8  N   UNL     1       6.199  26.945  55.141  1.00  0.00    -0.248 NA
HETATM    9  C   UNL     1       7.209  26.519  55.942  1.00  0.00     0.069 A 
HETATM   10  C   UNL     1       7.810  27.386  56.835  1.00  0.00     0.050 A 
ENDROOT
BRANCH   1  11
HETATM   11  C   UNL     1       8.152  29.596  57.791  1.00  0.00     0.257 C 
HETATM   12  N   UNL     1       7.585  29.778  59.038  1.00  0.00    -0.323 N 
HETATM   13  H   UNL     1       6.747  29.244  59.241  1.00  0.00     0.169 HD
HETATM   14  O   UNL     1       9.156  30.129  57.342  1.00  0.00    -0.267 OA
BRANCH  12  15
HETATM   15  C   UNL     1       8.001  30.673  60.045  1.00  0.00     0.035 A 
HETATM   16  C   UNL     1       7.176  31.642  60.622  1.00  0.00     0.044 A 
HETATM   17  C   UNL     1       7.650  32.459  61.663  1.00  0.00     0.011 A 
HETATM   18  C   UNL     1       8.971  32.322  62.103  1.00  0.00     0.015 A 
HETATM   19  C   UNL     1       9.803  31.366  61.522  1.00  0.00     0.003 A 
HETATM   20  C   UNL     1       9.317  30.543  60.505  1.00  0.00     0.029 A 
BRANCH  17  21
HETATM   21  C   UNL     1       6.715  33.448  62.281  1.00  0.00     0.155 C 
HETATM   22  C   UNL     1       6.860  33.770  63.745  1.00  0.00     0.096 C 
HETATM   23  O   UNL     1       5.843  33.982  61.600  1.00  0.00    -0.293 OA
ENDBRANCH  17  21
ENDBRANCH  12  15
ENDBRANCH   1  11
BRANCH   9  24
HETATM   24  C   UNL     1       7.610  25.100  55.782  1.00  0.00    -0.005 A 
HETATM   25  C   UNL     1       7.636  24.456  54.525  1.00  0.00     0.050 A 
HETATM   26  C   UNL     1       8.029  23.119  54.390  1.00  0.00     0.069 A 
HETATM   27  C   UNL     1       8.386  22.392  55.524  1.00  0.00     0.037 A 
HETATM   28  C   UNL     1       8.361  22.992  56.779  1.00  0.00     0.004 A 
HETATM   29  C   UNL     1       7.980  24.330  56.902  1.00  0.00     0.014 A 
BRANCH  26  30
HETATM   30  O   UNL     1       8.094  22.417  53.218  1.00  0.00    -0.356 OA
HETATM   31  C   UNL     1       8.001  21.000  53.307  1.00  0.00     0.210 C 
ENDBRANCH  26  30
ENDBRANCH   9  24
TORSDOF 5
ENDMDL
MODEL 9
REMARK VINA RESULT:      -9.4      1.952      8.100
REMARK  5 active torsions:
REMARK  status: ('A' for Active; 'I' for Inactive)
REMARK    1  A    between atoms: C_2  and  C_3 
REMARK    2  A    between atoms: C_5  and  N_6 
REMARK       I    between atoms: N_6  and  C_7 
REMARK    3  A    between atoms: C_7  and  C_8 
REMARK    4  A    between atoms: C_16  and  C_17 
REMARK    5  A    between atoms: C_19  and  O_20 
ROOT
HETATM    1  C   UNL     1       5.768  27.034  52.818  1.00  0.00     0.047 A 
HETATM    2  C   UNL     1       5.355  28.179  53.528  1.00  0.00     0.008 A 
HETATM    3  C   UNL     1       4.459  29.024  52.851  1.00  0.00     0.068 A 
HETATM    4  C   UNL     1       4.027  30.183  53.481  1.00  0.00     0.032 A 
HETATM    5  C   UNL     1       4.442  30.523  54.771  1.00  0.00     0.002 A 
HETATM    6  C   UNL     1       5.303  29.682  55.460  1.00  0.00     0.001 A 
HETATM    7  C   UNL     1       5.756  28.515  54.848  1.00  0.00     0.015 A 
HETATM    8  N   UNL     1       3.996  28.761  51.616  1.00  0.00    -0.248 NA
HETATM    9  C   UNL     1       4.365  27.626  50.969  1.00  0.00     0.069 A 
HETATM   10  C   UNL     1       5.249  26.738  51.555  1.00  0.00     0.050 A 
ENDROOT
BRANCH   1  11
HETATM   11  C   UNL     1       6.795  26.087  53.315  1.00  0.00     0.257 C 
HETATM   12  N   UNL     1       6.279  24.968  53.940  1.00  0.00    -0.323 N 
HETATM   13  H   UNL     1       5.270  24.866  53.935  1.00  0.00     0.169 HD
HETATM   14  O   UNL     1       7.970  26.404  53.199  1.00  0.00    -0.267 OA
BRANCH  12  15
HETATM   15  C   UNL     1       6.992  23.976  54.645  1.00  0.00     0.035 A 
HETATM   16  C   UNL     1       7.344  22.734  54.110  1.00  0.00     0.044 A 
HETATM   17  C   UNL     1       8.106  21.821  54.860  1.00  0.00     0.011 A 
HETATM   18  C   UNL     1       8.490  22.148  56.165  1.00  0.00     0.015 A 
HETATM   19  C   UNL     1       8.130  23.379  56.708  1.00  0.00     0.003 A 
HETATM   20  C   UNL     1       7.392  24.290  55.950  1.00  0.00     0.029 A 
BRANCH  17  21
HETATM   21  C   UNL     1       8.498  20.526  54.227  1.00  0.00     0.155 C 
HETATM   22  C   UNL     1       8.435  20.400  52.727  1.00  0.00     0.096 C 
HETATM   23  O   UNL     1       8.862  19.582  54.924  1.00  0.00    -0.293 OA
ENDBRANCH  17  21
ENDBRANCH  12  15
ENDBRANCH   1  11
BRANCH   9  24
HETATM   24  C   UNL     1       3.774  27.425  49.624  1.00  0.00    -0.005 A 
HETATM   25  C   UNL     1       2.665  28.169  49.163  1.00  0.00     0.050 A 
HETATM   26  C   UNL     1       2.126  27.974  47.886  1.00  0.00     0.069 A 
HETATM   27  C   UNL     1       2.680  27.009  47.049  1.00  0.00     0.037 A 
HETATM   28  C   UNL     1       3.766  26.250  47.474  1.00  0.00     0.004 A 
HETATM   29  C   UNL     1       4.305  26.459  48.745  1.00  0.00     0.014 A 
BRANCH  26  30
HETATM   30  O   UNL     1       1.064  28.651  47.352  1.00  0.00    -0.356 OA
HETATM   31  C   UNL     1       0.215  27.929  46.468  1.00  0.00     0.210 C 
ENDBRANCH  26  30
ENDBRANCH   9  24
TORSDOF 5
ENDMDL
MODEL 10
REMARK VINA RESULT:      -9.4      2.742      8.479
REMARK  5 active torsions:
REMARK  status: ('A' for Active; 'I' for Inactive)
REMARK    1  A    between atoms: C_2  and  C_3 
REMARK    2  A    between atoms: C_5  and  N_6 
REMARK       I    between atoms: N_6  and  C_7 
REMARK    3  A    between atoms: C_7  and  C_8 
REMARK    4  A    between atoms: C_16  and  C_17 
REMARK    5  A    between atoms: C_19  and  O_20 
ROOT
HETATM    1  C   UNL     1       7.179  27.309  54.498  1.00  0.00     0.047 A 
HETATM    2  C   UNL     1       7.306  25.938  54.797  1.00  0.00     0.008 A 
HETATM    3  C   UNL     1       6.766  25.056  53.845  1.00  0.00     0.068 A 
HETATM    4  C   UNL     1       6.835  23.690  54.084  1.00  0.00     0.032 A 
HETATM    5  C   UNL     1       7.441  23.169  55.230  1.00  0.00     0.002 A 
HETATM    6  C   UNL     1       8.004  24.029  56.161  1.00  0.00     0.001 A 
HETATM    7  C   UNL     1       7.943  25.404  55.948  1.00  0.00     0.015 A 
HETATM    8  N   UNL     1       6.183  25.474  52.708  1.00  0.00    -0.248 NA
HETATM    9  C   UNL     1       6.116  26.798  52.413  1.00  0.00     0.069 A 
HETATM   10  C   UNL     1       6.616  27.739  53.294  1.00  0.00     0.050 A 
ENDROOT
BRANCH   1  11
HETATM   11  C   UNL     1       7.581  28.392  55.428  1.00  0.00     0.257 C 
HETATM   12  N   UNL     1       6.648  28.672  56.408  1.00  0.00    -0.323 N 
HETATM   13  H   UNL     1       5.828  28.077  56.442  1.00  0.00     0.169 HD
HETATM   14  O   UNL     1       8.634  28.972  55.210  1.00  0.00    -0.267 OA
BRANCH  12  15
HETATM   15  C   UNL     1       6.671  29.738  57.332  1.00  0.00     0.035 A 
HETATM   16  C   UNL     1       7.809  30.140  58.036  1.00  0.00     0.044 A 
HETATM   17  C   UNL     1       7.763  31.250  58.898  1.00  0.00     0.011 A 
HETATM   18  C   UNL     1       6.558  31.939  59.074  1.00  0.00     0.015 A 
HETATM   19  C   UNL     1       5.417  31.534  58.384  1.00  0.00     0.003 A 
HETATM   20  C   UNL     1       5.476  30.445  57.513  1.00  0.00     0.029 A 
BRANCH  17  21
HETATM   21  C   UNL     1       9.017  31.670  59.592  1.00  0.00     0.155 C 
HETATM   22  C   UNL     1       9.269  31.186  60.996  1.00  0.00     0.096 C 
HETATM   23  O   UNL     1       9.824  32.401  59.023  1.00  0.00    -0.293 OA
ENDBRANCH  17  21
ENDBRANCH  12  15
ENDBRANCH   1  11
BRANCH   9  24
HETATM   24  C   UNL     1       5.476  27.143  51.121  1.00  0.00    -0.005 A 
HETATM   25  C   UNL     1       4.914  26.168  50.267  1.00  0.00     0.050 A 
HETATM   26  C   UNL     1       4.303  26.513  49.056  1.00  0.00     0.069 A 
HETATM   27  C   UNL     1       4.262  27.850  48.666  1.00  0.00     0.037 A 
HETATM   28  C   UNL     1       4.816  28.835  49.477  1.00  0.00     0.004 A 
HETATM   29  C   UNL     1       5.413  28.483  50.689  1.00  0.00     0.014 A 
BRANCH  26  30
HETATM   30  O   UNL     1       3.726  25.643  48.173  1.00  0.00    -0.356 OA
HETATM   31  C   UNL     1       2.484  26.033  47.597  1.00  0.00     0.210 C 
ENDBRANCH  26  30
ENDBRANCH   9  24
TORSDOF 5
ENDMDL
