MODEL 1
REMARK VINA RESULT:     -11.4      0.000      0.000
REMARK  8 active torsions:
REMARK  status: ('A' for Active; 'I' for Inactive)
REMARK    1  A    between atoms: C_4  and  C_5 
REMARK    2  A    between atoms: C_5  and  C_6 
REMARK    3  A    between atoms: C_6  and  C_7 
REMARK    4  A    between atoms: C_7  and  N_8 
REMARK       I    between atoms: N_8  and  C_9 
REMARK    5  A    between atoms: C_9  and  C_10 
REMARK    6  A    between atoms: C_11  and  N_12 
REMARK    7  A    between atoms: N_13  and  N_14 
REMARK    8  A    between atoms: C_15  and  C_16 
ROOT
HETATM    1  C   UNL     1       5.421  26.435  54.102  1.00  0.00     0.104 C 
HETATM    2  C   UNL     1       5.338  26.997  55.371  1.00  0.00     0.123 C 
HETATM    3  N   UNL     1       6.511  26.621  56.027  1.00  0.00    -0.202 N 
HETATM    4  C   UNL     1       6.871  25.388  55.517  1.00  0.00     0.183 A 
HETATM    5  C   UNL     1       6.262  25.293  54.267  1.00  0.00     0.124 A 
HETATM    6  N   UNL     1       6.554  24.266  53.429  1.00  0.00    -0.242 NA
HETATM    7  C   UNL     1       7.395  23.346  53.933  1.00  0.00     0.086 A 
HETATM    8  C   UNL     1       7.979  23.460  55.223  1.00  0.00     0.088 A 
HETATM    9  N   UNL     1       7.756  24.506  56.034  1.00  0.00    -0.225 NA
HETATM   10  C   UNL     1       7.696  22.233  53.158  1.00  0.00     0.034 A 
HETATM   11  C   UNL     1       8.539  21.223  53.623  1.00  0.00     0.002 A 
HETATM   12  C   UNL     1       9.100  21.329  54.889  1.00  0.00     0.002 A 
HETATM   13  C   UNL     1       8.818  22.448  55.672  1.00  0.00     0.034 A 
ENDROOT
BRANCH   1  14
HETATM   14  C   UNL     1       4.846  26.979  52.874  1.00  0.00     0.257 C 
HETATM   15  N   UNL     1       3.560  27.479  53.044  1.00  0.00    -0.357 N 
HETATM   16  H   UNL     1       3.188  27.298  53.971  1.00  0.00     0.162 HD
HETATM   17  O   UNL     1       5.483  27.130  51.839  1.00  0.00    -0.267 OA
BRANCH  15  18
HETATM   18  C   UNL     1       3.224  28.811  52.586  1.00  0.00     0.123 C 
BRANCH  18  19
HETATM   19  C   UNL     1       2.382  28.938  51.325  1.00  0.00     0.024 C 
BRANCH  19  20
HETATM   20  C   UNL     1       3.217  29.071  50.048  1.00  0.00     0.040 C 
BRANCH  20  21
HETATM   21  C   UNL     1       3.023  27.947  49.052  1.00  0.00    -0.058 A 
HETATM   22  C   UNL     1       4.046  27.048  48.716  1.00  0.00     0.007 A 
HETATM   23  C   UNL     1       3.833  26.046  47.767  1.00  0.00     0.001 A 
HETATM   24  C   UNL     1       2.587  25.909  47.163  1.00  0.00     0.000 A 
HETATM   25  C   UNL     1       1.549  26.769  47.513  1.00  0.00     0.001 A 
HETATM   26  C   UNL     1       1.765  27.778  48.455  1.00  0.00     0.007 A 
ENDBRANCH  20  21
ENDBRANCH  19  20
ENDBRANCH  18  19
ENDBRANCH  15  18
ENDBRANCH   1  14
BRANCH   2  27
HETATM   27  N   UNL     1       4.466  27.909  55.910  1.00  0.00    -0.286 NA
HETATM   28  H   UNL     1       4.754  28.891  55.846  1.00  0.00     0.125 HD
HETATM   29  H   UNL     1       3.500  27.850  55.564  1.00  0.00     0.125 HD
ENDBRANCH   2  27
BRANCH   3  30
HETATM   30  N   UNL     1       7.256  27.381  56.903  1.00  0.00    -0.176 NA
HETATM   31  C   UNL     1       7.991  28.247  56.280  1.00  0.00     0.153 C 
BRANCH  31  32
HETATM   32  C   UNL     1       8.940  29.093  56.963  1.00  0.00     0.011 A 
HETATM   33  C   UNL     1       8.621  30.064  57.966  1.00  0.00     0.004 A 
HETATM   34  C   UNL     1       9.794  30.754  58.265  1.00  0.00     0.043 A 
HETATM   35  C   UNL     1       7.433  30.431  58.636  1.00  0.00     0.014 A 
HETATM   36  C   UNL     1       9.834  31.810  59.185  1.00  0.00     0.030 A 
HETATM   37  N   UNL     1      10.795  30.200  57.499  1.00  0.00    -0.364 N 
HETATM   38  C   UNL     1       8.642  32.155  59.832  1.00  0.00     0.002 A 
HETATM   39  C   UNL     1       7.457  31.473  59.568  1.00  0.00     0.001 A 
HETATM   40  H   UNL     1      11.755  30.514  57.497  1.00  0.00     0.165 HD
HETATM   41  C   UNL     1      10.295  29.186  56.724  1.00  0.00     0.102 A 
ENDBRANCH  31  32
ENDBRANCH   3  30
TORSDOF 8
ENDMDL
MODEL 2
REMARK VINA RESULT:     -11.1      2.027      9.072
REMARK  8 active torsions:
REMARK  status: ('A' for Active; 'I' for Inactive)
REMARK    1  A    between atoms: C_4  and  C_5 
REMARK    2  A    between atoms: C_5  and  C_6 
REMARK    3  A    between atoms: C_6  and  C_7 
REMARK    4  A    between atoms: C_7  and  N_8 
REMARK       I    between atoms: N_8  and  C_9 
REMARK    5  A    between atoms: C_9  and  C_10 
REMARK    6  A    between atoms: C_11  and  N_12 
REMARK    7  A    between atoms: N_13  and  N_14 
REMARK    8  A    between atoms: C_15  and  C_16 
ROOT
HETATM    1  C   UNL     1       5.471  28.285  55.211  1.00  0.00     0.104 C 
HETATM    2  C   UNL     1       5.027  27.092  55.770  1.00  0.00     0.123 C 
HETATM    3  N   UNL     1       5.290  26.107  54.817  1.00  0.00    -0.202 N 
HETATM    4  C   UNL     1       5.181  26.716  53.581  1.00  0.00     0.183 A 
HETATM    5  C   UNL     1       5.379  28.078  53.801  1.00  0.00     0.124 A 
HETATM    6  N   UNL     1       5.502  28.938  52.758  1.00  0.00    -0.242 NA
HETATM    7  C   UNL     1       5.343  28.382  51.545  1.00  0.00     0.086 A 
HETATM    8  C   UNL     1       5.117  26.993  51.356  1.00  0.00     0.088 A 
HETATM    9  N   UNL     1       5.064  26.119  52.373  1.00  0.00    -0.225 NA
HETATM   10  C   UNL     1       5.396  29.209  50.429  1.00  0.00     0.034 A 
HETATM   11  C   UNL     1       5.214  28.710  49.138  1.00  0.00     0.002 A 
HETATM   12  C   UNL     1       4.980  27.354  48.956  1.00  0.00     0.002 A 
HETATM   13  C   UNL     1       4.939  26.510  50.066  1.00  0.00     0.034 A 
ENDROOT
BRANCH   1  14
HETATM   14  C   UNL     1       6.003  29.437  55.933  1.00  0.00     0.257 C 
HETATM   15  N   UNL     1       7.005  29.102  56.838  1.00  0.00    -0.357 N 
HETATM   16  H   UNL     1       7.139  28.100  56.922  1.00  0.00     0.162 HD
HETATM   17  O   UNL     1       5.718  30.597  55.662  1.00  0.00    -0.267 OA
BRANCH  15  18
HETATM   18  C   UNL     1       8.269  29.809  56.827  1.00  0.00     0.123 C 
BRANCH  18  19
HETATM   19  C   UNL     1       9.102  29.799  58.101  1.00  0.00     0.024 C 
BRANCH  19  20
HETATM   20  C   UNL     1       9.525  31.197  58.560  1.00  0.00     0.040 C 
BRANCH  20  21
HETATM   21  C   UNL     1       8.844  31.674  59.826  1.00  0.00    -0.058 A 
HETATM   22  C   UNL     1       9.523  31.812  61.046  1.00  0.00     0.007 A 
HETATM   23  C   UNL     1       8.847  32.224  62.196  1.00  0.00     0.001 A 
HETATM   24  C   UNL     1       7.491  32.532  62.138  1.00  0.00     0.000 A 
HETATM   25  C   UNL     1       6.810  32.438  60.926  1.00  0.00     0.001 A 
HETATM   26  C   UNL     1       7.484  32.016  59.777  1.00  0.00     0.007 A 
ENDBRANCH  20  21
ENDBRANCH  19  20
ENDBRANCH  18  19
ENDBRANCH  15  18
ENDBRANCH   1  14
BRANCH   2  27
HETATM   27  N   UNL     1       4.609  26.781  57.040  1.00  0.00    -0.286 NA
HETATM   28  H   UNL     1       4.842  27.466  57.766  1.00  0.00     0.125 HD
HETATM   29  H   UNL     1       3.608  26.565  57.132  1.00  0.00     0.125 HD
ENDBRANCH   2  27
BRANCH   3  30
HETATM   30  N   UNL     1       5.718  24.819  55.048  1.00  0.00    -0.176 NA
HETATM   31  C   UNL     1       6.934  24.791  55.495  1.00  0.00     0.153 C 
BRANCH  31  32
HETATM   32  C   UNL     1       7.650  23.557  55.717  1.00  0.00     0.011 A 
HETATM   33  C   UNL     1       7.893  22.545  54.734  1.00  0.00     0.004 A 
HETATM   34  C   UNL     1       8.492  21.468  55.384  1.00  0.00     0.043 A 
HETATM   35  C   UNL     1       7.639  22.440  53.348  1.00  0.00     0.014 A 
HETATM   36  C   UNL     1       8.829  20.280  54.723  1.00  0.00     0.030 A 
HETATM   37  N   UNL     1       8.640  21.826  56.705  1.00  0.00    -0.364 N 
HETATM   38  C   UNL     1       8.565  20.202  53.351  1.00  0.00     0.002 A 
HETATM   39  C   UNL     1       7.984  21.268  52.669  1.00  0.00     0.001 A 
HETATM   40  H   UNL     1       9.034  21.230  57.420  1.00  0.00     0.165 HD
HETATM   41  C   UNL     1       8.153  23.090  56.913  1.00  0.00     0.102 A 
ENDBRANCH  31  32
ENDBRANCH   3  30
TORSDOF 8
ENDMDL
MODEL 3
REMARK VINA RESULT:     -10.9      4.091      9.644
REMARK  8 active torsions:
REMARK  status: ('A' for Active; 'I' for Inactive)
REMARK    1  A    between atoms: C_4  and  C_5 
REMARK    2  A    between atoms: C_5  and  C_6 
REMARK    3  A    between atoms: C_6  and  C_7 
REMARK    4  A    between atoms: C_7  and  N_8 
REMARK       I    between atoms: N_8  and  C_9 
REMARK    5  A    between atoms: C_9  and  C_10 
REMARK    6  A    between atoms: C_11  and  N_12 
REMARK    7  A    between atoms: N_13  and  N_14 
REMARK    8  A    between atoms: C_15  and  C_16 
ROOT
HETATM    1  C   UNL     1       5.860  30.667  56.570  1.00  0.00     0.104 C 
HETATM    2  C   UNL     1       6.363  29.512  55.982  1.00  0.00     0.123 C 
HETATM    3  N   UNL     1       6.908  28.763  57.025  1.00  0.00    -0.202 N 
HETATM    4  C   UNL     1       7.364  29.668  57.965  1.00  0.00     0.183 A 
HETATM    5  C   UNL     1       6.650  30.846  57.747  1.00  0.00     0.124 A 
HETATM    6  N   UNL     1       6.743  31.885  58.615  1.00  0.00    -0.242 NA
HETATM    7  C   UNL     1       7.614  31.703  59.623  1.00  0.00     0.086 A 
HETATM    8  C   UNL     1       8.345  30.499  59.803  1.00  0.00     0.088 A 
HETATM    9  N   UNL     1       8.210  29.436  58.994  1.00  0.00    -0.225 NA
HETATM   10  C   UNL     1       7.809  32.745  60.521  1.00  0.00     0.034 A 
HETATM   11  C   UNL     1       8.715  32.642  61.578  1.00  0.00     0.002 A 
HETATM   12  C   UNL     1       9.439  31.469  61.745  1.00  0.00     0.002 A 
HETATM   13  C   UNL     1       9.242  30.409  60.860  1.00  0.00     0.034 A 
ENDROOT
BRANCH   1  14
HETATM   14  C   UNL     1       4.710  31.442  56.115  1.00  0.00     0.257 C 
HETATM   15  N   UNL     1       3.873  31.844  57.151  1.00  0.00    -0.357 N 
HETATM   16  H   UNL     1       4.143  31.452  58.047  1.00  0.00     0.162 HD
HETATM   17  O   UNL     1       4.575  31.839  54.964  1.00  0.00    -0.267 OA
BRANCH  15  18
HETATM   18  C   UNL     1       3.472  33.230  57.274  1.00  0.00     0.123 C 
BRANCH  18  19
HETATM   19  C   UNL     1       3.567  33.879  58.647  1.00  0.00     0.024 C 
BRANCH  19  20
HETATM   20  C   UNL     1       3.419  32.883  59.800  1.00  0.00     0.040 C 
BRANCH  20  21
HETATM   21  C   UNL     1       4.204  33.243  61.044  1.00  0.00    -0.058 A 
HETATM   22  C   UNL     1       4.485  32.315  62.058  1.00  0.00     0.007 A 
HETATM   23  C   UNL     1       5.184  32.699  63.205  1.00  0.00     0.001 A 
HETATM   24  C   UNL     1       5.639  34.008  63.340  1.00  0.00     0.000 A 
HETATM   25  C   UNL     1       5.403  34.932  62.325  1.00  0.00     0.001 A 
HETATM   26  C   UNL     1       4.694  34.550  61.183  1.00  0.00     0.007 A 
ENDBRANCH  20  21
ENDBRANCH  19  20
ENDBRANCH  18  19
ENDBRANCH  15  18
ENDBRANCH   1  14
BRANCH   2  27
HETATM   27  N   UNL     1       6.229  29.002  54.715  1.00  0.00    -0.286 NA
HETATM   28  H   UNL     1       7.090  28.651  54.283  1.00  0.00     0.125 HD
HETATM   29  H   UNL     1       5.514  28.271  54.610  1.00  0.00     0.125 HD
ENDBRANCH   2  27
BRANCH   3  30
HETATM   30  N   UNL     1       6.874  27.394  57.174  1.00  0.00    -0.176 NA
HETATM   31  C   UNL     1       7.962  26.838  56.744  1.00  0.00     0.153 C 
BRANCH  31  32
HETATM   32  C   UNL     1       8.134  25.406  56.693  1.00  0.00     0.011 A 
HETATM   33  C   UNL     1       7.940  24.583  55.537  1.00  0.00     0.004 A 
HETATM   34  C   UNL     1       8.072  23.256  55.944  1.00  0.00     0.043 A 
HETATM   35  C   UNL     1       7.645  24.847  54.181  1.00  0.00     0.014 A 
HETATM   36  C   UNL     1       7.901  22.178  55.066  1.00  0.00     0.030 A 
HETATM   37  N   UNL     1       8.371  23.274  57.288  1.00  0.00    -0.364 N 
HETATM   38  C   UNL     1       7.607  22.467  53.729  1.00  0.00     0.002 A 
HETATM   39  C   UNL     1       7.486  23.783  53.288  1.00  0.00     0.001 A 
HETATM   40  H   UNL     1       8.506  22.449  57.855  1.00  0.00     0.165 HD
HETATM   41  C   UNL     1       8.428  24.564  57.746  1.00  0.00     0.102 A 
ENDBRANCH  31  32
ENDBRANCH   3  30
TORSDOF 8
ENDMDL
MODEL 4
REMARK VINA RESULT:     -10.9      2.005      9.241
REMARK  8 active torsions:
REMARK  status: ('A' for Active; 'I' for Inactive)
REMARK    1  A    between atoms: C_4  and  C_5 
REMARK    2  A    between atoms: C_5  and  C_6 
REMARK    3  A    between atoms: C_6  and  C_7 
REMARK    4  A    between atoms: C_7  and  N_8 
REMARK       I    between atoms: N_8  and  C_9 
REMARK    5  A    between atoms: C_9  and  C_10 
REMARK    6  A    between atoms: C_11  and  N_12 
REMARK    7  A    between atoms: N_13  and  N_14 
REMARK    8  A    between atoms: C_15  and  C_16 
ROOT
HETATM    1  C   UNL     1       7.699  26.648  55.932  1.00  0.00     0.104 C 
HETATM    2  C   UNL     1       7.226  27.432  54.885  1.00  0.00     0.123 C 
HETATM    3  N   UNL     1       6.513  26.565  54.056  1.00  0.00    -0.202 N 
HETATM    4  C   UNL     1       7.121  25.328  54.163  1.00  0.00     0.183 A 
HETATM    5  C   UNL     1       7.800  25.334  55.381  1.00  0.00     0.124 A 
HETATM    6  N   UNL     1       8.366  24.200  55.866  1.00  0.00    -0.242 NA
HETATM    7  C   UNL     1       8.278  23.132  55.054  1.00  0.00     0.086 A 
HETATM    8  C   UNL     1       7.600  23.166  53.806  1.00  0.00     0.088 A 
HETATM    9  N   UNL     1       6.974  24.260  53.347  1.00  0.00    -0.225 NA
HETATM   10  C   UNL     1       8.885  21.948  55.454  1.00  0.00     0.034 A 
HETATM   11  C   UNL     1       8.859  20.805  54.654  1.00  0.00     0.002 A 
HETATM   12  C   UNL     1       8.207  20.842  53.429  1.00  0.00     0.002 A 
HETATM   13  C   UNL     1       7.580  22.020  53.022  1.00  0.00     0.034 A 
ENDROOT
BRANCH   1  14
HETATM   14  C   UNL     1       7.931  27.085  57.306  1.00  0.00     0.257 C 
HETATM   15  N   UNL     1       8.328  28.414  57.400  1.00  0.00    -0.357 N 
HETATM   16  H   UNL     1       8.487  28.841  56.494  1.00  0.00     0.162 HD
HETATM   17  O   UNL     1       7.651  26.407  58.287  1.00  0.00    -0.267 OA
BRANCH  15  18
HETATM   18  C   UNL     1       7.649  29.319  58.304  1.00  0.00     0.123 C 
BRANCH  18  19
HETATM   19  C   UNL     1       8.406  30.551  58.780  1.00  0.00     0.024 C 
BRANCH  19  20
HETATM   20  C   UNL     1       8.845  30.465  60.244  1.00  0.00     0.040 C 
BRANCH  20  21
HETATM   21  C   UNL     1       8.177  31.470  61.159  1.00  0.00    -0.058 A 
HETATM   22  C   UNL     1       7.132  32.305  60.734  1.00  0.00     0.007 A 
HETATM   23  C   UNL     1       6.568  33.241  61.602  1.00  0.00     0.001 A 
HETATM   24  C   UNL     1       7.017  33.336  62.917  1.00  0.00     0.000 A 
HETATM   25  C   UNL     1       8.027  32.488  63.366  1.00  0.00     0.001 A 
HETATM   26  C   UNL     1       8.599  31.559  62.494  1.00  0.00     0.007 A 
ENDBRANCH  20  21
ENDBRANCH  19  20
ENDBRANCH  18  19
ENDBRANCH  15  18
ENDBRANCH   1  14
BRANCH   2  27
HETATM   27  N   UNL     1       7.206  28.792  54.701  1.00  0.00    -0.286 NA
HETATM   28  H   UNL     1       7.977  29.177  54.146  1.00  0.00     0.125 HD
HETATM   29  H   UNL     1       6.332  29.169  54.314  1.00  0.00     0.125 HD
ENDBRANCH   2  27
BRANCH   3  30
HETATM   30  N   UNL     1       5.347  26.834  53.374  1.00  0.00    -0.176 NA
HETATM   31  C   UNL     1       5.577  27.443  52.254  1.00  0.00     0.153 C 
BRANCH  31  32
HETATM   32  C   UNL     1       4.516  27.928  51.403  1.00  0.00     0.011 A 
HETATM   33  C   UNL     1       4.249  27.483  50.068  1.00  0.00     0.004 A 
HETATM   34  C   UNL     1       3.238  28.293  49.554  1.00  0.00     0.043 A 
HETATM   35  C   UNL     1       4.789  26.472  49.242  1.00  0.00     0.014 A 
HETATM   36  C   UNL     1       2.755  28.158  48.247  1.00  0.00     0.030 A 
HETATM   37  N   UNL     1       2.880  29.173  50.551  1.00  0.00    -0.364 N 
HETATM   38  C   UNL     1       3.309  27.151  47.448  1.00  0.00     0.002 A 
HETATM   39  C   UNL     1       4.309  26.314  47.939  1.00  0.00     0.001 A 
HETATM   40  H   UNL     1       2.177  29.893  50.455  1.00  0.00     0.165 HD
HETATM   41  C   UNL     1       3.632  28.950  51.675  1.00  0.00     0.102 A 
ENDBRANCH  31  32
ENDBRANCH   3  30
TORSDOF 8
ENDMDL
MODEL 5
REMARK VINA RESULT:     -10.9      2.305      7.008
REMARK  8 active torsions:
REMARK  status: ('A' for Active; 'I' for Inactive)
REMARK    1  A    between atoms: C_4  and  C_5 
REMARK    2  A    between atoms: C_5  and  C_6 
REMARK    3  A    between atoms: C_6  and  C_7 
REMARK    4  A    between atoms: C_7  and  N_8 
REMARK       I    between atoms: N_8  and  C_9 
REMARK    5  A    between atoms: C_9  and  C_10 
REMARK    6  A    between atoms: C_11  and  N_12 
REMARK    7  A    between atoms: N_13  and  N_14 
REMARK    8  A    between atoms: C_15  and  C_16 
ROOT
HETATM    1  C   UNL     1       6.494  30.100  56.504  1.00  0.00     0.104 C 
HETATM    2  C   UNL     1       7.488  29.268  55.999  1.00  0.00     0.123 C 
HETATM    3  N   UNL     1       8.124  28.719  57.113  1.00  0.00    -0.202 N 
HETATM    4  C   UNL     1       8.049  29.667  58.116  1.00  0.00     0.183 A 
HETATM    5  C   UNL     1       6.973  30.491  57.792  1.00  0.00     0.124 A 
HETATM    6  N   UNL     1       6.526  31.427  58.668  1.00  0.00    -0.242 NA
HETATM    7  C   UNL     1       7.243  31.529  59.800  1.00  0.00     0.086 A 
HETATM    8  C   UNL     1       8.352  30.690  60.090  1.00  0.00     0.088 A 
HETATM    9  N   UNL     1       8.761  29.712  59.266  1.00  0.00    -0.225 NA
HETATM   10  C   UNL     1       6.884  32.505  60.722  1.00  0.00     0.034 A 
HETATM   11  C   UNL     1       7.595  32.690  61.908  1.00  0.00     0.002 A 
HETATM   12  C   UNL     1       8.687  31.877  62.184  1.00  0.00     0.002 A 
HETATM   13  C   UNL     1       9.049  30.883  61.275  1.00  0.00     0.034 A 
ENDROOT
BRANCH   1  14
HETATM   14  C   UNL     1       5.212  30.401  55.875  1.00  0.00     0.257 C 
HETATM   15  N   UNL     1       5.202  30.157  54.505  1.00  0.00    -0.357 N 
HETATM   16  H   UNL     1       6.115  29.901  54.146  1.00  0.00     0.162 HD
HETATM   17  O   UNL     1       4.200  30.683  56.504  1.00  0.00    -0.267 OA
BRANCH  15  18
HETATM   18  C   UNL     1       4.152  29.356  53.911  1.00  0.00     0.123 C 
BRANCH  18  19
HETATM   19  C   UNL     1       4.553  28.294  52.897  1.00  0.00     0.024 C 
BRANCH  19  20
HETATM   20  C   UNL     1       5.504  28.817  51.817  1.00  0.00     0.040 C 
BRANCH  20  21
HETATM   21  C   UNL     1       5.276  28.226  50.441  1.00  0.00    -0.058 A 
HETATM   22  C   UNL     1       5.588  28.913  49.259  1.00  0.00     0.007 A 
HETATM   23  C   UNL     1       5.330  28.343  48.011  1.00  0.00     0.001 A 
HETATM   24  C   UNL     1       4.784  27.065  47.926  1.00  0.00     0.000 A 
HETATM   25  C   UNL     1       4.503  26.353  49.090  1.00  0.00     0.001 A 
HETATM   26  C   UNL     1       4.752  26.928  50.338  1.00  0.00     0.007 A 
ENDBRANCH  20  21
ENDBRANCH  19  20
ENDBRANCH  18  19
ENDBRANCH  15  18
ENDBRANCH   1  14
BRANCH   2  27
HETATM   27  N   UNL     1       7.748  28.829  54.725  1.00  0.00    -0.286 NA
HETATM   28  H   UNL     1       8.082  29.542  54.068  1.00  0.00     0.125 HD
HETATM   29  H   UNL     1       8.389  28.028  54.660  1.00  0.00     0.125 HD
ENDBRANCH   2  27
BRANCH   3  30
HETATM   30  N   UNL     1       8.605  27.436  57.250  1.00  0.00    -0.176 NA
HETATM   31  C   UNL     1       7.878  26.581  56.603  1.00  0.00     0.153 C 
BRANCH  31  32
HETATM   32  C   UNL     1       8.110  25.157  56.671  1.00  0.00     0.011 A 
HETATM   33  C   UNL     1       7.979  24.238  55.580  1.00  0.00     0.004 A 
HETATM   34  C   UNL     1       8.155  22.955  56.094  1.00  0.00     0.043 A 
HETATM   35  C   UNL     1       7.706  24.381  54.202  1.00  0.00     0.014 A 
HETATM   36  C   UNL     1       8.051  21.804  55.302  1.00  0.00     0.030 A 
HETATM   37  N   UNL     1       8.420  23.092  57.439  1.00  0.00    -0.364 N 
HETATM   38  C   UNL     1       7.778  21.974  53.940  1.00  0.00     0.002 A 
HETATM   39  C   UNL     1       7.613  23.244  53.393  1.00  0.00     0.001 A 
HETATM   40  H   UNL     1       8.575  22.321  58.073  1.00  0.00     0.165 HD
HETATM   41  C   UNL     1       8.413  24.416  57.793  1.00  0.00     0.102 A 
ENDBRANCH  31  32
ENDBRANCH   3  30
TORSDOF 8
ENDMDL
MODEL 6
REMARK VINA RESULT:     -10.9      3.488      9.411
REMARK  8 active torsions:
REMARK  status: ('A' for Active; 'I' for Inactive)
REMARK    1  A    between atoms: C_4  and  C_5 
REMARK    2  A    between atoms: C_5  and  C_6 
REMARK    3  A    between atoms: C_6  and  C_7 
REMARK    4  A    between atoms: C_7  and  N_8 
REMARK       I    between atoms: N_8  and  C_9 
REMARK    5  A    between atoms: C_9  and  C_10 
REMARK    6  A    between atoms: C_11  and  N_12 
REMARK    7  A    between atoms: N_13  and  N_14 
REMARK    8  A    between atoms: C_15  and  C_16 
ROOT
HETATM    1  C   UNL     1       4.882  29.838  56.246  1.00  0.00     0.104 C 
HETATM    2  C   UNL     1       4.804  29.314  54.960  1.00  0.00     0.123 C 
HETATM    3  N   UNL     1       5.956  28.544  54.795  1.00  0.00    -0.202 N 
HETATM    4  C   UNL     1       6.942  29.142  55.557  1.00  0.00     0.183 A 
HETATM    5  C   UNL     1       6.281  29.890  56.529  1.00  0.00     0.124 A 
HETATM    6  N   UNL     1       6.969  30.469  57.546  1.00  0.00    -0.242 NA
HETATM    7  C   UNL     1       8.303  30.321  57.483  1.00  0.00     0.086 A 
HETATM    8  C   UNL     1       8.949  29.572  56.463  1.00  0.00     0.088 A 
HETATM    9  N   UNL     1       8.277  28.934  55.492  1.00  0.00    -0.225 NA
HETATM   10  C   UNL     1       9.082  30.935  58.456  1.00  0.00     0.034 A 
HETATM   11  C   UNL     1      10.475  30.849  58.442  1.00  0.00     0.002 A 
HETATM   12  C   UNL     1      11.105  30.127  57.438  1.00  0.00     0.002 A 
HETATM   13  C   UNL     1      10.335  29.492  56.463  1.00  0.00     0.034 A 
ENDROOT
BRANCH   1  14
HETATM   14  C   UNL     1       3.759  30.155  57.123  1.00  0.00     0.257 C 
HETATM   15  N   UNL     1       4.129  30.313  58.455  1.00  0.00    -0.357 N 
HETATM   16  H   UNL     1       5.105  30.088  58.619  1.00  0.00     0.162 HD
HETATM   17  O   UNL     1       2.634  30.415  56.715  1.00  0.00    -0.267 OA
BRANCH  15  18
HETATM   18  C   UNL     1       3.721  31.490  59.194  1.00  0.00     0.123 C 
BRANCH  18  19
HETATM   19  C   UNL     1       4.781  32.536  59.509  1.00  0.00     0.024 C 
BRANCH  19  20
HETATM   20  C   UNL     1       4.674  33.099  60.928  1.00  0.00     0.040 C 
BRANCH  20  21
HETATM   21  C   UNL     1       5.905  32.882  61.783  1.00  0.00    -0.058 A 
HETATM   22  C   UNL     1       5.941  33.187  63.152  1.00  0.00     0.007 A 
HETATM   23  C   UNL     1       7.108  33.002  63.895  1.00  0.00     0.001 A 
HETATM   24  C   UNL     1       8.248  32.482  63.288  1.00  0.00     0.000 A 
HETATM   25  C   UNL     1       8.219  32.138  61.939  1.00  0.00     0.001 A 
HETATM   26  C   UNL     1       7.054  32.333  61.193  1.00  0.00     0.007 A 
ENDBRANCH  20  21
ENDBRANCH  19  20
ENDBRANCH  18  19
ENDBRANCH  15  18
ENDBRANCH   1  14
BRANCH   2  27
HETATM   27  N   UNL     1       3.784  29.301  54.042  1.00  0.00    -0.286 NA
HETATM   28  H   UNL     1       2.919  28.840  54.344  1.00  0.00     0.125 HD
HETATM   29  H   UNL     1       3.525  30.219  53.661  1.00  0.00     0.125 HD
ENDBRANCH   2  27
BRANCH   3  30
HETATM   30  N   UNL     1       6.066  27.344  54.129  1.00  0.00    -0.176 NA
HETATM   31  C   UNL     1       6.314  26.366  54.942  1.00  0.00     0.153 C 
BRANCH  31  32
HETATM   32  C   UNL     1       6.577  25.023  54.483  1.00  0.00     0.011 A 
HETATM   33  C   UNL     1       7.229  23.996  55.238  1.00  0.00     0.004 A 
HETATM   34  C   UNL     1       7.407  22.904  54.390  1.00  0.00     0.043 A 
HETATM   35  C   UNL     1       7.702  23.902  56.566  1.00  0.00     0.014 A 
HETATM   36  C   UNL     1       8.055  21.731  54.796  1.00  0.00     0.030 A 
HETATM   37  N   UNL     1       6.851  23.242  53.176  1.00  0.00    -0.364 N 
HETATM   38  C   UNL     1       8.516  21.666  56.116  1.00  0.00     0.002 A 
HETATM   39  C   UNL     1       8.338  22.733  56.993  1.00  0.00     0.001 A 
HETATM   40  H   UNL     1       6.849  22.644  52.362  1.00  0.00     0.165 HD
HETATM   41  C   UNL     1       6.333  24.510  53.226  1.00  0.00     0.102 A 
ENDBRANCH  31  32
ENDBRANCH   3  30
TORSDOF 8
ENDMDL
MODEL 7
REMARK VINA RESULT:     -10.8      3.955      8.079
REMARK  8 active torsions:
REMARK  status: ('A' for Active; 'I' for Inactive)
REMARK    1  A    between atoms: C_4  and  C_5 
REMARK    2  A    between atoms: C_5  and  C_6 
REMARK    3  A    between atoms: C_6  and  C_7 
REMARK    4  A    between atoms: C_7  and  N_8 
REMARK       I    between atoms: N_8  and  C_9 
REMARK    5  A    between atoms: C_9  and  C_10 
REMARK    6  A    between atoms: C_11  and  N_12 
REMARK    7  A    between atoms: N_13  and  N_14 
REMARK    8  A    between atoms: C_15  and  C_16 
ROOT
HETATM    1  C   UNL     1       6.978  29.549  57.685  1.00  0.00     0.104 C 
HETATM    2  C   UNL     1       7.683  30.359  58.569  1.00  0.00     0.123 C 
HETATM    3  N   UNL     1       6.866  31.467  58.800  1.00  0.00    -0.202 N 
HETATM    4  C   UNL     1       6.142  31.671  57.641  1.00  0.00     0.183 A 
HETATM    5  C   UNL     1       6.130  30.449  56.970  1.00  0.00     0.124 A 
HETATM    6  N   UNL     1       5.355  30.268  55.871  1.00  0.00    -0.242 NA
HETATM    7  C   UNL     1       4.687  31.361  55.464  1.00  0.00     0.086 A 
HETATM    8  C   UNL     1       4.740  32.600  56.156  1.00  0.00     0.088 A 
HETATM    9  N   UNL     1       5.445  32.774  57.285  1.00  0.00    -0.225 NA
HETATM   10  C   UNL     1       3.918  31.272  54.310  1.00  0.00     0.034 A 
HETATM   11  C   UNL     1       3.216  32.371  53.810  1.00  0.00     0.002 A 
HETATM   12  C   UNL     1       3.280  33.585  54.481  1.00  0.00     0.002 A 
HETATM   13  C   UNL     1       4.036  33.685  55.649  1.00  0.00     0.034 A 
ENDROOT
BRANCH   1  14
HETATM   14  C   UNL     1       7.041  28.093  57.605  1.00  0.00     0.257 C 
HETATM   15  N   UNL     1       6.199  27.559  56.635  1.00  0.00    -0.357 N 
HETATM   16  H   UNL     1       5.604  28.259  56.205  1.00  0.00     0.162 HD
HETATM   17  O   UNL     1       7.864  27.417  58.210  1.00  0.00    -0.267 OA
BRANCH  15  18
HETATM   18  C   UNL     1       6.708  26.619  55.658  1.00  0.00     0.123 C 
BRANCH  18  19
HETATM   19  C   UNL     1       6.422  25.141  55.876  1.00  0.00     0.024 C 
BRANCH  19  20
HETATM   20  C   UNL     1       7.686  24.301  56.076  1.00  0.00     0.040 C 
BRANCH  20  21
HETATM   21  C   UNL     1       7.770  23.073  55.193  1.00  0.00    -0.058 A 
HETATM   22  C   UNL     1       7.906  23.151  53.799  1.00  0.00     0.007 A 
HETATM   23  C   UNL     1       7.946  21.993  53.020  1.00  0.00     0.001 A 
HETATM   24  C   UNL     1       7.880  20.740  53.624  1.00  0.00     0.000 A 
HETATM   25  C   UNL     1       7.783  20.645  55.011  1.00  0.00     0.001 A 
HETATM   26  C   UNL     1       7.732  21.804  55.789  1.00  0.00     0.007 A 
ENDBRANCH  20  21
ENDBRANCH  19  20
ENDBRANCH  18  19
ENDBRANCH  15  18
ENDBRANCH   1  14
BRANCH   2  27
HETATM   27  N   UNL     1       8.828  30.138  59.292  1.00  0.00    -0.286 NA
HETATM   28  H   UNL     1       9.374  29.313  59.022  1.00  0.00     0.125 HD
HETATM   29  H   UNL     1       9.478  30.933  59.339  1.00  0.00     0.125 HD
ENDBRANCH   2  27
BRANCH   3  30
HETATM   30  N   UNL     1       6.695  32.142  59.988  1.00  0.00    -0.176 NA
HETATM   31  C   UNL     1       5.580  31.821  60.565  1.00  0.00     0.153 C 
BRANCH  31  32
HETATM   32  C   UNL     1       5.117  32.465  61.772  1.00  0.00     0.011 A 
HETATM   33  C   UNL     1       5.935  32.827  62.890  1.00  0.00     0.004 A 
HETATM   34  C   UNL     1       5.087  33.294  63.892  1.00  0.00     0.043 A 
HETATM   35  C   UNL     1       7.323  32.782  63.148  1.00  0.00     0.014 A 
HETATM   36  C   UNL     1       5.554  33.697  65.149  1.00  0.00     0.030 A 
HETATM   37  N   UNL     1       3.806  33.252  63.388  1.00  0.00    -0.364 N 
HETATM   38  C   UNL     1       6.934  33.641  65.380  1.00  0.00     0.002 A 
HETATM   39  C   UNL     1       7.809  33.195  64.393  1.00  0.00     0.001 A 
HETATM   40  H   UNL     1       2.979  33.518  63.904  1.00  0.00     0.165 HD
HETATM   41  C   UNL     1       3.815  32.771  62.105  1.00  0.00     0.102 A 
ENDBRANCH  31  32
ENDBRANCH   3  30
TORSDOF 8
ENDMDL
MODEL 8
REMARK VINA RESULT:     -10.7      3.585     10.462
REMARK  8 active torsions:
REMARK  status: ('A' for Active; 'I' for Inactive)
REMARK    1  A    between atoms: C_4  and  C_5 
REMARK    2  A    between atoms: C_5  and  C_6 
REMARK    3  A    between atoms: C_6  and  C_7 
REMARK    4  A    between atoms: C_7  and  N_8 
REMARK       I    between atoms: N_8  and  C_9 
REMARK    5  A    between atoms: C_9  and  C_10 
REMARK    6  A    between atoms: C_11  and  N_12 
REMARK    7  A    between atoms: N_13  and  N_14 
REMARK    8  A    between atoms: C_15  and  C_16 
ROOT
HETATM    1  C   UNL     1       7.649  29.328  57.487  1.00  0.00     0.104 C 
HETATM    2  C   UNL     1       7.328  27.976  57.511  1.00  0.00     0.123 C 
HETATM    3  N   UNL     1       6.362  27.800  56.519  1.00  0.00    -0.202 N 
HETATM    4  C   UNL     1       5.647  28.981  56.451  1.00  0.00     0.183 A 
HETATM    5  C   UNL     1       6.478  29.968  56.977  1.00  0.00     0.124 A 
HETATM    6  N   UNL     1       6.135  31.279  56.899  1.00  0.00    -0.242 NA
HETATM    7  C   UNL     1       4.928  31.516  56.356  1.00  0.00     0.086 A 
HETATM    8  C   UNL     1       4.093  30.484  55.852  1.00  0.00     0.088 A 
HETATM    9  N   UNL     1       4.450  29.190  55.856  1.00  0.00    -0.225 NA
HETATM   10  C   UNL     1       4.479  32.829  56.295  1.00  0.00     0.034 A 
HETATM   11  C   UNL     1       3.227  33.152  55.770  1.00  0.00     0.002 A 
HETATM   12  C   UNL     1       2.406  32.141  55.289  1.00  0.00     0.002 A 
HETATM   13  C   UNL     1       2.850  30.819  55.331  1.00  0.00     0.034 A 
ENDROOT
BRANCH   1  14
HETATM   14  C   UNL     1       8.943  29.918  57.819  1.00  0.00     0.257 C 
HETATM   15  N   UNL     1       8.837  31.119  58.514  1.00  0.00    -0.357 N 
HETATM   16  H   UNL     1       7.879  31.442  58.594  1.00  0.00     0.162 HD
HETATM   17  O   UNL     1      10.011  29.344  57.651  1.00  0.00    -0.267 OA
BRANCH  15  18
HETATM   18  C   UNL     1       9.573  31.320  59.745  1.00  0.00     0.123 C 
BRANCH  18  19
HETATM   19  C   UNL     1       8.780  31.417  61.040  1.00  0.00     0.024 C 
BRANCH  19  20
HETATM   20  C   UNL     1       7.550  32.323  60.933  1.00  0.00     0.040 C 
BRANCH  20  21
HETATM   21  C   UNL     1       7.194  33.051  62.213  1.00  0.00    -0.058 A 
HETATM   22  C   UNL     1       6.268  34.103  62.254  1.00  0.00     0.007 A 
HETATM   23  C   UNL     1       5.994  34.768  63.451  1.00  0.00     0.001 A 
HETATM   24  C   UNL     1       6.619  34.371  64.630  1.00  0.00     0.000 A 
HETATM   25  C   UNL     1       7.513  33.302  64.614  1.00  0.00     0.001 A 
HETATM   26  C   UNL     1       7.795  32.644  63.414  1.00  0.00     0.007 A 
ENDBRANCH  20  21
ENDBRANCH  19  20
ENDBRANCH  18  19
ENDBRANCH  15  18
ENDBRANCH   1  14
BRANCH   2  27
HETATM   27  N   UNL     1       7.906  26.913  58.157  1.00  0.00    -0.286 NA
HETATM   28  H   UNL     1       7.657  26.804  59.146  1.00  0.00     0.125 HD
HETATM   29  H   UNL     1       7.773  25.999  57.705  1.00  0.00     0.125 HD
ENDBRANCH   2  27
BRANCH   3  30
HETATM   30  N   UNL     1       6.228  26.725  55.668  1.00  0.00    -0.176 NA
HETATM   31  C   UNL     1       7.340  26.455  55.059  1.00  0.00     0.153 C 
BRANCH  31  32
HETATM   32  C   UNL     1       7.438  25.441  54.037  1.00  0.00     0.011 A 
HETATM   33  C   UNL     1       7.555  24.032  54.269  1.00  0.00     0.004 A 
HETATM   34  C   UNL     1       7.760  23.422  53.033  1.00  0.00     0.043 A 
HETATM   35  C   UNL     1       7.521  23.220  55.425  1.00  0.00     0.014 A 
HETATM   36  C   UNL     1       7.959  22.043  52.896  1.00  0.00     0.030 A 
HETATM   37  N   UNL     1       7.734  24.418  52.083  1.00  0.00    -0.364 N 
HETATM   38  C   UNL     1       7.924  21.262  54.057  1.00  0.00     0.002 A 
HETATM   39  C   UNL     1       7.702  21.839  55.305  1.00  0.00     0.001 A 
HETATM   40  H   UNL     1       7.873  24.269  51.093  1.00  0.00     0.165 HD
HETATM   41  C   UNL     1       7.522  25.636  52.675  1.00  0.00     0.102 A 
ENDBRANCH  31  32
ENDBRANCH   3  30
TORSDOF 8
ENDMDL
MODEL 9
REMARK VINA RESULT:     -10.3      2.941      7.024
REMARK  8 active torsions:
REMARK  status: ('A' for Active; 'I' for Inactive)
REMARK    1  A    between atoms: C_4  and  C_5 
REMARK    2  A    between atoms: C_5  and  C_6 
REMARK    3  A    between atoms: C_6  and  C_7 
REMARK    4  A    between atoms: C_7  and  N_8 
REMARK       I    between atoms: N_8  and  C_9 
REMARK    5  A    between atoms: C_9  and  C_10 
REMARK    6  A    between atoms: C_11  and  N_12 
REMARK    7  A    between atoms: N_13  and  N_14 
REMARK    8  A    between atoms: C_15  and  C_16 
ROOT
HETATM    1  C   UNL     1       5.345  27.834  56.104  1.00  0.00     0.104 C 
HETATM    2  C   UNL     1       5.974  28.653  57.034  1.00  0.00     0.123 C 
HETATM    3  N   UNL     1       5.271  29.858  57.013  1.00  0.00    -0.202 N 
HETATM    4  C   UNL     1       4.796  30.015  55.725  1.00  0.00     0.183 A 
HETATM    5  C   UNL     1       4.754  28.738  55.169  1.00  0.00     0.124 A 
HETATM    6  N   UNL     1       4.172  28.525  53.961  1.00  0.00    -0.242 NA
HETATM    7  C   UNL     1       3.726  29.634  53.345  1.00  0.00     0.086 A 
HETATM    8  C   UNL     1       3.807  30.926  53.929  1.00  0.00     0.088 A 
HETATM    9  N   UNL     1       4.315  31.142  55.153  1.00  0.00    -0.225 NA
HETATM   10  C   UNL     1       3.170  29.506  52.078  1.00  0.00     0.034 A 
HETATM   11  C   UNL     1       2.710  30.613  51.365  1.00  0.00     0.002 A 
HETATM   12  C   UNL     1       2.801  31.877  51.931  1.00  0.00     0.002 A 
HETATM   13  C   UNL     1       3.343  32.019  53.208  1.00  0.00     0.034 A 
ENDROOT
BRANCH   1  14
HETATM   14  C   UNL     1       5.242  26.378  56.159  1.00  0.00     0.257 C 
HETATM   15  N   UNL     1       5.153  25.786  54.904  1.00  0.00    -0.357 N 
HETATM   16  H   UNL     1       5.076  26.465  54.154  1.00  0.00     0.162 HD
HETATM   17  O   UNL     1       5.381  25.729  57.188  1.00  0.00    -0.267 OA
BRANCH  15  18
HETATM   18  C   UNL     1       6.034  24.694  54.545  1.00  0.00     0.123 C 
BRANCH  18  19
HETATM   19  C   UNL     1       6.584  24.659  53.127  1.00  0.00     0.024 C 
BRANCH  19  20
HETATM   20  C   UNL     1       8.041  24.195  53.052  1.00  0.00     0.040 C 
BRANCH  20  21
HETATM   21  C   UNL     1       8.279  22.791  53.568  1.00  0.00    -0.058 A 
HETATM   22  C   UNL     1       7.856  21.647  52.874  1.00  0.00     0.007 A 
HETATM   23  C   UNL     1       8.067  20.373  53.403  1.00  0.00     0.001 A 
HETATM   24  C   UNL     1       8.730  20.220  54.618  1.00  0.00     0.000 A 
HETATM   25  C   UNL     1       9.191  21.344  55.301  1.00  0.00     0.001 A 
HETATM   26  C   UNL     1       8.970  22.620  54.777  1.00  0.00     0.007 A 
ENDBRANCH  20  21
ENDBRANCH  19  20
ENDBRANCH  18  19
ENDBRANCH  15  18
ENDBRANCH   1  14
BRANCH   2  27
HETATM   27  N   UNL     1       6.936  28.390  57.977  1.00  0.00    -0.286 NA
HETATM   28  H   UNL     1       7.126  27.398  58.155  1.00  0.00     0.125 HD
HETATM   29  H   UNL     1       7.840  28.853  57.823  1.00  0.00     0.125 HD
ENDBRANCH   2  27
BRANCH   3  30
HETATM   30  N   UNL     1       4.975  30.669  58.087  1.00  0.00    -0.176 NA
HETATM   31  C   UNL     1       5.967  31.445  58.389  1.00  0.00     0.153 C 
BRANCH  31  32
HETATM   32  C   UNL     1       5.948  32.317  59.540  1.00  0.00     0.011 A 
HETATM   33  C   UNL     1       6.823  32.225  60.670  1.00  0.00     0.004 A 
HETATM   34  C   UNL     1       6.386  33.156  61.611  1.00  0.00     0.043 A 
HETATM   35  C   UNL     1       7.940  31.420  60.986  1.00  0.00     0.014 A 
HETATM   36  C   UNL     1       6.996  33.306  62.862  1.00  0.00     0.030 A 
HETATM   37  N   UNL     1       5.309  33.813  61.058  1.00  0.00    -0.364 N 
HETATM   38  C   UNL     1       8.099  32.494  63.151  1.00  0.00     0.002 A 
HETATM   39  C   UNL     1       8.570  31.567  62.225  1.00  0.00     0.001 A 
HETATM   40  H   UNL     1       4.778  34.535  61.525  1.00  0.00     0.165 HD
HETATM   41  C   UNL     1       5.048  33.327  59.804  1.00  0.00     0.102 A 
ENDBRANCH  31  32
ENDBRANCH   3  30
TORSDOF 8
ENDMDL
MODEL 10
REMARK VINA RESULT:     -10.2      3.391      6.707
REMARK  8 active torsions:
REMARK  status: ('A' for Active; 'I' for Inactive)
REMARK    1  A    between atoms: C_4  and  C_5 
REMARK    2  A    between atoms: C_5  and  C_6 
REMARK    3  A    between atoms: C_6  and  C_7 
REMARK    4  A    between atoms: C_7  and  N_8 
REMARK       I    between atoms: N_8  and  C_9 
REMARK    5  A    between atoms: C_9  and  C_10 
REMARK    6  A    between atoms: C_11  and  N_12 
REMARK    7  A    between atoms: N_13  and  N_14 
REMARK    8  A    between atoms: C_15  and  C_16 
ROOT
HETATM    1  C   UNL     1       4.875  30.183  56.386  1.00  0.00     0.104 C 
HETATM    2  C   UNL     1       4.288  30.561  57.589  1.00  0.00     0.123 C 
HETATM    3  N   UNL     1       5.261  31.296  58.269  1.00  0.00    -0.202 N 
HETATM    4  C   UNL     1       6.484  30.777  57.890  1.00  0.00     0.183 A 
HETATM    5  C   UNL     1       6.275  30.148  56.663  1.00  0.00     0.124 A 
HETATM    6  N   UNL     1       7.321  29.678  55.937  1.00  0.00    -0.242 NA
HETATM    7  C   UNL     1       8.522  29.805  56.528  1.00  0.00     0.086 A 
HETATM    8  C   UNL     1       8.698  30.429  57.792  1.00  0.00     0.088 A 
HETATM    9  N   UNL     1       7.682  30.963  58.489  1.00  0.00    -0.225 NA
HETATM   10  C   UNL     1       9.636  29.295  55.873  1.00  0.00     0.034 A 
HETATM   11  C   UNL     1      10.912  29.365  56.434  1.00  0.00     0.002 A 
HETATM   12  C   UNL     1      11.081  29.964  57.675  1.00  0.00     0.002 A 
HETATM   13  C   UNL     1       9.974  30.494  58.337  1.00  0.00     0.034 A 
ENDROOT
BRANCH   1  14
HETATM   14  C   UNL     1       4.188  29.977  55.114  1.00  0.00     0.257 C 
HETATM   15  N   UNL     1       4.851  29.093  54.269  1.00  0.00    -0.357 N 
HETATM   16  H   UNL     1       5.755  28.808  54.632  1.00  0.00     0.162 HD
HETATM   17  O   UNL     1       3.067  30.406  54.874  1.00  0.00    -0.267 OA
BRANCH  15  18
HETATM   18  C   UNL     1       4.143  27.982  53.668  1.00  0.00     0.123 C 
BRANCH  18  19
HETATM   19  C   UNL     1       4.848  26.635  53.611  1.00  0.00     0.024 C 
BRANCH  19  20
HETATM   20  C   UNL     1       6.154  26.600  54.409  1.00  0.00     0.040 C 
BRANCH  20  21
HETATM   21  C   UNL     1       6.947  25.319  54.258  1.00  0.00    -0.058 A 
HETATM   22  C   UNL     1       7.673  24.747  55.314  1.00  0.00     0.007 A 
HETATM   23  C   UNL     1       8.417  23.582  55.121  1.00  0.00     0.001 A 
HETATM   24  C   UNL     1       8.423  22.953  53.879  1.00  0.00     0.000 A 
HETATM   25  C   UNL     1       7.677  23.486  52.830  1.00  0.00     0.001 A 
HETATM   26  C   UNL     1       6.941  24.658  53.020  1.00  0.00     0.007 A 
ENDBRANCH  20  21
ENDBRANCH  19  20
ENDBRANCH  18  19
ENDBRANCH  15  18
ENDBRANCH   1  14
BRANCH   2  27
HETATM   27  N   UNL     1       2.993  30.483  58.036  1.00  0.00    -0.286 NA
HETATM   28  H   UNL     1       2.309  31.046  57.520  1.00  0.00     0.125 HD
HETATM   29  H   UNL     1       2.612  29.532  58.113  1.00  0.00     0.125 HD
ENDBRANCH   2  27
BRANCH   3  30
HETATM   30  N   UNL     1       5.065  32.413  59.049  1.00  0.00    -0.176 NA
HETATM   31  C   UNL     1       5.486  32.231  60.262  1.00  0.00     0.153 C 
BRANCH  31  32
HETATM   32  C   UNL     1       5.302  33.213  61.303  1.00  0.00     0.011 A 
HETATM   33  C   UNL     1       6.101  33.335  62.485  1.00  0.00     0.004 A 
HETATM   34  C   UNL     1       5.511  34.310  63.287  1.00  0.00     0.043 A 
HETATM   35  C   UNL     1       7.265  32.688  62.955  1.00  0.00     0.014 A 
HETATM   36  C   UNL     1       6.015  34.656  64.548  1.00  0.00     0.030 A 
HETATM   37  N   UNL     1       4.417  34.789  62.602  1.00  0.00    -0.364 N 
HETATM   38  C   UNL     1       7.168  33.999  64.991  1.00  0.00     0.002 A 
HETATM   39  C   UNL     1       7.791  33.032  64.205  1.00  0.00     0.001 A 
HETATM   40  H   UNL     1       3.787  35.497  62.952  1.00  0.00     0.165 HD
HETATM   41  C   UNL     1       4.292  34.147  61.398  1.00  0.00     0.102 A 
ENDBRANCH  31  32
ENDBRANCH   3  30
TORSDOF 8
ENDMDL
