MODEL 1
REMARK VINA RESULT:     -10.8      0.000      0.000
REMARK  6 active torsions:
REMARK  status: ('A' for Active; 'I' for Inactive)
REMARK    1  A    between atoms: C_7  and  C_8 
REMARK    2  A    between atoms: C_8  and  C_9 
REMARK    3  A    between atoms: C_9  and  N_10 
REMARK    4  A    between atoms: C_12  and  C_13 
REMARK    5  A    between atoms: C_13  and  N_14 
REMARK    6  A    between atoms: C_36  and  O_37 
ROOT
HETATM    1  N   UNL     1       6.138  28.546  55.385  1.00  0.00    -0.054 N 
HETATM    2  H   UNL     1       6.515  29.342  54.841  1.00  0.00     0.281 HD
HETATM    3  C   UNL     1       5.966  27.480  54.294  1.00  0.00     0.240 C 
HETATM    4  C   UNL     1       5.059  28.042  53.206  1.00  0.00    -0.020 A 
HETATM    5  C   UNL     1       4.092  29.028  53.503  1.00  0.00    -0.048 A 
HETATM    6  C   UNL     1       3.986  29.662  54.868  1.00  0.00     0.067 C 
HETATM    7  C   UNL     1       4.817  28.983  55.955  1.00  0.00     0.241 C 
HETATM    8  C   UNL     1       5.157  27.549  51.894  1.00  0.00     0.010 A 
HETATM    9  C   UNL     1       4.309  28.022  50.894  1.00  0.00     0.001 A 
HETATM   10  C   UNL     1       3.356  28.992  51.188  1.00  0.00     0.001 A 
HETATM   11  C   UNL     1       3.250  29.496  52.483  1.00  0.00     0.008 A 
ENDROOT
BRANCH   1  12
HETATM   12  C   UNL     1       7.227  28.336  56.433  1.00  0.00     0.319 C 
BRANCH  12  13
HETATM   13  C   UNL     1       8.401  29.291  56.282  1.00  0.00     0.188 C 
HETATM   14  O   UNL     1       8.946  29.358  55.176  1.00  0.00    -0.290 OA
BRANCH  13  15
HETATM   15  C   UNL     1       8.803  30.124  57.419  1.00  0.00     0.046 A 
HETATM   16  C   UNL     1      10.128  30.328  57.798  1.00  0.00     0.020 A 
HETATM   17  C   UNL     1      11.402  29.785  57.247  1.00  0.00     0.069 C 
HETATM   18  N   UNL     1      10.141  31.196  58.858  1.00  0.00    -0.358 N 
HETATM   19  H   UNL     1      10.974  31.535  59.324  1.00  0.00     0.166 HD
HETATM   20  C   UNL     1       8.862  31.552  59.203  1.00  0.00     0.043 A 
HETATM   21  C   UNL     1       7.993  30.889  58.336  1.00  0.00     0.009 A 
HETATM   22  C   UNL     1       8.427  32.419  60.212  1.00  0.00     0.033 A 
HETATM   23  C   UNL     1       6.608  31.112  58.524  1.00  0.00     0.051 A 
HETATM   24  C   UNL     1       6.144  31.963  59.540  1.00  0.00     0.069 A 
HETATM   25  C   UNL     1       7.051  32.614  60.367  1.00  0.00     0.039 A 
BRANCH  24  26
HETATM   26  O   UNL     1       4.780  32.061  59.602  1.00  0.00    -0.356 OA
HETATM   27  C   UNL     1       4.041  31.412  58.571  1.00  0.00     0.210 C 
ENDBRANCH  24  26
ENDBRANCH  13  15
ENDBRANCH  12  13
ENDBRANCH   1  12
BRANCH   3  28
HETATM   28  C   UNL     1       5.368  26.123  54.778  1.00  0.00     0.173 C 
BRANCH  28  29
HETATM   29  N   UNL     1       6.239  24.968  54.660  1.00  0.00    -0.278 N 
HETATM   30  C   UNL     1       6.411  24.241  53.515  1.00  0.00     0.261 A 
HETATM   31  O   UNL     1       5.782  24.341  52.479  1.00  0.00    -0.267 OA
HETATM   32  C   UNL     1       7.377  23.189  53.831  1.00  0.00     0.048 A 
HETATM   33  C   UNL     1       7.691  23.303  55.178  1.00  0.00     0.048 A 
HETATM   34  C   UNL     1       7.884  22.174  53.046  1.00  0.00     0.018 A 
HETATM   35  C   UNL     1       6.929  24.431  55.711  1.00  0.00     0.261 A 
HETATM   36  C   UNL     1       8.535  22.415  55.811  1.00  0.00     0.018 A 
HETATM   37  O   UNL     1       6.856  24.759  56.878  1.00  0.00    -0.267 OA
HETATM   38  C   UNL     1       9.071  21.386  55.033  1.00  0.00     0.001 A 
HETATM   39  C   UNL     1       8.748  21.265  53.664  1.00  0.00     0.001 A 
ENDBRANCH  28  29
ENDBRANCH   3  28
TORSDOF 6
ENDMDL
MODEL 2
REMARK VINA RESULT:     -10.5      1.540      2.034
REMARK  6 active torsions:
REMARK  status: ('A' for Active; 'I' for Inactive)
REMARK    1  A    between atoms: C_7  and  C_8 
REMARK    2  A    between atoms: C_8  and  C_9 
REMARK    3  A    between atoms: C_9  and  N_10 
REMARK    4  A    between atoms: C_12  and  C_13 
REMARK    5  A    between atoms: C_13  and  N_14 
REMARK    6  A    between atoms: C_36  and  O_37 
ROOT
HETATM    1  N   UNL     1       5.354  29.524  56.031  1.00  0.00    -0.054 N 
HETATM    2  H   UNL     1       5.808  30.340  55.585  1.00  0.00     0.281 HD
HETATM    3  C   UNL     1       5.717  28.396  55.054  1.00  0.00     0.240 C 
HETATM    4  C   UNL     1       5.210  28.774  53.668  1.00  0.00    -0.020 A 
HETATM    5  C   UNL     1       4.094  29.625  53.508  1.00  0.00    -0.048 A 
HETATM    6  C   UNL     1       3.425  30.299  54.682  1.00  0.00     0.067 C 
HETATM    7  C   UNL     1       3.875  29.794  56.052  1.00  0.00     0.241 C 
HETATM    8  C   UNL     1       5.836  28.242  52.529  1.00  0.00     0.010 A 
HETATM    9  C   UNL     1       5.362  28.545  51.253  1.00  0.00     0.001 A 
HETATM   10  C   UNL     1       4.262  29.383  51.098  1.00  0.00     0.001 A 
HETATM   11  C   UNL     1       3.633  29.923  52.218  1.00  0.00     0.008 A 
ENDROOT
BRANCH   1  12
HETATM   12  C   UNL     1       6.002  29.517  57.412  1.00  0.00     0.319 C 
BRANCH  12  13
HETATM   13  C   UNL     1       6.517  30.882  57.843  1.00  0.00     0.188 C 
HETATM   14  O   UNL     1       6.030  31.877  57.296  1.00  0.00    -0.290 OA
BRANCH  13  15
HETATM   15  C   UNL     1       7.516  30.971  58.912  1.00  0.00     0.046 A 
HETATM   16  C   UNL     1       8.806  30.457  58.810  1.00  0.00     0.020 A 
HETATM   17  C   UNL     1       9.480  29.704  57.714  1.00  0.00     0.069 C 
HETATM   18  N   UNL     1       9.481  30.762  59.963  1.00  0.00    -0.358 N 
HETATM   19  H   UNL     1      10.447  30.525  60.153  1.00  0.00     0.166 HD
HETATM   20  C   UNL     1       8.665  31.442  60.831  1.00  0.00     0.043 A 
HETATM   21  C   UNL     1       7.420  31.579  60.218  1.00  0.00     0.009 A 
HETATM   22  C   UNL     1       8.954  31.947  62.104  1.00  0.00     0.033 A 
HETATM   23  C   UNL     1       6.415  32.253  60.953  1.00  0.00     0.051 A 
HETATM   24  C   UNL     1       6.673  32.754  62.239  1.00  0.00     0.069 A 
HETATM   25  C   UNL     1       7.936  32.607  62.800  1.00  0.00     0.039 A 
BRANCH  24  26
HETATM   26  O   UNL     1       5.596  33.363  62.823  1.00  0.00    -0.356 OA
HETATM   27  C   UNL     1       5.360  33.075  64.198  1.00  0.00     0.210 C 
ENDBRANCH  24  26
ENDBRANCH  13  15
ENDBRANCH  12  13
ENDBRANCH   1  12
BRANCH   3  28
HETATM   28  C   UNL     1       5.145  26.991  55.418  1.00  0.00     0.173 C 
BRANCH  28  29
HETATM   29  N   UNL     1       6.030  25.865  55.180  1.00  0.00    -0.278 N 
HETATM   30  C   UNL     1       5.922  25.004  54.125  1.00  0.00     0.261 A 
HETATM   31  O   UNL     1       5.017  24.945  53.314  1.00  0.00    -0.267 OA
HETATM   32  C   UNL     1       7.014  24.040  54.260  1.00  0.00     0.048 A 
HETATM   33  C   UNL     1       7.690  24.340  55.434  1.00  0.00     0.048 A 
HETATM   34  C   UNL     1       7.350  22.954  53.480  1.00  0.00     0.018 A 
HETATM   35  C   UNL     1       7.030  25.497  56.036  1.00  0.00     0.261 A 
HETATM   36  C   UNL     1       8.745  23.576  55.888  1.00  0.00     0.018 A 
HETATM   37  O   UNL     1       7.269  25.969  57.130  1.00  0.00    -0.267 OA
HETATM   38  C   UNL     1       9.112  22.476  55.107  1.00  0.00     0.001 A 
HETATM   39  C   UNL     1       8.421  22.167  53.916  1.00  0.00     0.001 A 
ENDBRANCH  28  29
ENDBRANCH   3  28
TORSDOF 6
ENDMDL
MODEL 3
REMARK VINA RESULT:     -10.5      2.009      8.123
REMARK  6 active torsions:
REMARK  status: ('A' for Active; 'I' for Inactive)
REMARK    1  A    between atoms: C_7  and  C_8 
REMARK    2  A    between atoms: C_8  and  C_9 
REMARK    3  A    between atoms: C_9  and  N_10 
REMARK    4  A    between atoms: C_12  and  C_13 
REMARK    5  A    between atoms: C_13  and  N_14 
REMARK    6  A    between atoms: C_36  and  O_37 
ROOT
HETATM    1  N   UNL     1       5.783  28.378  56.474  1.00  0.00    -0.054 N 
HETATM    2  H   UNL     1       4.845  27.944  56.431  1.00  0.00     0.281 HD
HETATM    3  C   UNL     1       5.466  29.738  57.111  1.00  0.00     0.240 C 
HETATM    4  C   UNL     1       4.435  30.450  56.243  1.00  0.00    -0.020 A 
HETATM    5  C   UNL     1       4.344  30.188  54.859  1.00  0.00    -0.048 A 
HETATM    6  C   UNL     1       5.167  29.114  54.189  1.00  0.00     0.067 C 
HETATM    7  C   UNL     1       6.273  28.520  55.060  1.00  0.00     0.241 C 
HETATM    8  C   UNL     1       3.584  31.409  56.819  1.00  0.00     0.010 A 
HETATM    9  C   UNL     1       2.661  32.099  56.034  1.00  0.00     0.001 A 
HETATM   10  C   UNL     1       2.574  31.841  54.670  1.00  0.00     0.001 A 
HETATM   11  C   UNL     1       3.407  30.889  54.084  1.00  0.00     0.008 A 
ENDROOT
BRANCH   1  12
HETATM   12  C   UNL     1       6.564  27.360  57.301  1.00  0.00     0.319 C 
BRANCH  12  13
HETATM   13  C   UNL     1       6.208  25.917  56.973  1.00  0.00     0.188 C 
HETATM   14  O   UNL     1       5.153  25.469  57.433  1.00  0.00    -0.290 OA
BRANCH  13  15
HETATM   15  C   UNL     1       7.086  25.141  56.093  1.00  0.00     0.046 A 
HETATM   16  C   UNL     1       8.209  24.448  56.538  1.00  0.00     0.020 A 
HETATM   17  C   UNL     1       8.819  24.331  57.893  1.00  0.00     0.069 C 
HETATM   18  N   UNL     1       8.760  23.794  55.468  1.00  0.00    -0.358 N 
HETATM   19  H   UNL     1       9.577  23.196  55.506  1.00  0.00     0.166 HD
HETATM   20  C   UNL     1       8.046  24.054  54.326  1.00  0.00     0.043 A 
HETATM   21  C   UNL     1       6.998  24.908  54.671  1.00  0.00     0.009 A 
HETATM   22  C   UNL     1       8.255  23.584  53.025  1.00  0.00     0.033 A 
HETATM   23  C   UNL     1       6.132  25.313  53.628  1.00  0.00     0.051 A 
HETATM   24  C   UNL     1       6.330  24.870  52.311  1.00  0.00     0.069 A 
HETATM   25  C   UNL     1       7.379  24.006  52.020  1.00  0.00     0.039 A 
BRANCH  24  26
HETATM   26  O   UNL     1       5.419  25.363  51.417  1.00  0.00    -0.356 OA
HETATM   27  C   UNL     1       5.259  26.778  51.376  1.00  0.00     0.210 C 
ENDBRANCH  24  26
ENDBRANCH  13  15
ENDBRANCH  12  13
ENDBRANCH   1  12
BRANCH   3  28
HETATM   28  C   UNL     1       6.690  30.688  57.296  1.00  0.00     0.173 C 
BRANCH  28  29
HETATM   29  N   UNL     1       6.951  31.129  58.653  1.00  0.00    -0.278 N 
HETATM   30  C   UNL     1       6.397  32.238  59.227  1.00  0.00     0.261 A 
HETATM   31  O   UNL     1       5.731  33.096  58.679  1.00  0.00    -0.267 OA
HETATM   32  C   UNL     1       6.912  32.300  60.596  1.00  0.00     0.048 A 
HETATM   33  C   UNL     1       7.803  31.248  60.752  1.00  0.00     0.048 A 
HETATM   34  C   UNL     1       6.691  33.226  61.594  1.00  0.00     0.018 A 
HETATM   35  C   UNL     1       7.846  30.518  59.487  1.00  0.00     0.261 A 
HETATM   36  C   UNL     1       8.515  31.059  61.919  1.00  0.00     0.018 A 
HETATM   37  O   UNL     1       8.603  29.610  59.209  1.00  0.00    -0.267 OA
HETATM   38  C   UNL     1       8.297  31.976  62.950  1.00  0.00     0.001 A 
HETATM   39  C   UNL     1       7.395  33.050  62.789  1.00  0.00     0.001 A 
ENDBRANCH  28  29
ENDBRANCH   3  28
TORSDOF 6
ENDMDL
MODEL 4
REMARK VINA RESULT:     -10.3      1.686      2.860
REMARK  6 active torsions:
REMARK  status: ('A' for Active; 'I' for Inactive)
REMARK    1  A    between atoms: C_7  and  C_8 
REMARK    2  A    between atoms: C_8  and  C_9 
REMARK    3  A    between atoms: C_9  and  N_10 
REMARK    4  A    between atoms: C_12  and  C_13 
REMARK    5  A    between atoms: C_13  and  N_14 
REMARK    6  A    between atoms: C_36  and  O_37 
ROOT
HETATM    1  N   UNL     1       6.142  29.393  56.038  1.00  0.00    -0.054 N 
HETATM    2  H   UNL     1       6.517  30.354  55.962  1.00  0.00     0.281 HD
HETATM    3  C   UNL     1       5.273  29.298  54.776  1.00  0.00     0.240 C 
HETATM    4  C   UNL     1       4.248  30.425  54.808  1.00  0.00    -0.020 A 
HETATM    5  C   UNL     1       3.801  30.967  56.032  1.00  0.00    -0.048 A 
HETATM    6  C   UNL     1       4.394  30.553  57.357  1.00  0.00     0.067 C 
HETATM    7  C   UNL     1       5.316  29.337  57.293  1.00  0.00     0.241 C 
HETATM    8  C   UNL     1       3.711  30.911  53.604  1.00  0.00     0.010 A 
HETATM    9  C   UNL     1       2.743  31.915  53.614  1.00  0.00     0.001 A 
HETATM   10  C   UNL     1       2.302  32.447  54.822  1.00  0.00     0.001 A 
HETATM   11  C   UNL     1       2.830  31.980  56.025  1.00  0.00     0.008 A 
ENDROOT
BRANCH   1  12
HETATM   12  C   UNL     1       7.418  28.558  56.099  1.00  0.00     0.319 C 
BRANCH  12  13
HETATM   13  C   UNL     1       8.020  28.478  57.494  1.00  0.00     0.188 C 
HETATM   14  O   UNL     1       7.878  27.421  58.118  1.00  0.00    -0.290 OA
BRANCH  13  15
HETATM   15  C   UNL     1       8.780  29.616  58.018  1.00  0.00     0.046 A 
HETATM   16  C   UNL     1      10.046  29.974  57.564  1.00  0.00     0.020 A 
HETATM   17  C   UNL     1      10.937  29.351  56.544  1.00  0.00     0.069 C 
HETATM   18  N   UNL     1      10.435  31.107  58.229  1.00  0.00    -0.358 N 
HETATM   19  H   UNL     1      11.308  31.599  58.083  1.00  0.00     0.166 HD
HETATM   20  C   UNL     1       9.470  31.493  59.124  1.00  0.00     0.043 A 
HETATM   21  C   UNL     1       8.423  30.575  59.036  1.00  0.00     0.009 A 
HETATM   22  C   UNL     1       9.456  32.591  59.992  1.00  0.00     0.033 A 
HETATM   23  C   UNL     1       7.314  30.784  59.890  1.00  0.00     0.051 A 
HETATM   24  C   UNL     1       7.283  31.869  60.781  1.00  0.00     0.069 A 
HETATM   25  C   UNL     1       8.343  32.765  60.821  1.00  0.00     0.039 A 
BRANCH  24  26
HETATM   26  O   UNL     1       6.151  31.922  61.549  1.00  0.00    -0.356 OA
HETATM   27  C   UNL     1       6.141  32.866  62.616  1.00  0.00     0.210 C 
ENDBRANCH  24  26
ENDBRANCH  13  15
ENDBRANCH  12  13
ENDBRANCH   1  12
BRANCH   3  28
HETATM   28  C   UNL     1       4.511  27.949  54.591  1.00  0.00     0.173 C 
BRANCH  28  29
HETATM   29  N   UNL     1       5.334  26.791  54.295  1.00  0.00    -0.278 N 
HETATM   30  C   UNL     1       5.615  25.792  55.184  1.00  0.00     0.261 A 
HETATM   31  O   UNL     1       5.357  25.771  56.373  1.00  0.00    -0.267 OA
HETATM   32  C   UNL     1       6.453  24.826  54.474  1.00  0.00     0.048 A 
HETATM   33  C   UNL     1       6.683  25.330  53.202  1.00  0.00     0.048 A 
HETATM   34  C   UNL     1       7.030  23.651  54.910  1.00  0.00     0.018 A 
HETATM   35  C   UNL     1       5.985  26.611  53.106  1.00  0.00     0.261 A 
HETATM   36  C   UNL     1       7.494  24.684  52.293  1.00  0.00     0.018 A 
HETATM   37  O   UNL     1       6.056  27.398  52.184  1.00  0.00    -0.267 OA
HETATM   38  C   UNL     1       8.080  23.484  52.707  1.00  0.00     0.001 A 
HETATM   39  C   UNL     1       7.851  22.973  54.003  1.00  0.00     0.001 A 
ENDBRANCH  28  29
ENDBRANCH   3  28
TORSDOF 6
ENDMDL
MODEL 5
REMARK VINA RESULT:     -10.3      1.549      3.187
REMARK  6 active torsions:
REMARK  status: ('A' for Active; 'I' for Inactive)
REMARK    1  A    between atoms: C_7  and  C_8 
REMARK    2  A    between atoms: C_8  and  C_9 
REMARK    3  A    between atoms: C_9  and  N_10 
REMARK    4  A    between atoms: C_12  and  C_13 
REMARK    5  A    between atoms: C_13  and  N_14 
REMARK    6  A    between atoms: C_36  and  O_37 
ROOT
HETATM    1  N   UNL     1       5.614  28.980  54.088  1.00  0.00    -0.054 N 
HETATM    2  H   UNL     1       5.989  29.689  53.435  1.00  0.00     0.281 HD
HETATM    3  C   UNL     1       5.711  27.701  53.247  1.00  0.00     0.240 C 
HETATM    4  C   UNL     1       4.926  27.908  51.957  1.00  0.00    -0.020 A 
HETATM    5  C   UNL     1       3.836  28.804  51.905  1.00  0.00    -0.048 A 
HETATM    6  C   UNL     1       3.466  29.686  53.072  1.00  0.00     0.067 C 
HETATM    7  C   UNL     1       4.186  29.354  54.378  1.00  0.00     0.241 C 
HETATM    8  C   UNL     1       5.268  27.174  50.809  1.00  0.00     0.010 A 
HETATM    9  C   UNL     1       4.537  27.321  49.630  1.00  0.00     0.001 A 
HETATM   10  C   UNL     1       3.462  28.203  49.581  1.00  0.00     0.001 A 
HETATM   11  C   UNL     1       3.115  28.943  50.710  1.00  0.00     0.008 A 
ENDROOT
BRANCH   1  12
HETATM   12  C   UNL     1       6.548  29.128  55.286  1.00  0.00     0.319 C 
BRANCH  12  13
HETATM   13  C   UNL     1       5.825  29.088  56.623  1.00  0.00     0.188 C 
HETATM   14  O   UNL     1       5.077  28.129  56.841  1.00  0.00    -0.290 OA
BRANCH  13  15
HETATM   15  C   UNL     1       6.078  30.140  57.612  1.00  0.00     0.046 A 
HETATM   16  C   UNL     1       5.071  30.864  58.246  1.00  0.00     0.020 A 
HETATM   17  C   UNL     1       3.589  30.823  58.097  1.00  0.00     0.069 C 
HETATM   18  N   UNL     1       5.658  31.720  59.140  1.00  0.00    -0.358 N 
HETATM   19  H   UNL     1       5.161  32.354  59.753  1.00  0.00     0.166 HD
HETATM   20  C   UNL     1       7.024  31.597  59.097  1.00  0.00     0.043 A 
HETATM   21  C   UNL     1       7.329  30.629  58.140  1.00  0.00     0.009 A 
HETATM   22  C   UNL     1       7.997  32.269  59.846  1.00  0.00     0.033 A 
HETATM   23  C   UNL     1       8.700  30.348  57.929  1.00  0.00     0.051 A 
HETATM   24  C   UNL     1       9.696  31.021  58.654  1.00  0.00     0.069 A 
HETATM   25  C   UNL     1       9.341  31.966  59.609  1.00  0.00     0.039 A 
BRANCH  24  26
HETATM   26  O   UNL     1      10.971  30.649  58.322  1.00  0.00    -0.356 OA
HETATM   27  C   UNL     1      11.121  29.823  57.171  1.00  0.00     0.210 C 
ENDBRANCH  24  26
ENDBRANCH  13  15
ENDBRANCH  12  13
ENDBRANCH   1  12
BRANCH   3  28
HETATM   28  C   UNL     1       5.180  26.407  53.939  1.00  0.00     0.173 C 
BRANCH  28  29
HETATM   29  N   UNL     1       6.122  25.307  54.035  1.00  0.00    -0.278 N 
HETATM   30  C   UNL     1       7.046  25.163  55.032  1.00  0.00     0.261 A 
HETATM   31  O   UNL     1       7.328  25.971  55.896  1.00  0.00    -0.267 OA
HETATM   32  C   UNL     1       7.768  23.921  54.754  1.00  0.00     0.048 A 
HETATM   33  C   UNL     1       7.275  23.411  53.562  1.00  0.00     0.048 A 
HETATM   34  C   UNL     1       8.810  23.322  55.431  1.00  0.00     0.018 A 
HETATM   35  C   UNL     1       6.238  24.327  53.089  1.00  0.00     0.261 A 
HETATM   36  C   UNL     1       7.791  22.270  52.984  1.00  0.00     0.018 A 
HETATM   37  O   UNL     1       5.667  24.271  52.019  1.00  0.00    -0.267 OA
HETATM   38  C   UNL     1       8.840  21.637  53.658  1.00  0.00     0.001 A 
HETATM   39  C   UNL     1       9.346  22.159  54.869  1.00  0.00     0.001 A 
ENDBRANCH  28  29
ENDBRANCH   3  28
TORSDOF 6
ENDMDL
MODEL 6
REMARK VINA RESULT:     -10.2      1.564      2.056
REMARK  6 active torsions:
REMARK  status: ('A' for Active; 'I' for Inactive)
REMARK    1  A    between atoms: C_7  and  C_8 
REMARK    2  A    between atoms: C_8  and  C_9 
REMARK    3  A    between atoms: C_9  and  N_10 
REMARK    4  A    between atoms: C_12  and  C_13 
REMARK    5  A    between atoms: C_13  and  N_14 
REMARK    6  A    between atoms: C_36  and  O_37 
ROOT
HETATM    1  N   UNL     1       6.023  29.106  56.490  1.00  0.00    -0.054 N 
HETATM    2  H   UNL     1       6.455  29.947  56.069  1.00  0.00     0.281 HD
HETATM    3  C   UNL     1       6.188  28.076  55.364  1.00  0.00     0.240 C 
HETATM    4  C   UNL     1       5.519  28.619  54.107  1.00  0.00    -0.020 A 
HETATM    5  C   UNL     1       4.440  29.526  54.192  1.00  0.00    -0.048 A 
HETATM    6  C   UNL     1       3.973  30.097  55.510  1.00  0.00     0.067 C 
HETATM    7  C   UNL     1       4.577  29.431  56.745  1.00  0.00     0.241 C 
HETATM    8  C   UNL     1       5.956  28.187  52.844  1.00  0.00     0.010 A 
HETATM    9  C   UNL     1       5.331  28.643  51.684  1.00  0.00     0.001 A 
HETATM   10  C   UNL     1       4.267  29.536  51.770  1.00  0.00     0.001 A 
HETATM   11  C   UNL     1       3.825  29.978  53.015  1.00  0.00     0.008 A 
ENDROOT
BRANCH   1  12
HETATM   12  C   UNL     1       6.850  28.926  57.759  1.00  0.00     0.319 C 
BRANCH  12  13
HETATM   13  C   UNL     1       7.698  30.142  58.103  1.00  0.00     0.188 C 
HETATM   14  O   UNL     1       8.712  30.343  57.427  1.00  0.00    -0.290 OA
BRANCH  13  15
HETATM   15  C   UNL     1       7.260  31.048  59.169  1.00  0.00     0.046 A 
HETATM   16  C   UNL     1       7.933  31.201  60.378  1.00  0.00     0.020 A 
HETATM   17  C   UNL     1       9.151  30.532  60.917  1.00  0.00     0.069 C 
HETATM   18  N   UNL     1       7.283  32.158  61.111  1.00  0.00    -0.358 N 
HETATM   19  H   UNL     1       7.566  32.485  62.027  1.00  0.00     0.166 HD
HETATM   20  C   UNL     1       6.187  32.624  60.429  1.00  0.00     0.043 A 
HETATM   21  C   UNL     1       6.127  31.942  59.214  1.00  0.00     0.009 A 
HETATM   22  C   UNL     1       5.261  33.604  60.806  1.00  0.00     0.033 A 
HETATM   23  C   UNL     1       5.056  32.268  58.349  1.00  0.00     0.051 A 
HETATM   24  C   UNL     1       4.104  33.235  58.710  1.00  0.00     0.069 A 
HETATM   25  C   UNL     1       4.216  33.900  59.925  1.00  0.00     0.039 A 
BRANCH  24  26
HETATM   26  O   UNL     1       3.123  33.423  57.774  1.00  0.00    -0.356 OA
HETATM   27  C   UNL     1       2.667  34.758  57.580  1.00  0.00     0.210 C 
ENDBRANCH  24  26
ENDBRANCH  13  15
ENDBRANCH  12  13
ENDBRANCH   1  12
BRANCH   3  28
HETATM   28  C   UNL     1       5.596  26.663  55.662  1.00  0.00     0.173 C 
BRANCH  28  29
HETATM   29  N   UNL     1       6.405  25.534  55.242  1.00  0.00    -0.278 N 
HETATM   30  C   UNL     1       6.174  24.791  54.119  1.00  0.00     0.261 A 
HETATM   31  O   UNL     1       5.206  24.849  53.384  1.00  0.00    -0.267 OA
HETATM   32  C   UNL     1       7.227  23.776  54.067  1.00  0.00     0.048 A 
HETATM   33  C   UNL     1       8.007  23.928  55.204  1.00  0.00     0.048 A 
HETATM   34  C   UNL     1       7.449  22.763  53.158  1.00  0.00     0.018 A 
HETATM   35  C   UNL     1       7.451  25.042  55.971  1.00  0.00     0.261 A 
HETATM   36  C   UNL     1       9.056  23.081  55.491  1.00  0.00     0.018 A 
HETATM   37  O   UNL     1       7.798  25.391  57.082  1.00  0.00    -0.267 OA
HETATM   38  C   UNL     1       9.309  22.053  54.578  1.00  0.00     0.001 A 
HETATM   39  C   UNL     1       8.512  21.895  53.423  1.00  0.00     0.001 A 
ENDBRANCH  28  29
ENDBRANCH   3  28
TORSDOF 6
ENDMDL
MODEL 7
REMARK VINA RESULT:     -10.1      2.064      7.360
REMARK  6 active torsions:
REMARK  status: ('A' for Active; 'I' for Inactive)
REMARK    1  A    between atoms: C_7  and  C_8 
REMARK    2  A    between atoms: C_8  and  C_9 
REMARK    3  A    between atoms: C_9  and  N_10 
REMARK    4  A    between atoms: C_12  and  C_13 
REMARK    5  A    between atoms: C_13  and  N_14 
REMARK    6  A    between atoms: C_36  and  O_37 
ROOT
HETATM    1  N   UNL     1       5.185  26.171  53.211  1.00  0.00    -0.054 N 
HETATM    2  H   UNL     1       4.203  25.855  53.138  1.00  0.00     0.281 HD
HETATM    3  C   UNL     1       5.025  27.696  53.135  1.00  0.00     0.240 C 
HETATM    4  C   UNL     1       4.300  28.043  51.840  1.00  0.00    -0.020 A 
HETATM    5  C   UNL     1       4.391  27.204  50.708  1.00  0.00    -0.048 A 
HETATM    6  C   UNL     1       5.100  25.872  50.753  1.00  0.00     0.067 C 
HETATM    7  C   UNL     1       5.918  25.624  52.018  1.00  0.00     0.241 C 
HETATM    8  C   UNL     1       3.559  29.233  51.755  1.00  0.00     0.010 A 
HETATM    9  C   UNL     1       2.921  29.587  50.567  1.00  0.00     0.001 A 
HETATM   10  C   UNL     1       3.013  28.760  49.452  1.00  0.00     0.001 A 
HETATM   11  C   UNL     1       3.740  27.573  49.522  1.00  0.00     0.008 A 
ENDROOT
BRANCH   1  12
HETATM   12  C   UNL     1       5.618  25.557  54.540  1.00  0.00     0.319 C 
BRANCH  12  13
HETATM   13  C   UNL     1       7.082  25.148  54.566  1.00  0.00     0.188 C 
HETATM   14  O   UNL     1       7.828  25.631  53.707  1.00  0.00    -0.290 OA
BRANCH  13  15
HETATM   15  C   UNL     1       7.562  24.253  55.623  1.00  0.00     0.046 A 
HETATM   16  C   UNL     1       7.720  24.642  56.951  1.00  0.00     0.020 A 
HETATM   17  C   UNL     1       7.512  25.956  57.622  1.00  0.00     0.069 C 
HETATM   18  N   UNL     1       8.130  23.550  57.670  1.00  0.00    -0.358 N 
HETATM   19  H   UNL     1       8.305  23.540  58.668  1.00  0.00     0.166 HD
HETATM   20  C   UNL     1       8.268  22.459  56.850  1.00  0.00     0.043 A 
HETATM   21  C   UNL     1       7.938  22.861  55.556  1.00  0.00     0.009 A 
HETATM   22  C   UNL     1       8.652  21.152  57.173  1.00  0.00     0.033 A 
HETATM   23  C   UNL     1       8.021  21.880  54.539  1.00  0.00     0.051 A 
HETATM   24  C   UNL     1       8.420  20.567  54.834  1.00  0.00     0.069 A 
HETATM   25  C   UNL     1       8.723  20.210  56.142  1.00  0.00     0.039 A 
BRANCH  24  26
HETATM   26  O   UNL     1       8.466  19.743  53.741  1.00  0.00    -0.356 OA
HETATM   27  C   UNL     1       8.343  20.362  52.464  1.00  0.00     0.210 C 
ENDBRANCH  24  26
ENDBRANCH  13  15
ENDBRANCH  12  13
ENDBRANCH   1  12
BRANCH   3  28
HETATM   28  C   UNL     1       6.356  28.509  53.184  1.00  0.00     0.173 C 
BRANCH  28  29
HETATM   29  N   UNL     1       6.834  28.866  54.507  1.00  0.00    -0.278 N 
HETATM   30  C   UNL     1       6.040  29.332  55.517  1.00  0.00     0.261 A 
HETATM   31  O   UNL     1       4.870  29.655  55.444  1.00  0.00    -0.267 OA
HETATM   32  C   UNL     1       6.916  29.546  56.669  1.00  0.00     0.048 A 
HETATM   33  C   UNL     1       8.211  29.251  56.268  1.00  0.00     0.048 A 
HETATM   34  C   UNL     1       6.634  30.026  57.931  1.00  0.00     0.018 A 
HETATM   35  C   UNL     1       8.153  28.844  54.865  1.00  0.00     0.261 A 
HETATM   36  C   UNL     1       9.293  29.411  57.108  1.00  0.00     0.018 A 
HETATM   37  O   UNL     1       9.104  28.627  54.142  1.00  0.00    -0.267 OA
HETATM   38  C   UNL     1       9.030  29.883  58.397  1.00  0.00     0.001 A 
HETATM   39  C   UNL     1       7.713  30.189  58.805  1.00  0.00     0.001 A 
ENDBRANCH  28  29
ENDBRANCH   3  28
TORSDOF 6
ENDMDL
MODEL 8
REMARK VINA RESULT:     -10.1      1.873      8.421
REMARK  6 active torsions:
REMARK  status: ('A' for Active; 'I' for Inactive)
REMARK    1  A    between atoms: C_7  and  C_8 
REMARK    2  A    between atoms: C_8  and  C_9 
REMARK    3  A    between atoms: C_9  and  N_10 
REMARK    4  A    between atoms: C_12  and  C_13 
REMARK    5  A    between atoms: C_13  and  N_14 
REMARK    6  A    between atoms: C_36  and  O_37 
ROOT
HETATM    1  N   UNL     1       5.539  28.382  55.721  1.00  0.00    -0.054 N 
HETATM    2  H   UNL     1       4.577  28.005  55.762  1.00  0.00     0.281 HD
HETATM    3  C   UNL     1       5.426  29.617  56.625  1.00  0.00     0.240 C 
HETATM    4  C   UNL     1       4.326  30.519  56.077  1.00  0.00    -0.020 A 
HETATM    5  C   UNL     1       4.000  30.516  54.703  1.00  0.00    -0.048 A 
HETATM    6  C   UNL     1       4.628  29.546  53.732  1.00  0.00     0.067 C 
HETATM    7  C   UNL     1       5.810  28.756  54.291  1.00  0.00     0.241 C 
HETATM    8  C   UNL     1       3.648  31.394  56.943  1.00  0.00     0.010 A 
HETATM    9  C   UNL     1       2.667  32.255  56.453  1.00  0.00     0.001 A 
HETATM   10  C   UNL     1       2.348  32.251  55.099  1.00  0.00     0.001 A 
HETATM   11  C   UNL     1       3.007  31.385  54.229  1.00  0.00     0.008 A 
ENDROOT
BRANCH   1  12
HETATM   12  C   UNL     1       6.364  27.198  56.219  1.00  0.00     0.319 C 
BRANCH  12  13
HETATM   13  C   UNL     1       5.676  25.856  56.015  1.00  0.00     0.188 C 
HETATM   14  O   UNL     1       4.809  25.528  56.831  1.00  0.00    -0.290 OA
BRANCH  13  15
HETATM   15  C   UNL     1       6.021  25.040  54.848  1.00  0.00     0.046 A 
HETATM   16  C   UNL     1       5.470  25.228  53.583  1.00  0.00     0.020 A 
HETATM   17  C   UNL     1       4.441  26.188  53.092  1.00  0.00     0.069 C 
HETATM   18  N   UNL     1       6.052  24.332  52.726  1.00  0.00    -0.358 N 
HETATM   19  H   UNL     1       5.853  24.258  51.735  1.00  0.00     0.166 HD
HETATM   20  C   UNL     1       6.954  23.543  53.394  1.00  0.00     0.043 A 
HETATM   21  C   UNL     1       6.953  23.943  54.731  1.00  0.00     0.009 A 
HETATM   22  C   UNL     1       7.769  22.518  52.901  1.00  0.00     0.033 A 
HETATM   23  C   UNL     1       7.818  23.247  55.608  1.00  0.00     0.051 A 
HETATM   24  C   UNL     1       8.633  22.203  55.142  1.00  0.00     0.069 A 
HETATM   25  C   UNL     1       8.611  21.852  53.798  1.00  0.00     0.039 A 
BRANCH  24  26
HETATM   26  O   UNL     1       9.397  21.620  56.117  1.00  0.00    -0.356 OA
HETATM   27  C   UNL     1       9.365  20.198  56.196  1.00  0.00     0.210 C 
ENDBRANCH  24  26
ENDBRANCH  13  15
ENDBRANCH  12  13
ENDBRANCH   1  12
BRANCH   3  28
HETATM   28  C   UNL     1       6.730  30.463  56.763  1.00  0.00     0.173 C 
BRANCH  28  29
HETATM   29  N   UNL     1       7.131  30.795  58.117  1.00  0.00    -0.278 N 
HETATM   30  C   UNL     1       6.714  31.902  58.800  1.00  0.00     0.261 A 
HETATM   31  O   UNL     1       6.075  32.839  58.362  1.00  0.00    -0.267 OA
HETATM   32  C   UNL     1       7.339  31.836  60.122  1.00  0.00     0.048 A 
HETATM   33  C   UNL     1       8.154  30.713  60.141  1.00  0.00     0.048 A 
HETATM   34  C   UNL     1       7.270  32.708  61.188  1.00  0.00     0.018 A 
HETATM   35  C   UNL     1       8.039  30.067  58.835  1.00  0.00     0.261 A 
HETATM   36  C   UNL     1       8.938  30.396  61.230  1.00  0.00     0.018 A 
HETATM   37  O   UNL     1       8.698  29.125  58.442  1.00  0.00    -0.267 OA
HETATM   38  C   UNL     1       8.876  31.258  62.329  1.00  0.00     0.001 A 
HETATM   39  C   UNL     1       8.051  32.404  62.308  1.00  0.00     0.001 A 
ENDBRANCH  28  29
ENDBRANCH   3  28
TORSDOF 6
ENDMDL
MODEL 9
REMARK VINA RESULT:      -9.8      1.810      2.828
REMARK  6 active torsions:
REMARK  status: ('A' for Active; 'I' for Inactive)
REMARK    1  A    between atoms: C_7  and  C_8 
REMARK    2  A    between atoms: C_8  and  C_9 
REMARK    3  A    between atoms: C_9  and  N_10 
REMARK    4  A    between atoms: C_12  and  C_13 
REMARK    5  A    between atoms: C_13  and  N_14 
REMARK    6  A    between atoms: C_36  and  O_37 
ROOT
HETATM    1  N   UNL     1       5.794  29.112  54.363  1.00  0.00    -0.054 N 
HETATM    2  H   UNL     1       6.173  29.808  53.699  1.00  0.00     0.281 HD
HETATM    3  C   UNL     1       5.892  27.817  53.544  1.00  0.00     0.240 C 
HETATM    4  C   UNL     1       5.113  28.004  52.248  1.00  0.00    -0.020 A 
HETATM    5  C   UNL     1       4.024  28.901  52.176  1.00  0.00    -0.048 A 
HETATM    6  C   UNL     1       3.651  29.803  53.327  1.00  0.00     0.067 C 
HETATM    7  C   UNL     1       4.366  29.493  54.641  1.00  0.00     0.241 C 
HETATM    8  C   UNL     1       5.457  27.249  51.114  1.00  0.00     0.010 A 
HETATM    9  C   UNL     1       4.731  27.377  49.930  1.00  0.00     0.001 A 
HETATM   10  C   UNL     1       3.658  28.260  49.862  1.00  0.00     0.001 A 
HETATM   11  C   UNL     1       3.307  29.020  50.976  1.00  0.00     0.008 A 
ENDROOT
BRANCH   1  12
HETATM   12  C   UNL     1       6.724  29.279  55.562  1.00  0.00     0.319 C 
BRANCH  12  13
HETATM   13  C   UNL     1       5.988  29.333  56.892  1.00  0.00     0.188 C 
HETATM   14  O   UNL     1       5.459  28.293  57.297  1.00  0.00    -0.290 OA
BRANCH  13  15
HETATM   15  C   UNL     1       5.981  30.582  57.661  1.00  0.00     0.046 A 
HETATM   16  C   UNL     1       6.933  30.901  58.625  1.00  0.00     0.020 A 
HETATM   17  C   UNL     1       8.102  30.135  59.144  1.00  0.00     0.069 C 
HETATM   18  N   UNL     1       6.655  32.155  59.102  1.00  0.00    -0.358 N 
HETATM   19  H   UNL     1       7.198  32.647  59.801  1.00  0.00     0.166 HD
HETATM   20  C   UNL     1       5.534  32.661  58.496  1.00  0.00     0.043 A 
HETATM   21  C   UNL     1       5.070  31.700  57.597  1.00  0.00     0.009 A 
HETATM   22  C   UNL     1       4.913  33.903  58.679  1.00  0.00     0.033 A 
HETATM   23  C   UNL     1       3.904  32.020  56.862  1.00  0.00     0.051 A 
HETATM   24  C   UNL     1       3.253  33.251  57.040  1.00  0.00     0.069 A 
HETATM   25  C   UNL     1       3.763  34.183  57.935  1.00  0.00     0.039 A 
BRANCH  24  26
HETATM   26  O   UNL     1       2.132  33.400  56.269  1.00  0.00    -0.356 OA
HETATM   27  C   UNL     1       1.570  34.707  56.196  1.00  0.00     0.210 C 
ENDBRANCH  24  26
ENDBRANCH  13  15
ENDBRANCH  12  13
ENDBRANCH   1  12
BRANCH   3  28
HETATM   28  C   UNL     1       5.356  26.536  54.257  1.00  0.00     0.173 C 
BRANCH  28  29
HETATM   29  N   UNL     1       6.257  25.399  54.278  1.00  0.00    -0.278 N 
HETATM   30  C   UNL     1       7.258  25.220  55.191  1.00  0.00     0.261 A 
HETATM   31  O   UNL     1       7.647  26.018  56.021  1.00  0.00    -0.267 OA
HETATM   32  C   UNL     1       7.901  23.948  54.860  1.00  0.00     0.048 A 
HETATM   33  C   UNL     1       7.285  23.455  53.718  1.00  0.00     0.048 A 
HETATM   34  C   UNL     1       8.973  23.308  55.446  1.00  0.00     0.018 A 
HETATM   35  C   UNL     1       6.249  24.412  53.332  1.00  0.00     0.261 A 
HETATM   36  C   UNL     1       7.701  22.292  53.106  1.00  0.00     0.018 A 
HETATM   37  O   UNL     1       5.584  24.376  52.316  1.00  0.00    -0.267 OA
HETATM   38  C   UNL     1       8.778  21.618  53.689  1.00  0.00     0.001 A 
HETATM   39  C   UNL     1       9.409  22.122  54.847  1.00  0.00     0.001 A 
ENDBRANCH  28  29
ENDBRANCH   3  28
TORSDOF 6
ENDMDL
MODEL 10
REMARK VINA RESULT:      -9.8      2.230      5.445
REMARK  6 active torsions:
REMARK  status: ('A' for Active; 'I' for Inactive)
REMARK    1  A    between atoms: C_7  and  C_8 
REMARK    2  A    between atoms: C_8  and  C_9 
REMARK    3  A    between atoms: C_9  and  N_10 
REMARK    4  A    between atoms: C_12  and  C_13 
REMARK    5  A    between atoms: C_13  and  N_14 
REMARK    6  A    between atoms: C_36  and  O_37 
ROOT
HETATM    1  N   UNL     1       6.223  27.068  56.536  1.00  0.00    -0.054 N 
HETATM    2  H   UNL     1       5.797  26.376  57.177  1.00  0.00     0.281 HD
HETATM    3  C   UNL     1       6.238  26.293  55.210  1.00  0.00     0.240 C 
HETATM    4  C   UNL     1       7.015  24.998  55.415  1.00  0.00    -0.020 A 
HETATM    5  C   UNL     1       8.029  24.905  56.393  1.00  0.00    -0.048 A 
HETATM    6  C   UNL     1       8.315  26.027  57.361  1.00  0.00     0.067 C 
HETATM    7  C   UNL     1       7.612  27.344  57.040  1.00  0.00     0.241 C 
HETATM    8  C   UNL     1       6.746  23.889  54.596  1.00  0.00     0.010 A 
HETATM    9  C   UNL     1       7.472  22.708  54.742  1.00  0.00     0.001 A 
HETATM   10  C   UNL     1       8.472  22.618  55.705  1.00  0.00     0.001 A 
HETATM   11  C   UNL     1       8.748  23.708  56.529  1.00  0.00     0.008 A 
ENDROOT
BRANCH   1  12
HETATM   12  C   UNL     1       5.269  28.251  56.668  1.00  0.00     0.319 C 
BRANCH  12  13
HETATM   13  C   UNL     1       5.975  29.598  56.667  1.00  0.00     0.188 C 
HETATM   14  O   UNL     1       6.871  29.774  55.835  1.00  0.00    -0.290 OA
BRANCH  13  15
HETATM   15  C   UNL     1       5.539  30.642  57.599  1.00  0.00     0.046 A 
HETATM   16  C   UNL     1       4.285  31.245  57.552  1.00  0.00     0.020 A 
HETATM   17  C   UNL     1       3.141  31.062  56.614  1.00  0.00     0.069 C 
HETATM   18  N   UNL     1       4.196  32.129  58.595  1.00  0.00    -0.358 N 
HETATM   19  H   UNL     1       3.384  32.694  58.814  1.00  0.00     0.166 HD
HETATM   20  C   UNL     1       5.364  32.142  59.314  1.00  0.00     0.043 A 
HETATM   21  C   UNL     1       6.238  31.236  58.713  1.00  0.00     0.009 A 
HETATM   22  C   UNL     1       5.693  32.886  60.454  1.00  0.00     0.033 A 
HETATM   23  C   UNL     1       7.519  31.098  59.299  1.00  0.00     0.051 A 
HETATM   24  C   UNL     1       7.880  31.845  60.432  1.00  0.00     0.069 A 
HETATM   25  C   UNL     1       6.968  32.723  61.004  1.00  0.00     0.039 A 
BRANCH  24  26
HETATM   26  O   UNL     1       9.157  31.609  60.867  1.00  0.00    -0.356 OA
HETATM   27  C   UNL     1       9.354  30.466  61.693  1.00  0.00     0.210 C 
ENDBRANCH  24  26
ENDBRANCH  13  15
ENDBRANCH  12  13
ENDBRANCH   1  12
BRANCH   3  28
HETATM   28  C   UNL     1       6.866  27.055  54.002  1.00  0.00     0.173 C 
BRANCH  28  29
HETATM   29  N   UNL     1       6.034  27.163  52.818  1.00  0.00    -0.278 N 
HETATM   30  C   UNL     1       6.067  26.292  51.766  1.00  0.00     0.261 A 
HETATM   31  O   UNL     1       6.867  25.395  51.578  1.00  0.00    -0.267 OA
HETATM   32  C   UNL     1       5.064  26.758  50.808  1.00  0.00     0.048 A 
HETATM   33  C   UNL     1       4.519  27.930  51.313  1.00  0.00     0.048 A 
HETATM   34  C   UNL     1       4.705  26.258  49.573  1.00  0.00     0.018 A 
HETATM   35  C   UNL     1       5.172  28.200  52.593  1.00  0.00     0.261 A 
HETATM   36  C   UNL     1       3.580  28.661  50.617  1.00  0.00     0.018 A 
HETATM   37  O   UNL     1       5.039  29.201  53.268  1.00  0.00    -0.267 OA
HETATM   38  C   UNL     1       3.191  28.168  49.368  1.00  0.00     0.001 A 
HETATM   39  C   UNL     1       3.749  26.979  48.851  1.00  0.00     0.001 A 
ENDBRANCH  28  29
ENDBRANCH   3  28
TORSDOF 6
ENDMDL
