MODEL 1
REMARK VINA RESULT:      -9.8      0.000      0.000
REMARK  10 active torsions:
REMARK  status: ('A' for Active; 'I' for Inactive)
REMARK    1  A    between atoms: C_2  and  N_3 
REMARK    2  A    between atoms: N_3  and  C_5 
REMARK    3  A    between atoms: N_3  and  C_35 
REMARK    4  A    between atoms: C_5  and  C_6 
REMARK    5  A    between atoms: C_6  and  N_7 
REMARK       I    between atoms: N_7  and  C_8 
REMARK    6  A    between atoms: C_8  and  C_9 
REMARK    7  A    between atoms: N_15  and  C_16 
REMARK    8  A    between atoms: C_16  and  C_17 
REMARK       I    between atoms: C_17  and  N_18 
REMARK    9  A    between atoms: N_18  and  C_19 
REMARK   10  A    between atoms: C_21  and  C_22 
ROOT
HETATM    1  C   UNL     1       4.740  28.114  51.924  1.00  0.00     0.081 A 
HETATM    2  S   UNL     1       4.341  29.149  53.234  1.00  0.00    -0.063 SA
HETATM    3  C   UNL     1       4.706  27.963  54.390  1.00  0.00     0.116 A 
HETATM    4  C   UNL     1       5.103  26.780  53.807  1.00  0.00     0.075 A 
HETATM    5  C   UNL     1       5.506  25.703  54.705  1.00  0.00     0.262 C 
HETATM    6  O   UNL     1       5.813  24.582  54.307  1.00  0.00    -0.267 OA
HETATM    7  N   UNL     1       5.552  26.069  56.045  1.00  0.00    -0.299 N 
HETATM    8  C   UNL     1       5.061  27.284  56.481  1.00  0.00     0.214 C 
HETATM    9  N   UNL     1       4.630  28.234  55.716  1.00  0.00    -0.235 NA
HETATM   10  C   UNL     1       5.107  26.840  52.359  1.00  0.00    -0.021 A 
HETATM   11  C   UNL     1       5.534  25.704  51.479  1.00  0.00     0.051 C 
ENDROOT
BRANCH   7  12
HETATM   12  C   UNL     1       6.135  25.135  56.996  1.00  0.00     0.236 C 
BRANCH  12  13
HETATM   13  C   UNL     1       7.615  25.432  57.237  1.00  0.00     0.240 C 
HETATM   14  N   UNL     1       8.562  24.615  56.675  1.00  0.00    -0.326 N 
HETATM   15  H   UNL     1       9.458  25.075  56.552  1.00  0.00     0.169 HD
HETATM   16  O   UNL     1       7.978  26.494  57.751  1.00  0.00    -0.271 OA
BRANCH  14  17
HETATM   17  C   UNL     1       8.484  23.272  56.275  1.00  0.00     0.035 A 
HETATM   18  C   UNL     1       8.401  22.883  54.934  1.00  0.00     0.045 A 
HETATM   19  C   UNL     1       8.288  21.527  54.583  1.00  0.00     0.050 A 
HETATM   20  C   UNL     1       8.254  20.561  55.601  1.00  0.00     0.016 A 
HETATM   21  C   UNL     1       8.296  20.948  56.939  1.00  0.00     0.003 A 
HETATM   22  C   UNL     1       8.387  22.301  57.274  1.00  0.00     0.029 A 
BRANCH  19  23
HETATM   23  C   UNL     1       8.179  21.100  53.139  1.00  0.00     0.417 C 
HETATM   24  F   UNL     1       9.259  20.396  52.697  1.00  0.00    -0.166 F 
HETATM   25  F   UNL     1       7.101  20.300  52.916  1.00  0.00    -0.166 F 
HETATM   26  F   UNL     1       8.049  22.155  52.289  1.00  0.00    -0.166 F 
ENDBRANCH  19  23
ENDBRANCH  14  17
ENDBRANCH  12  13
ENDBRANCH   7  12
BRANCH   1  27
HETATM   27  C   UNL     1       4.707  28.702  50.592  1.00  0.00     0.259 C 
HETATM   28  N   UNL     1       3.487  28.672  49.937  1.00  0.00    -0.355 N 
HETATM   29  H   UNL     1       2.659  28.564  50.514  1.00  0.00     0.162 HD
HETATM   30  O   UNL     1       5.681  29.183  50.013  1.00  0.00    -0.267 OA
BRANCH  28  31
HETATM   31  C   UNL     1       3.359  29.215  48.597  1.00  0.00     0.150 C 
BRANCH  31  32
HETATM   32  C   UNL     1       3.309  28.114  47.513  1.00  0.00     0.254 C 
BRANCH  32  33
HETATM   33  N   UNL     1       2.448  26.911  47.876  1.00  0.00    -0.070 N 
HETATM   34  H   UNL     1       2.659  26.729  48.867  1.00  0.00     0.279 HD
BRANCH  33  35
HETATM   35  C   UNL     1       2.829  25.629  47.151  1.00  0.00     0.230 C 
HETATM   36  C   UNL     1       3.023  24.476  48.118  1.00  0.00     0.034 C 
ENDBRANCH  33  35
BRANCH  33  37
HETATM   37  C   UNL     1       0.952  27.147  47.816  1.00  0.00     0.230 C 
HETATM   38  C   UNL     1       0.507  27.564  46.425  1.00  0.00     0.034 C 
ENDBRANCH  33  37
ENDBRANCH  32  33
ENDBRANCH  31  32
ENDBRANCH  28  31
ENDBRANCH   1  27
TORSDOF 10
ENDMDL
MODEL 2
REMARK VINA RESULT:      -9.3      4.951      9.161
REMARK  10 active torsions:
REMARK  status: ('A' for Active; 'I' for Inactive)
REMARK    1  A    between atoms: C_2  and  N_3 
REMARK    2  A    between atoms: N_3  and  C_5 
REMARK    3  A    between atoms: N_3  and  C_35 
REMARK    4  A    between atoms: C_5  and  C_6 
REMARK    5  A    between atoms: C_6  and  N_7 
REMARK       I    between atoms: N_7  and  C_8 
REMARK    6  A    between atoms: C_8  and  C_9 
REMARK    7  A    between atoms: N_15  and  C_16 
REMARK    8  A    between atoms: C_16  and  C_17 
REMARK       I    between atoms: C_17  and  N_18 
REMARK    9  A    between atoms: N_18  and  C_19 
REMARK   10  A    between atoms: C_21  and  C_22 
ROOT
HETATM    1  C   UNL     1       7.819  30.629  58.580  1.00  0.00     0.081 A 
HETATM    2  S   UNL     1       6.207  31.135  58.278  1.00  0.00    -0.063 SA
HETATM    3  C   UNL     1       6.147  30.335  56.785  1.00  0.00     0.116 A 
HETATM    4  C   UNL     1       7.337  29.707  56.489  1.00  0.00     0.075 A 
HETATM    5  C   UNL     1       7.384  28.929  55.255  1.00  0.00     0.262 C 
HETATM    6  O   UNL     1       8.407  28.382  54.850  1.00  0.00    -0.267 OA
HETATM    7  N   UNL     1       6.162  28.826  54.602  1.00  0.00    -0.299 N 
HETATM    8  C   UNL     1       5.066  29.570  54.994  1.00  0.00     0.214 C 
HETATM    9  N   UNL     1       5.013  30.325  56.043  1.00  0.00    -0.235 NA
HETATM   10  C   UNL     1       8.339  29.887  57.519  1.00  0.00    -0.021 A 
HETATM   11  C   UNL     1       9.708  29.278  57.465  1.00  0.00     0.051 C 
ENDROOT
BRANCH   7  12
HETATM   12  C   UNL     1       6.055  27.908  53.478  1.00  0.00     0.236 C 
BRANCH  12  13
HETATM   13  C   UNL     1       4.808  27.030  53.588  1.00  0.00     0.240 C 
HETATM   14  N   UNL     1       4.837  25.926  54.400  1.00  0.00    -0.326 N 
HETATM   15  H   UNL     1       3.915  25.643  54.715  1.00  0.00     0.169 HD
HETATM   16  O   UNL     1       3.724  27.400  53.128  1.00  0.00    -0.271 OA
BRANCH  14  17
HETATM   17  C   UNL     1       5.918  25.141  54.832  1.00  0.00     0.035 A 
HETATM   18  C   UNL     1       6.468  24.116  54.057  1.00  0.00     0.045 A 
HETATM   19  C   UNL     1       7.527  23.333  54.547  1.00  0.00     0.050 A 
HETATM   20  C   UNL     1       8.027  23.590  55.832  1.00  0.00     0.016 A 
HETATM   21  C   UNL     1       7.455  24.586  56.622  1.00  0.00     0.003 A 
HETATM   22  C   UNL     1       6.388  25.342  56.131  1.00  0.00     0.029 A 
BRANCH  19  23
HETATM   23  C   UNL     1       8.115  22.211  53.723  1.00  0.00     0.417 C 
HETATM   24  F   UNL     1       9.461  22.069  53.879  1.00  0.00    -0.166 F 
HETATM   25  F   UNL     1       7.577  21.001  54.040  1.00  0.00    -0.166 F 
HETATM   26  F   UNL     1       7.910  22.378  52.388  1.00  0.00    -0.166 F 
ENDBRANCH  19  23
ENDBRANCH  14  17
ENDBRANCH  12  13
ENDBRANCH   7  12
BRANCH   1  27
HETATM   27  C   UNL     1       8.382  30.974  59.879  1.00  0.00     0.259 C 
HETATM   28  N   UNL     1       7.546  30.818  60.972  1.00  0.00    -0.355 N 
HETATM   29  H   UNL     1       6.757  30.190  60.860  1.00  0.00     0.162 HD
HETATM   30  O   UNL     1       9.518  31.414  60.056  1.00  0.00    -0.267 OA
BRANCH  28  31
HETATM   31  C   UNL     1       8.010  31.156  62.305  1.00  0.00     0.150 C 
BRANCH  31  32
HETATM   32  C   UNL     1       7.461  32.513  62.800  1.00  0.00     0.254 C 
BRANCH  32  33
HETATM   33  N   UNL     1       6.047  32.452  63.366  1.00  0.00    -0.070 N 
HETATM   34  H   UNL     1       5.904  31.460  63.603  1.00  0.00     0.279 HD
BRANCH  33  35
HETATM   35  C   UNL     1       4.956  32.777  62.359  1.00  0.00     0.230 C 
HETATM   36  C   UNL     1       5.440  33.753  61.303  1.00  0.00     0.034 C 
ENDBRANCH  33  35
BRANCH  33  37
HETATM   37  C   UNL     1       5.838  33.213  64.661  1.00  0.00     0.230 C 
HETATM   38  C   UNL     1       7.143  33.773  65.197  1.00  0.00     0.034 C 
ENDBRANCH  33  37
ENDBRANCH  32  33
ENDBRANCH  31  32
ENDBRANCH  28  31
ENDBRANCH   1  27
TORSDOF 10
ENDMDL
MODEL 3
REMARK VINA RESULT:      -9.1      5.299      9.092
REMARK  10 active torsions:
REMARK  status: ('A' for Active; 'I' for Inactive)
REMARK    1  A    between atoms: C_2  and  N_3 
REMARK    2  A    between atoms: N_3  and  C_5 
REMARK    3  A    between atoms: N_3  and  C_35 
REMARK    4  A    between atoms: C_5  and  C_6 
REMARK    5  A    between atoms: C_6  and  N_7 
REMARK       I    between atoms: N_7  and  C_8 
REMARK    6  A    between atoms: C_8  and  C_9 
REMARK    7  A    between atoms: N_15  and  C_16 
REMARK    8  A    between atoms: C_16  and  C_17 
REMARK       I    between atoms: C_17  and  N_18 
REMARK    9  A    between atoms: N_18  and  C_19 
REMARK   10  A    between atoms: C_21  and  C_22 
ROOT
HETATM    1  C   UNL     1       6.376  30.467  58.273  1.00  0.00     0.081 A 
HETATM    2  S   UNL     1       7.864  29.687  58.624  1.00  0.00    -0.063 SA
HETATM    3  C   UNL     1       7.481  28.343  57.663  1.00  0.00     0.116 A 
HETATM    4  C   UNL     1       6.231  28.455  57.095  1.00  0.00     0.075 A 
HETATM    5  C   UNL     1       5.817  27.386  56.193  1.00  0.00     0.262 C 
HETATM    6  O   UNL     1       4.701  27.339  55.682  1.00  0.00    -0.267 OA
HETATM    7  N   UNL     1       6.810  26.449  55.931  1.00  0.00    -0.299 N 
HETATM    8  C   UNL     1       8.000  26.440  56.631  1.00  0.00     0.214 C 
HETATM    9  N   UNL     1       8.369  27.334  57.490  1.00  0.00    -0.235 NA
HETATM   10  C   UNL     1       5.556  29.684  57.460  1.00  0.00    -0.021 A 
HETATM   11  C   UNL     1       4.201  30.073  56.951  1.00  0.00     0.051 C 
ENDROOT
BRANCH   7  12
HETATM   12  C   UNL     1       6.568  25.461  54.891  1.00  0.00     0.236 C 
BRANCH  12  13
HETATM   13  C   UNL     1       7.574  25.594  53.747  1.00  0.00     0.240 C 
HETATM   14  N   UNL     1       7.971  24.468  53.072  1.00  0.00    -0.326 N 
HETATM   15  H   UNL     1       8.303  24.667  52.134  1.00  0.00     0.169 HD
HETATM   16  O   UNL     1       7.879  26.699  53.290  1.00  0.00    -0.271 OA
BRANCH  14  17
HETATM   17  C   UNL     1       8.003  23.125  53.479  1.00  0.00     0.035 A 
HETATM   18  C   UNL     1       8.189  22.741  54.810  1.00  0.00     0.045 A 
HETATM   19  C   UNL     1       8.251  21.382  55.165  1.00  0.00     0.050 A 
HETATM   20  C   UNL     1       8.127  20.410  54.162  1.00  0.00     0.016 A 
HETATM   21  C   UNL     1       7.981  20.790  52.829  1.00  0.00     0.003 A 
HETATM   22  C   UNL     1       7.944  22.144  52.488  1.00  0.00     0.029 A 
BRANCH  19  23
HETATM   23  C   UNL     1       8.471  20.958  56.599  1.00  0.00     0.417 C 
HETATM   24  F   UNL     1       9.625  20.261  56.789  1.00  0.00    -0.166 F 
HETATM   25  F   UNL     1       8.536  22.021  57.447  1.00  0.00    -0.166 F 
HETATM   26  F   UNL     1       7.472  20.161  57.068  1.00  0.00    -0.166 F 
ENDBRANCH  19  23
ENDBRANCH  14  17
ENDBRANCH  12  13
ENDBRANCH   7  12
BRANCH   1  27
HETATM   27  C   UNL     1       6.204  31.815  58.797  1.00  0.00     0.259 C 
HETATM   28  N   UNL     1       6.098  31.931  60.173  1.00  0.00    -0.355 N 
HETATM   29  H   UNL     1       6.467  31.166  60.727  1.00  0.00     0.162 HD
HETATM   30  O   UNL     1       6.117  32.831  58.105  1.00  0.00    -0.267 OA
BRANCH  28  31
HETATM   31  C   UNL     1       5.903  33.233  60.787  1.00  0.00     0.150 C 
BRANCH  31  32
HETATM   32  C   UNL     1       5.067  33.157  62.085  1.00  0.00     0.254 C 
BRANCH  32  33
HETATM   33  N   UNL     1       5.554  34.072  63.203  1.00  0.00    -0.070 N 
HETATM   34  H   UNL     1       6.474  34.407  62.883  1.00  0.00     0.279 HD
BRANCH  33  35
HETATM   35  C   UNL     1       5.831  33.360  64.517  1.00  0.00     0.230 C 
HETATM   36  C   UNL     1       7.300  33.424  64.891  1.00  0.00     0.034 C 
ENDBRANCH  33  35
BRANCH  33  37
HETATM   37  C   UNL     1       4.722  35.319  63.423  1.00  0.00     0.230 C 
HETATM   38  C   UNL     1       5.572  36.576  63.364  1.00  0.00     0.034 C 
ENDBRANCH  33  37
ENDBRANCH  32  33
ENDBRANCH  31  32
ENDBRANCH  28  31
ENDBRANCH   1  27
TORSDOF 10
ENDMDL
MODEL 4
REMARK VINA RESULT:      -9.0      5.478      9.396
REMARK  10 active torsions:
REMARK  status: ('A' for Active; 'I' for Inactive)
REMARK    1  A    between atoms: C_2  and  N_3 
REMARK    2  A    between atoms: N_3  and  C_5 
REMARK    3  A    between atoms: N_3  and  C_35 
REMARK    4  A    between atoms: C_5  and  C_6 
REMARK    5  A    between atoms: C_6  and  N_7 
REMARK       I    between atoms: N_7  and  C_8 
REMARK    6  A    between atoms: C_8  and  C_9 
REMARK    7  A    between atoms: N_15  and  C_16 
REMARK    8  A    between atoms: C_16  and  C_17 
REMARK       I    between atoms: C_17  and  N_18 
REMARK    9  A    between atoms: N_18  and  C_19 
REMARK   10  A    between atoms: C_21  and  C_22 
ROOT
HETATM    1  C   UNL     1       5.731  31.813  58.752  1.00  0.00     0.081 A 
HETATM    2  S   UNL     1       4.518  30.994  57.856  1.00  0.00    -0.063 SA
HETATM    3  C   UNL     1       5.608  29.823  57.293  1.00  0.00     0.116 A 
HETATM    4  C   UNL     1       6.888  30.049  57.748  1.00  0.00     0.075 A 
HETATM    5  C   UNL     1       7.903  29.068  57.381  1.00  0.00     0.262 C 
HETATM    6  O   UNL     1       9.091  29.196  57.668  1.00  0.00    -0.267 OA
HETATM    7  N   UNL     1       7.402  27.955  56.716  1.00  0.00    -0.299 N 
HETATM    8  C   UNL     1       6.094  27.903  56.275  1.00  0.00     0.214 C 
HETATM    9  N   UNL     1       5.186  28.791  56.522  1.00  0.00    -0.235 NA
HETATM   10  C   UNL     1       6.987  31.227  58.587  1.00  0.00    -0.021 A 
HETATM   11  C   UNL     1       8.257  31.679  59.242  1.00  0.00     0.051 C 
ENDROOT
BRANCH   7  12
HETATM   12  C   UNL     1       8.293  26.828  56.487  1.00  0.00     0.236 C 
BRANCH  12  13
HETATM   13  C   UNL     1       7.966  25.657  57.414  1.00  0.00     0.240 C 
HETATM   14  N   UNL     1       8.012  24.379  56.919  1.00  0.00    -0.326 N 
HETATM   15  H   UNL     1       8.168  23.682  57.640  1.00  0.00     0.169 HD
HETATM   16  O   UNL     1       7.860  25.818  58.634  1.00  0.00    -0.271 OA
BRANCH  14  17
HETATM   17  C   UNL     1       7.861  23.905  55.607  1.00  0.00     0.035 A 
HETATM   18  C   UNL     1       8.066  22.568  55.256  1.00  0.00     0.045 A 
HETATM   19  C   UNL     1       7.938  22.146  53.921  1.00  0.00     0.050 A 
HETATM   20  C   UNL     1       7.605  23.091  52.938  1.00  0.00     0.016 A 
HETATM   21  C   UNL     1       7.439  24.432  53.279  1.00  0.00     0.003 A 
HETATM   22  C   UNL     1       7.590  24.840  54.605  1.00  0.00     0.029 A 
BRANCH  19  23
HETATM   23  C   UNL     1       8.176  20.707  53.529  1.00  0.00     0.417 C 
HETATM   24  F   UNL     1       9.336  20.514  52.842  1.00  0.00    -0.166 F 
HETATM   25  F   UNL     1       8.245  19.883  54.610  1.00  0.00    -0.166 F 
HETATM   26  F   UNL     1       7.187  20.209  52.738  1.00  0.00    -0.166 F 
ENDBRANCH  19  23
ENDBRANCH  14  17
ENDBRANCH  12  13
ENDBRANCH   7  12
BRANCH   1  27
HETATM   27  C   UNL     1       5.293  32.927  59.582  1.00  0.00     0.259 C 
HETATM   28  N   UNL     1       5.328  32.724  60.951  1.00  0.00    -0.355 N 
HETATM   29  H   UNL     1       5.940  31.989  61.291  1.00  0.00     0.162 HD
HETATM   30  O   UNL     1       4.873  34.001  59.150  1.00  0.00    -0.267 OA
BRANCH  28  31
HETATM   31  C   UNL     1       4.890  33.769  61.860  1.00  0.00     0.150 C 
BRANCH  31  32
HETATM   32  C   UNL     1       6.070  34.470  62.570  1.00  0.00     0.254 C 
BRANCH  32  33
HETATM   33  N   UNL     1       6.165  34.185  64.064  1.00  0.00    -0.070 N 
HETATM   34  H   UNL     1       6.169  35.114  64.507  1.00  0.00     0.279 HD
BRANCH  33  35
HETATM   35  C   UNL     1       7.472  33.538  64.495  1.00  0.00     0.230 C 
HETATM   36  C   UNL     1       7.907  32.456  63.526  1.00  0.00     0.034 C 
ENDBRANCH  33  35
BRANCH  33  37
HETATM   37  C   UNL     1       4.975  33.458  64.659  1.00  0.00     0.230 C 
HETATM   38  C   UNL     1       4.657  33.956  66.057  1.00  0.00     0.034 C 
ENDBRANCH  33  37
ENDBRANCH  32  33
ENDBRANCH  31  32
ENDBRANCH  28  31
ENDBRANCH   1  27
TORSDOF 10
ENDMDL
MODEL 5
REMARK VINA RESULT:      -9.0      5.461      9.631
REMARK  10 active torsions:
REMARK  status: ('A' for Active; 'I' for Inactive)
REMARK    1  A    between atoms: C_2  and  N_3 
REMARK    2  A    between atoms: N_3  and  C_5 
REMARK    3  A    between atoms: N_3  and  C_35 
REMARK    4  A    between atoms: C_5  and  C_6 
REMARK    5  A    between atoms: C_6  and  N_7 
REMARK       I    between atoms: N_7  and  C_8 
REMARK    6  A    between atoms: C_8  and  C_9 
REMARK    7  A    between atoms: N_15  and  C_16 
REMARK    8  A    between atoms: C_16  and  C_17 
REMARK       I    between atoms: C_17  and  N_18 
REMARK    9  A    between atoms: N_18  and  C_19 
REMARK   10  A    between atoms: C_21  and  C_22 
ROOT
HETATM    1  C   UNL     1       6.962  31.026  58.621  1.00  0.00     0.081 A 
HETATM    2  S   UNL     1       7.984  29.652  58.503  1.00  0.00    -0.063 SA
HETATM    3  C   UNL     1       7.264  29.137  57.057  1.00  0.00     0.116 A 
HETATM    4  C   UNL     1       6.240  29.970  56.666  1.00  0.00     0.075 A 
HETATM    5  C   UNL     1       5.585  29.663  55.398  1.00  0.00     0.262 C 
HETATM    6  O   UNL     1       4.616  30.291  54.978  1.00  0.00    -0.267 OA
HETATM    7  N   UNL     1       6.181  28.627  54.689  1.00  0.00    -0.299 N 
HETATM    8  C   UNL     1       7.172  27.843  55.247  1.00  0.00     0.214 C 
HETATM    9  N   UNL     1       7.724  28.044  56.400  1.00  0.00    -0.235 NA
HETATM   10  C   UNL     1       6.030  31.072  57.583  1.00  0.00    -0.021 A 
HETATM   11  C   UNL     1       5.004  32.145  57.375  1.00  0.00     0.051 C 
ENDROOT
BRANCH   7  12
HETATM   12  C   UNL     1       5.735  28.377  53.327  1.00  0.00     0.236 C 
BRANCH  12  13
HETATM   13  C   UNL     1       4.517  27.453  53.297  1.00  0.00     0.240 C 
HETATM   14  N   UNL     1       4.694  26.107  53.487  1.00  0.00    -0.326 N 
HETATM   15  H   UNL     1       3.861  25.643  53.833  1.00  0.00     0.169 HD
HETATM   16  O   UNL     1       3.369  27.908  53.309  1.00  0.00    -0.271 OA
BRANCH  14  17
HETATM   17  C   UNL     1       5.818  25.296  53.263  1.00  0.00     0.035 A 
HETATM   18  C   UNL     1       6.349  24.449  54.240  1.00  0.00     0.045 A 
HETATM   19  C   UNL     1       7.499  23.683  53.980  1.00  0.00     0.050 A 
HETATM   20  C   UNL     1       8.112  23.781  52.722  1.00  0.00     0.016 A 
HETATM   21  C   UNL     1       7.608  24.653  51.759  1.00  0.00     0.003 A 
HETATM   22  C   UNL     1       6.478  25.425  52.039  1.00  0.00     0.029 A 
BRANCH  19  23
HETATM   23  C   UNL     1       8.091  22.780  55.036  1.00  0.00     0.417 C 
HETATM   24  F   UNL     1       8.902  23.430  55.916  1.00  0.00    -0.166 F 
HETATM   25  F   UNL     1       7.135  22.174  55.793  1.00  0.00    -0.166 F 
HETATM   26  F   UNL     1       8.844  21.777  54.506  1.00  0.00    -0.166 F 
ENDBRANCH  19  23
ENDBRANCH  14  17
ENDBRANCH  12  13
ENDBRANCH   7  12
BRANCH   1  27
HETATM   27  C   UNL     1       7.235  31.955  59.708  1.00  0.00     0.259 C 
HETATM   28  N   UNL     1       6.242  32.093  60.663  1.00  0.00    -0.355 N 
HETATM   29  H   UNL     1       5.569  31.337  60.739  1.00  0.00     0.162 HD
HETATM   30  O   UNL     1       8.258  32.633  59.811  1.00  0.00    -0.267 OA
BRANCH  28  31
HETATM   31  C   UNL     1       6.414  33.012  61.774  1.00  0.00     0.150 C 
BRANCH  31  32
HETATM   32  C   UNL     1       6.244  32.323  63.147  1.00  0.00     0.254 C 
BRANCH  32  33
HETATM   33  N   UNL     1       5.099  32.870  63.990  1.00  0.00    -0.070 N 
HETATM   34  H   UNL     1       4.568  32.037  64.280  1.00  0.00     0.279 HD
BRANCH  33  35
HETATM   35  C   UNL     1       4.104  33.720  63.216  1.00  0.00     0.230 C 
HETATM   36  C   UNL     1       3.694  34.954  63.999  1.00  0.00     0.034 C 
ENDBRANCH  33  35
BRANCH  33  37
HETATM   37  C   UNL     1       5.515  33.554  65.277  1.00  0.00     0.230 C 
HETATM   38  C   UNL     1       7.024  33.686  65.377  1.00  0.00     0.034 C 
ENDBRANCH  33  37
ENDBRANCH  32  33
ENDBRANCH  31  32
ENDBRANCH  28  31
ENDBRANCH   1  27
TORSDOF 10
ENDMDL
MODEL 6
REMARK VINA RESULT:      -8.9      4.885      8.913
REMARK  10 active torsions:
REMARK  status: ('A' for Active; 'I' for Inactive)
REMARK    1  A    between atoms: C_2  and  N_3 
REMARK    2  A    between atoms: N_3  and  C_5 
REMARK    3  A    between atoms: N_3  and  C_35 
REMARK    4  A    between atoms: C_5  and  C_6 
REMARK    5  A    between atoms: C_6  and  N_7 
REMARK       I    between atoms: N_7  and  C_8 
REMARK    6  A    between atoms: C_8  and  C_9 
REMARK    7  A    between atoms: N_15  and  C_16 
REMARK    8  A    between atoms: C_16  and  C_17 
REMARK       I    between atoms: C_17  and  N_18 
REMARK    9  A    between atoms: N_18  and  C_19 
REMARK   10  A    between atoms: C_21  and  C_22 
ROOT
HETATM    1  C   UNL     1       7.124  29.710  57.524  1.00  0.00     0.081 A 
HETATM    2  S   UNL     1       5.447  29.388  57.349  1.00  0.00    -0.063 SA
HETATM    3  C   UNL     1       5.656  28.696  55.815  1.00  0.00     0.116 A 
HETATM    4  C   UNL     1       6.973  28.725  55.412  1.00  0.00     0.075 A 
HETATM    5  C   UNL     1       7.286  28.098  54.132  1.00  0.00     0.262 C 
HETATM    6  O   UNL     1       8.409  28.120  53.635  1.00  0.00    -0.267 OA
HETATM    7  N   UNL     1       6.212  27.438  53.546  1.00  0.00    -0.299 N 
HETATM    8  C   UNL     1       4.930  27.554  54.047  1.00  0.00     0.214 C 
HETATM    9  N   UNL     1       4.608  28.163  55.141  1.00  0.00    -0.235 NA
HETATM   10  C   UNL     1       7.848  29.337  56.391  1.00  0.00    -0.021 A 
HETATM   11  C   UNL     1       9.331  29.462  56.220  1.00  0.00     0.051 C 
ENDROOT
BRANCH   7  12
HETATM   12  C   UNL     1       6.465  26.612  52.375  1.00  0.00     0.236 C 
BRANCH  12  13
HETATM   13  C   UNL     1       5.542  25.394  52.339  1.00  0.00     0.240 C 
HETATM   14  N   UNL     1       5.631  24.457  53.336  1.00  0.00    -0.326 N 
HETATM   15  H   UNL     1       4.775  23.926  53.457  1.00  0.00     0.169 HD
HETATM   16  O   UNL     1       4.590  25.337  51.555  1.00  0.00    -0.271 OA
BRANCH  14  17
HETATM   17  C   UNL     1       6.704  24.120  54.176  1.00  0.00     0.035 A 
HETATM   18  C   UNL     1       6.964  24.784  55.378  1.00  0.00     0.045 A 
HETATM   19  C   UNL     1       8.073  24.436  56.168  1.00  0.00     0.050 A 
HETATM   20  C   UNL     1       8.924  23.409  55.732  1.00  0.00     0.016 A 
HETATM   21  C   UNL     1       8.690  22.772  54.515  1.00  0.00     0.003 A 
HETATM   22  C   UNL     1       7.597  23.144  53.729  1.00  0.00     0.029 A 
BRANCH  19  23
HETATM   23  C   UNL     1       8.371  25.160  57.460  1.00  0.00     0.417 C 
HETATM   24  F   UNL     1       7.256  25.504  58.162  1.00  0.00    -0.166 F 
HETATM   25  F   UNL     1       9.127  24.412  58.309  1.00  0.00    -0.166 F 
HETATM   26  F   UNL     1       9.059  26.319  57.263  1.00  0.00    -0.166 F 
ENDBRANCH  19  23
ENDBRANCH  14  17
ENDBRANCH  12  13
ENDBRANCH   7  12
BRANCH   1  27
HETATM   27  C   UNL     1       7.557  30.248  58.807  1.00  0.00     0.259 C 
HETATM   28  N   UNL     1       6.914  31.395  59.241  1.00  0.00    -0.355 N 
HETATM   29  H   UNL     1       6.003  31.589  58.840  1.00  0.00     0.162 HD
HETATM   30  O   UNL     1       8.461  29.775  59.496  1.00  0.00    -0.267 OA
BRANCH  28  31
HETATM   31  C   UNL     1       7.291  32.017  60.498  1.00  0.00     0.150 C 
BRANCH  31  32
HETATM   32  C   UNL     1       6.387  31.580  61.672  1.00  0.00     0.254 C 
BRANCH  32  33
HETATM   33  N   UNL     1       5.838  32.730  62.507  1.00  0.00    -0.070 N 
HETATM   34  H   UNL     1       5.423  32.277  63.334  1.00  0.00     0.279 HD
BRANCH  33  35
HETATM   35  C   UNL     1       4.690  33.484  61.854  1.00  0.00     0.230 C 
HETATM   36  C   UNL     1       4.995  34.965  61.724  1.00  0.00     0.034 C 
ENDBRANCH  33  35
BRANCH  33  37
HETATM   37  C   UNL     1       6.880  33.688  63.050  1.00  0.00     0.230 C 
HETATM   38  C   UNL     1       7.639  33.085  64.219  1.00  0.00     0.034 C 
ENDBRANCH  33  37
ENDBRANCH  32  33
ENDBRANCH  31  32
ENDBRANCH  28  31
ENDBRANCH   1  27
TORSDOF 10
ENDMDL
MODEL 7
REMARK VINA RESULT:      -8.8      1.283      2.084
REMARK  10 active torsions:
REMARK  status: ('A' for Active; 'I' for Inactive)
REMARK    1  A    between atoms: C_2  and  N_3 
REMARK    2  A    between atoms: N_3  and  C_5 
REMARK    3  A    between atoms: N_3  and  C_35 
REMARK    4  A    between atoms: C_5  and  C_6 
REMARK    5  A    between atoms: C_6  and  N_7 
REMARK       I    between atoms: N_7  and  C_8 
REMARK    6  A    between atoms: C_8  and  C_9 
REMARK    7  A    between atoms: N_15  and  C_16 
REMARK    8  A    between atoms: C_16  and  C_17 
REMARK       I    between atoms: C_17  and  N_18 
REMARK    9  A    between atoms: N_18  and  C_19 
REMARK   10  A    between atoms: C_21  and  C_22 
ROOT
HETATM    1  C   UNL     1       4.410  28.882  52.129  1.00  0.00     0.081 A 
HETATM    2  S   UNL     1       4.187  29.894  53.497  1.00  0.00    -0.063 SA
HETATM    3  C   UNL     1       4.517  28.635  54.585  1.00  0.00     0.116 A 
HETATM    4  C   UNL     1       4.770  27.446  53.937  1.00  0.00     0.075 A 
HETATM    5  C   UNL     1       5.130  26.303  54.769  1.00  0.00     0.262 C 
HETATM    6  O   UNL     1       5.311  25.176  54.313  1.00  0.00    -0.267 OA
HETATM    7  N   UNL     1       5.293  26.610  56.115  1.00  0.00    -0.299 N 
HETATM    8  C   UNL     1       4.941  27.845  56.624  1.00  0.00     0.214 C 
HETATM    9  N   UNL     1       4.548  28.858  55.922  1.00  0.00    -0.235 NA
HETATM   10  C   UNL     1       4.689  27.564  52.495  1.00  0.00    -0.021 A 
HETATM   11  C   UNL     1       4.956  26.431  51.550  1.00  0.00     0.051 C 
ENDROOT
BRANCH   7  12
HETATM   12  C   UNL     1       5.849  25.592  56.992  1.00  0.00     0.236 C 
BRANCH  12  13
HETATM   13  C   UNL     1       7.325  25.856  57.293  1.00  0.00     0.240 C 
HETATM   14  N   UNL     1       8.281  25.334  56.460  1.00  0.00    -0.326 N 
HETATM   15  H   UNL     1       9.154  25.850  56.489  1.00  0.00     0.169 HD
HETATM   16  O   UNL     1       7.665  26.687  58.140  1.00  0.00    -0.271 OA
BRANCH  14  17
HETATM   17  C   UNL     1       8.239  24.214  55.615  1.00  0.00     0.035 A 
HETATM   18  C   UNL     1       8.336  22.902  56.089  1.00  0.00     0.045 A 
HETATM   19  C   UNL     1       8.326  21.813  55.201  1.00  0.00     0.050 A 
HETATM   20  C   UNL     1       8.221  22.059  53.824  1.00  0.00     0.016 A 
HETATM   21  C   UNL     1       8.163  23.367  53.345  1.00  0.00     0.003 A 
HETATM   22  C   UNL     1       8.197  24.440  54.238  1.00  0.00     0.029 A 
BRANCH  19  23
HETATM   23  C   UNL     1       8.449  20.394  55.703  1.00  0.00     0.417 C 
HETATM   24  F   UNL     1       9.429  20.229  56.634  1.00  0.00    -0.166 F 
HETATM   25  F   UNL     1       7.303  19.952  56.289  1.00  0.00    -0.166 F 
HETATM   26  F   UNL     1       8.729  19.509  54.707  1.00  0.00    -0.166 F 
ENDBRANCH  19  23
ENDBRANCH  14  17
ENDBRANCH  12  13
ENDBRANCH   7  12
BRANCH   1  27
HETATM   27  C   UNL     1       4.345  29.522  50.823  1.00  0.00     0.259 C 
HETATM   28  N   UNL     1       3.451  28.980  49.915  1.00  0.00    -0.355 N 
HETATM   29  H   UNL     1       2.693  28.423  50.296  1.00  0.00     0.162 HD
HETATM   30  O   UNL     1       5.044  30.475  50.474  1.00  0.00    -0.267 OA
BRANCH  28  31
HETATM   31  C   UNL     1       3.330  29.537  48.580  1.00  0.00     0.150 C 
BRANCH  31  32
HETATM   32  C   UNL     1       3.666  28.510  47.475  1.00  0.00     0.254 C 
BRANCH  32  33
HETATM   33  N   UNL     1       2.474  27.691  46.994  1.00  0.00    -0.070 N 
HETATM   34  H   UNL     1       2.725  27.404  46.038  1.00  0.00     0.279 HD
BRANCH  33  35
HETATM   35  C   UNL     1       1.188  28.487  46.841  1.00  0.00     0.230 C 
HETATM   36  C   UNL     1       0.076  27.646  46.244  1.00  0.00     0.034 C 
ENDBRANCH  33  35
BRANCH  33  37
HETATM   37  C   UNL     1       2.230  26.402  47.754  1.00  0.00     0.230 C 
HETATM   38  C   UNL     1       3.496  25.572  47.869  1.00  0.00     0.034 C 
ENDBRANCH  33  37
ENDBRANCH  32  33
ENDBRANCH  31  32
ENDBRANCH  28  31
ENDBRANCH   1  27
TORSDOF 10
ENDMDL
MODEL 8
REMARK VINA RESULT:      -8.7      1.586      2.216
REMARK  10 active torsions:
REMARK  status: ('A' for Active; 'I' for Inactive)
REMARK    1  A    between atoms: C_2  and  N_3 
REMARK    2  A    between atoms: N_3  and  C_5 
REMARK    3  A    between atoms: N_3  and  C_35 
REMARK    4  A    between atoms: C_5  and  C_6 
REMARK    5  A    between atoms: C_6  and  N_7 
REMARK       I    between atoms: N_7  and  C_8 
REMARK    6  A    between atoms: C_8  and  C_9 
REMARK    7  A    between atoms: N_15  and  C_16 
REMARK    8  A    between atoms: C_16  and  C_17 
REMARK       I    between atoms: C_17  and  N_18 
REMARK    9  A    between atoms: N_18  and  C_19 
REMARK   10  A    between atoms: C_21  and  C_22 
ROOT
HETATM    1  C   UNL     1       4.261  28.412  52.150  1.00  0.00     0.081 A 
HETATM    2  S   UNL     1       4.980  27.001  51.489  1.00  0.00    -0.063 SA
HETATM    3  C   UNL     1       5.492  26.450  53.009  1.00  0.00     0.116 A 
HETATM    4  C   UNL     1       5.153  27.326  54.016  1.00  0.00     0.075 A 
HETATM    5  C   UNL     1       5.485  26.926  55.379  1.00  0.00     0.262 C 
HETATM    6  O   UNL     1       5.296  27.652  56.353  1.00  0.00    -0.267 OA
HETATM    7  N   UNL     1       5.995  25.637  55.484  1.00  0.00    -0.299 N 
HETATM    8  C   UNL     1       6.336  24.901  54.367  1.00  0.00     0.214 C 
HETATM    9  N   UNL     1       6.121  25.257  53.142  1.00  0.00    -0.235 NA
HETATM   10  C   UNL     1       4.450  28.496  53.530  1.00  0.00    -0.021 A 
HETATM   11  C   UNL     1       3.935  29.587  54.419  1.00  0.00     0.051 C 
ENDROOT
BRANCH   7  12
HETATM   12  C   UNL     1       6.166  25.070  56.813  1.00  0.00     0.236 C 
BRANCH  12  13
HETATM   13  C   UNL     1       7.593  25.264  57.325  1.00  0.00     0.240 C 
HETATM   14  N   UNL     1       8.578  24.410  56.900  1.00  0.00    -0.326 N 
HETATM   15  H   UNL     1       9.506  24.817  56.959  1.00  0.00     0.169 HD
HETATM   16  O   UNL     1       7.917  26.281  57.945  1.00  0.00    -0.271 OA
BRANCH  14  17
HETATM   17  C   UNL     1       8.499  23.090  56.429  1.00  0.00     0.035 A 
HETATM   18  C   UNL     1       8.415  22.774  55.070  1.00  0.00     0.045 A 
HETATM   19  C   UNL     1       8.300  21.438  54.647  1.00  0.00     0.050 A 
HETATM   20  C   UNL     1       8.266  20.420  55.612  1.00  0.00     0.016 A 
HETATM   21  C   UNL     1       8.310  20.735  56.969  1.00  0.00     0.003 A 
HETATM   22  C   UNL     1       8.401  22.068  57.375  1.00  0.00     0.029 A 
BRANCH  19  23
HETATM   23  C   UNL     1       8.190  21.089  53.182  1.00  0.00     0.417 C 
HETATM   24  F   UNL     1       8.059  22.175  52.371  1.00  0.00    -0.166 F 
HETATM   25  F   UNL     1       9.285  20.419  52.728  1.00  0.00    -0.166 F 
HETATM   26  F   UNL     1       7.121  20.292  52.912  1.00  0.00    -0.166 F 
ENDBRANCH  19  23
ENDBRANCH  14  17
ENDBRANCH  12  13
ENDBRANCH   7  12
BRANCH   1  27
HETATM   27  C   UNL     1       3.523  29.265  51.228  1.00  0.00     0.259 C 
HETATM   28  N   UNL     1       4.263  30.208  50.536  1.00  0.00    -0.355 N 
HETATM   29  H   UNL     1       5.260  30.038  50.454  1.00  0.00     0.162 HD
HETATM   30  O   UNL     1       2.304  29.220  51.054  1.00  0.00    -0.267 OA
BRANCH  28  31
HETATM   31  C   UNL     1       3.613  31.118  49.610  1.00  0.00     0.150 C 
BRANCH  31  32
HETATM   32  C   UNL     1       3.706  30.639  48.144  1.00  0.00     0.254 C 
BRANCH  32  33
HETATM   33  N   UNL     1       3.622  29.128  47.968  1.00  0.00    -0.070 N 
HETATM   34  H   UNL     1       3.413  28.767  48.909  1.00  0.00     0.279 HD
BRANCH  33  35
HETATM   35  C   UNL     1       4.936  28.470  47.576  1.00  0.00     0.230 C 
HETATM   36  C   UNL     1       4.849  26.957  47.651  1.00  0.00     0.034 C 
ENDBRANCH  33  35
BRANCH  33  37
HETATM   37  C   UNL     1       2.487  28.643  47.087  1.00  0.00     0.230 C 
HETATM   38  C   UNL     1       1.264  28.270  47.905  1.00  0.00     0.034 C 
ENDBRANCH  33  37
ENDBRANCH  32  33
ENDBRANCH  31  32
ENDBRANCH  28  31
ENDBRANCH   1  27
TORSDOF 10
ENDMDL
MODEL 9
REMARK VINA RESULT:      -8.6      6.888     10.891
REMARK  10 active torsions:
REMARK  status: ('A' for Active; 'I' for Inactive)
REMARK    1  A    between atoms: C_2  and  N_3 
REMARK    2  A    between atoms: N_3  and  C_5 
REMARK    3  A    between atoms: N_3  and  C_35 
REMARK    4  A    between atoms: C_5  and  C_6 
REMARK    5  A    between atoms: C_6  and  N_7 
REMARK       I    between atoms: N_7  and  C_8 
REMARK    6  A    between atoms: C_8  and  C_9 
REMARK    7  A    between atoms: N_15  and  C_16 
REMARK    8  A    between atoms: C_16  and  C_17 
REMARK       I    between atoms: C_17  and  N_18 
REMARK    9  A    between atoms: N_18  and  C_19 
REMARK   10  A    between atoms: C_21  and  C_22 
ROOT
HETATM    1  C   UNL     1       6.606  33.012  61.387  1.00  0.00     0.081 A 
HETATM    2  S   UNL     1       5.416  33.039  60.150  1.00  0.00    -0.063 SA
HETATM    3  C   UNL     1       6.261  31.919  59.198  1.00  0.00     0.116 A 
HETATM    4  C   UNL     1       7.448  31.537  59.783  1.00  0.00     0.075 A 
HETATM    5  C   UNL     1       8.233  30.524  59.085  1.00  0.00     0.262 C 
HETATM    6  O   UNL     1       9.339  30.153  59.471  1.00  0.00    -0.267 OA
HETATM    7  N   UNL     1       7.601  29.986  57.969  1.00  0.00    -0.299 N 
HETATM    8  C   UNL     1       6.430  30.522  57.472  1.00  0.00     0.214 C 
HETATM    9  N   UNL     1       5.746  31.469  58.028  1.00  0.00    -0.235 NA
HETATM   10  C   UNL     1       7.680  32.185  61.058  1.00  0.00    -0.021 A 
HETATM   11  C   UNL     1       8.877  31.920  61.921  1.00  0.00     0.051 C 
ENDROOT
BRANCH   7  12
HETATM   12  C   UNL     1       8.207  28.831  57.324  1.00  0.00     0.236 C 
BRANCH  12  13
HETATM   13  C   UNL     1       8.880  29.215  56.006  1.00  0.00     0.240 C 
HETATM   14  N   UNL     1       8.234  28.955  54.825  1.00  0.00    -0.326 N 
HETATM   15  H   UNL     1       8.537  29.560  54.068  1.00  0.00     0.169 HD
HETATM   16  O   UNL     1       9.887  29.929  55.987  1.00  0.00    -0.271 OA
BRANCH  14  17
HETATM   17  C   UNL     1       7.260  27.994  54.512  1.00  0.00     0.035 A 
HETATM   18  C   UNL     1       7.578  26.676  54.173  1.00  0.00     0.045 A 
HETATM   19  C   UNL     1       6.569  25.757  53.832  1.00  0.00     0.050 A 
HETATM   20  C   UNL     1       5.233  26.184  53.831  1.00  0.00     0.016 A 
HETATM   21  C   UNL     1       4.916  27.507  54.130  1.00  0.00     0.003 A 
HETATM   22  C   UNL     1       5.930  28.414  54.445  1.00  0.00     0.029 A 
BRANCH  19  23
HETATM   23  C   UNL     1       6.905  24.336  53.446  1.00  0.00     0.417 C 
HETATM   24  F   UNL     1       7.065  23.506  54.514  1.00  0.00    -0.166 F 
HETATM   25  F   UNL     1       5.936  23.767  52.678  1.00  0.00    -0.166 F 
HETATM   26  F   UNL     1       8.058  24.246  52.728  1.00  0.00    -0.166 F 
ENDBRANCH  19  23
ENDBRANCH  14  17
ENDBRANCH  12  13
ENDBRANCH   7  12
BRANCH   1  27
HETATM   27  C   UNL     1       6.314  33.774  62.593  1.00  0.00     0.259 C 
HETATM   28  N   UNL     1       6.013  35.114  62.416  1.00  0.00    -0.355 N 
HETATM   29  H   UNL     1       5.693  35.394  61.495  1.00  0.00     0.162 HD
HETATM   30  O   UNL     1       6.350  33.318  63.736  1.00  0.00    -0.267 OA
BRANCH  28  31
HETATM   31  C   UNL     1       5.729  35.961  63.561  1.00  0.00     0.150 C 
BRANCH  31  32
HETATM   32  C   UNL     1       4.222  36.013  63.901  1.00  0.00     0.254 C 
BRANCH  32  33
HETATM   33  N   UNL     1       3.694  34.775  64.616  1.00  0.00    -0.070 N 
HETATM   34  H   UNL     1       4.473  34.104  64.584  1.00  0.00     0.279 HD
BRANCH  33  35
HETATM   35  C   UNL     1       2.548  34.081  63.898  1.00  0.00     0.230 C 
HETATM   36  C   UNL     1       2.371  34.607  62.485  1.00  0.00     0.034 C 
ENDBRANCH  33  35
BRANCH  33  37
HETATM   37  C   UNL     1       3.381  34.965  66.087  1.00  0.00     0.230 C 
HETATM   38  C   UNL     1       4.380  34.238  66.969  1.00  0.00     0.034 C 
ENDBRANCH  33  37
ENDBRANCH  32  33
ENDBRANCH  31  32
ENDBRANCH  28  31
ENDBRANCH   1  27
TORSDOF 10
ENDMDL
MODEL 10
REMARK VINA RESULT:      -8.6      5.341      9.419
REMARK  10 active torsions:
REMARK  status: ('A' for Active; 'I' for Inactive)
REMARK    1  A    between atoms: C_2  and  N_3 
REMARK    2  A    between atoms: N_3  and  C_5 
REMARK    3  A    between atoms: N_3  and  C_35 
REMARK    4  A    between atoms: C_5  and  C_6 
REMARK    5  A    between atoms: C_6  and  N_7 
REMARK       I    between atoms: N_7  and  C_8 
REMARK    6  A    between atoms: C_8  and  C_9 
REMARK    7  A    between atoms: N_15  and  C_16 
REMARK    8  A    between atoms: C_16  and  C_17 
REMARK       I    between atoms: C_17  and  N_18 
REMARK    9  A    between atoms: N_18  and  C_19 
REMARK   10  A    between atoms: C_21  and  C_22 
ROOT
HETATM    1  C   UNL     1       6.971  30.973  58.785  1.00  0.00     0.081 A 
HETATM    2  S   UNL     1       8.396  30.055  58.511  1.00  0.00    -0.063 SA
HETATM    3  C   UNL     1       7.750  29.311  57.131  1.00  0.00     0.116 A 
HETATM    4  C   UNL     1       6.459  29.721  56.880  1.00  0.00     0.075 A 
HETATM    5  C   UNL     1       5.820  29.195  55.678  1.00  0.00     0.262 C 
HETATM    6  O   UNL     1       4.651  29.433  55.385  1.00  0.00    -0.267 OA
HETATM    7  N   UNL     1       6.662  28.437  54.873  1.00  0.00    -0.299 N 
HETATM    8  C   UNL     1       7.922  28.061  55.296  1.00  0.00     0.214 C 
HETATM    9  N   UNL     1       8.492  28.452  56.390  1.00  0.00    -0.235 NA
HETATM   10  C   UNL     1       5.975  30.680  57.853  1.00  0.00    -0.021 A 
HETATM   11  C   UNL     1       4.618  31.314  57.793  1.00  0.00     0.051 C 
ENDROOT
BRANCH   7  12
HETATM   12  C   UNL     1       6.185  28.039  53.558  1.00  0.00     0.236 C 
BRANCH  12  13
HETATM   13  C   UNL     1       4.863  27.277  53.649  1.00  0.00     0.240 C 
HETATM   14  N   UNL     1       4.791  26.152  54.430  1.00  0.00    -0.326 N 
HETATM   15  H   UNL     1       3.848  25.946  54.741  1.00  0.00     0.169 HD
HETATM   16  O   UNL     1       3.816  27.758  53.204  1.00  0.00    -0.271 OA
BRANCH  14  17
HETATM   17  C   UNL     1       5.796  25.260  54.835  1.00  0.00     0.035 A 
HETATM   18  C   UNL     1       6.402  24.353  53.961  1.00  0.00     0.045 A 
HETATM   19  C   UNL     1       7.379  23.453  54.422  1.00  0.00     0.050 A 
HETATM   20  C   UNL     1       7.738  23.473  55.778  1.00  0.00     0.016 A 
HETATM   21  C   UNL     1       7.108  24.349  56.659  1.00  0.00     0.003 A 
HETATM   22  C   UNL     1       6.123  25.222  56.193  1.00  0.00     0.029 A 
BRANCH  19  23
HETATM   23  C   UNL     1       8.026  22.457  53.488  1.00  0.00     0.417 C 
HETATM   24  F   UNL     1       7.443  21.226  53.516  1.00  0.00    -0.166 F 
HETATM   25  F   UNL     1       7.977  22.860  52.189  1.00  0.00    -0.166 F 
HETATM   26  F   UNL     1       9.341  22.251  53.771  1.00  0.00    -0.166 F 
ENDBRANCH  19  23
ENDBRANCH  14  17
ENDBRANCH  12  13
ENDBRANCH   7  12
BRANCH   1  27
HETATM   27  C   UNL     1       7.016  31.943  59.870  1.00  0.00     0.259 C 
HETATM   28  N   UNL     1       5.870  32.059  60.639  1.00  0.00    -0.355 N 
HETATM   29  H   UNL     1       5.228  31.273  60.626  1.00  0.00     0.162 HD
HETATM   30  O   UNL     1       7.976  32.673  60.120  1.00  0.00    -0.267 OA
BRANCH  28  31
HETATM   31  C   UNL     1       5.811  33.014  61.731  1.00  0.00     0.150 C 
BRANCH  31  32
HETATM   32  C   UNL     1       5.588  32.337  63.101  1.00  0.00     0.254 C 
BRANCH  32  33
HETATM   33  N   UNL     1       4.777  33.166  64.090  1.00  0.00    -0.070 N 
HETATM   34  H   UNL     1       4.032  32.533  64.411  1.00  0.00     0.279 HD
BRANCH  33  35
HETATM   35  C   UNL     1       4.049  34.346  63.467  1.00  0.00     0.230 C 
HETATM   36  C   UNL     1       2.561  34.080  63.335  1.00  0.00     0.034 C 
ENDBRANCH  33  35
BRANCH  33  37
HETATM   37  C   UNL     1       5.522  33.584  65.343  1.00  0.00     0.230 C 
HETATM   38  C   UNL     1       7.025  33.511  65.150  1.00  0.00     0.034 C 
ENDBRANCH  33  37
ENDBRANCH  32  33
ENDBRANCH  31  32
ENDBRANCH  28  31
ENDBRANCH   1  27
TORSDOF 10
ENDMDL
