MODEL 1
REMARK VINA RESULT:     -10.4      0.000      0.000
REMARK  5 active torsions:
REMARK  status: ('A' for Active; 'I' for Inactive)
REMARK    1  A    between atoms: C_11  and  N_12 
REMARK    2  A    between atoms: N_12  and  N_13 
REMARK       I    between atoms: N_13  and  C_14 
REMARK    3  A    between atoms: C_14  and  C_15 
REMARK    4  A    between atoms: C_15  and  C_16 
REMARK    5  A    between atoms: N_23  and  C_24 
ROOT
HETATM    1  C   UNL     1       9.110  30.414  60.718  1.00  0.00     0.046 C 
HETATM    2  C   UNL     1       8.384  30.737  59.405  1.00  0.00     0.058 C 
HETATM    3  C   UNL     1       9.317  31.598  58.537  1.00  0.00     0.046 C 
HETATM    4  O   UNL     1       7.197  31.471  59.782  1.00  0.00    -0.376 OA
HETATM    5  C   UNL     1       6.358  31.911  58.696  1.00  0.00     0.215 C 
HETATM    6  C   UNL     1       6.168  30.792  57.725  1.00  0.00     0.016 A 
HETATM    7  C   UNL     1       6.917  29.633  57.690  1.00  0.00    -0.021 A 
HETATM    8  C   UNL     1       6.488  28.766  56.637  1.00  0.00     0.077 A 
HETATM    9  C   UNL     1       5.465  29.312  55.901  1.00  0.00     0.133 A 
HETATM   10  N   UNL     1       4.827  28.742  54.855  1.00  0.00    -0.054 NA
HETATM   11  C   UNL     1       5.240  27.543  54.508  1.00  0.00     0.730 A 
HETATM   12  N   UNL     1       6.331  26.894  55.138  1.00  0.00    -0.107 N 
HETATM   13  C   UNL     1       6.978  27.455  56.259  1.00  0.00     0.280 A 
HETATM   14  O   UNL     1       7.906  26.938  56.877  1.00  0.00    -0.266 OA
HETATM   15  S   UNL     1       5.007  30.852  56.483  1.00  0.00    -0.071 SA
HETATM   16  C   UNL     1       7.997  29.406  58.703  1.00  0.00     0.078 C 
ENDROOT
BRANCH  11  17
HETATM   17  N   UNL     1       4.510  26.888  53.529  1.00  0.00    -0.127 N 
HETATM   18  H   UNL     1       4.410  25.873  53.534  1.00  0.00     0.206 HD
BRANCH  17  19
HETATM   19  N   UNL     1       4.532  27.448  52.242  1.00  0.00    -0.255 N 
HETATM   20  C   UNL     1       4.838  26.587  51.206  1.00  0.00     0.240 C 
HETATM   21  O   UNL     1       4.963  25.373  51.380  1.00  0.00    -0.272 OA
HETATM   22  H   UNL     1       4.743  28.446  52.213  1.00  0.00     0.190 HD
BRANCH  20  23
HETATM   23  C   UNL     1       4.968  27.255  49.850  1.00  0.00     0.143 C 
BRANCH  23  24
HETATM   24  C   UNL     1       3.778  27.053  48.941  1.00  0.00    -0.049 A 
HETATM   25  C   UNL     1       2.641  27.867  49.047  1.00  0.00     0.007 A 
HETATM   26  C   UNL     1       1.565  27.703  48.172  1.00  0.00     0.001 A 
HETATM   27  C   UNL     1       1.618  26.735  47.173  1.00  0.00     0.000 A 
HETATM   28  C   UNL     1       2.746  25.928  47.050  1.00  0.00     0.001 A 
HETATM   29  C   UNL     1       3.821  26.085  47.927  1.00  0.00     0.007 A 
ENDBRANCH  23  24
ENDBRANCH  20  23
ENDBRANCH  17  19
ENDBRANCH  11  17
BRANCH  12  30
HETATM   30  C   UNL     1       6.855  25.662  54.624  1.00  0.00     0.060 A 
HETATM   31  C   UNL     1       6.603  24.446  55.277  1.00  0.00     0.030 A 
HETATM   32  C   UNL     1       7.110  23.248  54.771  1.00  0.00     0.002 A 
HETATM   33  C   UNL     1       7.886  23.250  53.614  1.00  0.00     0.000 A 
HETATM   34  C   UNL     1       8.164  24.451  52.967  1.00  0.00     0.002 A 
HETATM   35  C   UNL     1       7.658  25.651  53.472  1.00  0.00     0.030 A 
ENDBRANCH  12  30
TORSDOF 5
ENDMDL
MODEL 2
REMARK VINA RESULT:      -9.9      2.583      8.007
REMARK  5 active torsions:
REMARK  status: ('A' for Active; 'I' for Inactive)
REMARK    1  A    between atoms: C_11  and  N_12 
REMARK    2  A    between atoms: N_12  and  N_13 
REMARK       I    between atoms: N_13  and  C_14 
REMARK    3  A    between atoms: C_14  and  C_15 
REMARK    4  A    between atoms: C_15  and  C_16 
REMARK    5  A    between atoms: N_23  and  C_24 
ROOT
HETATM    1  C   UNL     1       3.381  29.601  48.378  1.00  0.00     0.046 C 
HETATM    2  C   UNL     1       4.262  28.588  49.121  1.00  0.00     0.058 C 
HETATM    3  C   UNL     1       5.712  28.765  48.640  1.00  0.00     0.046 C 
HETATM    4  O   UNL     1       3.750  27.283  48.766  1.00  0.00    -0.376 OA
HETATM    5  C   UNL     1       4.447  26.157  49.333  1.00  0.00     0.215 C 
HETATM    6  C   UNL     1       4.695  26.400  50.785  1.00  0.00     0.016 A 
HETATM    7  C   UNL     1       4.572  27.620  51.420  1.00  0.00    -0.021 A 
HETATM    8  C   UNL     1       4.886  27.519  52.811  1.00  0.00     0.077 A 
HETATM    9  C   UNL     1       5.265  26.247  53.165  1.00  0.00     0.133 A 
HETATM   10  N   UNL     1       5.605  25.819  54.400  1.00  0.00    -0.054 NA
HETATM   11  C   UNL     1       5.574  26.721  55.355  1.00  0.00     0.730 A 
HETATM   12  N   UNL     1       5.267  28.083  55.115  1.00  0.00    -0.107 N 
HETATM   13  C   UNL     1       4.867  28.538  53.842  1.00  0.00     0.280 A 
HETATM   14  O   UNL     1       4.554  29.694  53.565  1.00  0.00    -0.266 OA
HETATM   15  S   UNL     1       5.226  25.173  51.837  1.00  0.00    -0.071 SA
HETATM   16  C   UNL     1       4.123  28.825  50.651  1.00  0.00     0.078 C 
ENDROOT
BRANCH  11  17
HETATM   17  N   UNL     1       5.786  26.272  56.650  1.00  0.00    -0.127 N 
HETATM   18  H   UNL     1       6.062  26.912  57.393  1.00  0.00     0.206 HD
BRANCH  17  19
HETATM   19  N   UNL     1       6.313  24.978  56.791  1.00  0.00    -0.255 N 
HETATM   20  C   UNL     1       7.685  24.890  56.933  1.00  0.00     0.240 C 
HETATM   21  O   UNL     1       8.395  25.890  57.053  1.00  0.00    -0.272 OA
HETATM   22  H   UNL     1       5.751  24.238  56.370  1.00  0.00     0.190 HD
BRANCH  20  23
HETATM   23  C   UNL     1       8.224  23.472  56.964  1.00  0.00     0.143 C 
BRANCH  23  24
HETATM   24  C   UNL     1       8.097  22.731  55.654  1.00  0.00    -0.049 A 
HETATM   25  C   UNL     1       8.265  23.392  54.429  1.00  0.00     0.007 A 
HETATM   26  C   UNL     1       8.192  22.690  53.224  1.00  0.00     0.001 A 
HETATM   27  C   UNL     1       7.964  21.317  53.229  1.00  0.00     0.000 A 
HETATM   28  C   UNL     1       7.807  20.645  54.439  1.00  0.00     0.001 A 
HETATM   29  C   UNL     1       7.873  21.346  55.645  1.00  0.00     0.007 A 
ENDBRANCH  23  24
ENDBRANCH  20  23
ENDBRANCH  17  19
ENDBRANCH  11  17
BRANCH  12  30
HETATM   30  C   UNL     1       5.405  29.066  56.152  1.00  0.00     0.060 A 
HETATM   31  C   UNL     1       4.279  29.568  56.820  1.00  0.00     0.030 A 
HETATM   32  C   UNL     1       4.417  30.520  57.832  1.00  0.00     0.002 A 
HETATM   33  C   UNL     1       5.680  30.993  58.179  1.00  0.00     0.000 A 
HETATM   34  C   UNL     1       6.806  30.521  57.510  1.00  0.00     0.002 A 
HETATM   35  C   UNL     1       6.670  29.570  56.497  1.00  0.00     0.030 A 
ENDBRANCH  12  30
TORSDOF 5
ENDMDL
MODEL 3
REMARK VINA RESULT:      -9.8      1.925      8.916
REMARK  5 active torsions:
REMARK  status: ('A' for Active; 'I' for Inactive)
REMARK    1  A    between atoms: C_11  and  N_12 
REMARK    2  A    between atoms: N_12  and  N_13 
REMARK       I    between atoms: N_13  and  C_14 
REMARK    3  A    between atoms: C_14  and  C_15 
REMARK    4  A    between atoms: C_15  and  C_16 
REMARK    5  A    between atoms: N_23  and  C_24 
ROOT
HETATM    1  C   UNL     1       2.451  26.372  46.883  1.00  0.00     0.046 C 
HETATM    2  C   UNL     1       2.716  27.363  48.024  1.00  0.00     0.058 C 
HETATM    3  C   UNL     1       1.392  27.611  48.766  1.00  0.00     0.046 C 
HETATM    4  O   UNL     1       3.195  28.573  47.393  1.00  0.00    -0.376 OA
HETATM    5  C   UNL     1       3.490  29.671  48.278  1.00  0.00     0.215 C 
HETATM    6  C   UNL     1       4.276  29.175  49.446  1.00  0.00     0.016 A 
HETATM    7  C   UNL     1       4.428  27.849  49.799  1.00  0.00    -0.021 A 
HETATM    8  C   UNL     1       5.234  27.710  50.971  1.00  0.00     0.077 A 
HETATM    9  C   UNL     1       5.628  28.924  51.477  1.00  0.00     0.133 A 
HETATM   10  N   UNL     1       6.408  29.135  52.559  1.00  0.00    -0.054 NA
HETATM   11  C   UNL     1       6.823  28.061  53.193  1.00  0.00     0.730 A 
HETATM   12  N   UNL     1       6.435  26.751  52.819  1.00  0.00    -0.107 N 
HETATM   13  C   UNL     1       5.658  26.510  51.666  1.00  0.00     0.280 A 
HETATM   14  O   UNL     1       5.311  25.403  51.260  1.00  0.00    -0.266 OA
HETATM   15  S   UNL     1       5.049  30.228  50.537  1.00  0.00    -0.071 SA
HETATM   16  C   UNL     1       3.808  26.774  48.960  1.00  0.00     0.078 C 
ENDROOT
BRANCH  11  17
HETATM   17  N   UNL     1       7.734  28.252  54.221  1.00  0.00    -0.127 N 
HETATM   18  H   UNL     1       8.408  27.529  54.471  1.00  0.00     0.206 HD
BRANCH  17  19
HETATM   19  N   UNL     1       7.304  29.028  55.310  1.00  0.00    -0.255 N 
HETATM   20  C   UNL     1       7.532  28.496  56.565  1.00  0.00     0.240 C 
HETATM   21  O   UNL     1       8.183  27.463  56.730  1.00  0.00    -0.272 OA
HETATM   22  H   UNL     1       6.527  29.657  55.107  1.00  0.00     0.190 HD
BRANCH  20  23
HETATM   23  C   UNL     1       6.948  29.308  57.706  1.00  0.00     0.143 C 
BRANCH  23  24
HETATM   24  C   UNL     1       7.929  30.249  58.365  1.00  0.00    -0.049 A 
HETATM   25  C   UNL     1       9.244  30.369  57.892  1.00  0.00     0.007 A 
HETATM   26  C   UNL     1      10.131  31.275  58.477  1.00  0.00     0.001 A 
HETATM   27  C   UNL     1       9.711  32.082  59.531  1.00  0.00     0.000 A 
HETATM   28  C   UNL     1       8.404  31.982  60.002  1.00  0.00     0.001 A 
HETATM   29  C   UNL     1       7.517  31.072  59.423  1.00  0.00     0.007 A 
ENDBRANCH  23  24
ENDBRANCH  20  23
ENDBRANCH  17  19
ENDBRANCH  11  17
BRANCH  12  30
HETATM   30  C   UNL     1       6.774  25.618  53.632  1.00  0.00     0.060 A 
HETATM   31  C   UNL     1       6.144  25.407  54.867  1.00  0.00     0.030 A 
HETATM   32  C   UNL     1       6.471  24.300  55.653  1.00  0.00     0.002 A 
HETATM   33  C   UNL     1       7.442  23.399  55.223  1.00  0.00     0.000 A 
HETATM   34  C   UNL     1       8.093  23.607  54.009  1.00  0.00     0.002 A 
HETATM   35  C   UNL     1       7.767  24.714  53.222  1.00  0.00     0.030 A 
ENDBRANCH  12  30
TORSDOF 5
ENDMDL
MODEL 4
REMARK VINA RESULT:      -9.6      3.752      8.250
REMARK  5 active torsions:
REMARK  status: ('A' for Active; 'I' for Inactive)
REMARK    1  A    between atoms: C_11  and  N_12 
REMARK    2  A    between atoms: N_12  and  N_13 
REMARK       I    between atoms: N_13  and  C_14 
REMARK    3  A    between atoms: C_14  and  C_15 
REMARK    4  A    between atoms: C_15  and  C_16 
REMARK    5  A    between atoms: N_23  and  C_24 
ROOT
HETATM    1  C   UNL     1       4.301  34.465  48.176  1.00  0.00     0.046 C 
HETATM    2  C   UNL     1       4.862  33.058  47.928  1.00  0.00     0.058 C 
HETATM    3  C   UNL     1       6.360  33.185  47.608  1.00  0.00     0.046 C 
HETATM    4  O   UNL     1       4.129  32.535  46.797  1.00  0.00    -0.376 OA
HETATM    5  C   UNL     1       4.506  31.216  46.357  1.00  0.00     0.215 C 
HETATM    6  C   UNL     1       4.636  30.313  47.539  1.00  0.00     0.016 A 
HETATM    7  C   UNL     1       4.703  30.727  48.854  1.00  0.00    -0.021 A 
HETATM    8  C   UNL     1       4.832  29.617  49.746  1.00  0.00     0.077 A 
HETATM    9  C   UNL     1       4.894  28.420  49.077  1.00  0.00     0.133 A 
HETATM   10  N   UNL     1       4.997  27.190  49.627  1.00  0.00    -0.054 NA
HETATM   11  C   UNL     1       5.050  27.145  50.939  1.00  0.00     0.730 A 
HETATM   12  N   UNL     1       5.066  28.308  51.748  1.00  0.00    -0.107 N 
HETATM   13  C   UNL     1       4.914  29.596  51.194  1.00  0.00     0.280 A 
HETATM   14  O   UNL     1       4.884  30.647  51.831  1.00  0.00    -0.266 OA
HETATM   15  S   UNL     1       4.777  28.624  47.384  1.00  0.00    -0.071 SA
HETATM   16  C   UNL     1       4.606  32.184  49.188  1.00  0.00     0.078 C 
ENDROOT
BRANCH  11  17
HETATM   17  N   UNL     1       5.018  25.889  51.525  1.00  0.00    -0.127 N 
HETATM   18  H   UNL     1       4.333  25.659  52.244  1.00  0.00     0.206 HD
BRANCH  17  19
HETATM   19  N   UNL     1       6.250  25.234  51.685  1.00  0.00    -0.255 N 
HETATM   20  C   UNL     1       6.516  24.734  52.946  1.00  0.00     0.240 C 
HETATM   21  O   UNL     1       5.675  24.750  53.846  1.00  0.00    -0.272 OA
HETATM   22  H   UNL     1       6.983  25.537  51.043  1.00  0.00     0.190 HD
BRANCH  20  23
HETATM   23  C   UNL     1       7.903  24.141  53.107  1.00  0.00     0.143 C 
BRANCH  23  24
HETATM   24  C   UNL     1       7.931  22.811  53.823  1.00  0.00    -0.049 A 
HETATM   25  C   UNL     1       7.951  21.605  53.109  1.00  0.00     0.007 A 
HETATM   26  C   UNL     1       8.023  20.382  53.778  1.00  0.00     0.001 A 
HETATM   27  C   UNL     1       8.092  20.349  55.168  1.00  0.00     0.000 A 
HETATM   28  C   UNL     1       8.085  21.541  55.890  1.00  0.00     0.001 A 
HETATM   29  C   UNL     1       8.006  22.765  55.223  1.00  0.00     0.007 A 
ENDBRANCH  23  24
ENDBRANCH  20  23
ENDBRANCH  17  19
ENDBRANCH  11  17
BRANCH  12  30
HETATM   30  C   UNL     1       5.291  28.223  53.162  1.00  0.00     0.060 A 
HETATM   31  C   UNL     1       4.214  28.168  54.059  1.00  0.00     0.030 A 
HETATM   32  C   UNL     1       4.438  28.079  55.434  1.00  0.00     0.002 A 
HETATM   33  C   UNL     1       5.738  28.058  55.932  1.00  0.00     0.000 A 
HETATM   34  C   UNL     1       6.818  28.135  55.056  1.00  0.00     0.002 A 
HETATM   35  C   UNL     1       6.597  28.224  53.680  1.00  0.00     0.030 A 
ENDBRANCH  12  30
TORSDOF 5
ENDMDL
MODEL 5
REMARK VINA RESULT:      -9.5      3.700      5.568
REMARK  5 active torsions:
REMARK  status: ('A' for Active; 'I' for Inactive)
REMARK    1  A    between atoms: C_11  and  N_12 
REMARK    2  A    between atoms: N_12  and  N_13 
REMARK       I    between atoms: N_13  and  C_14 
REMARK    3  A    between atoms: C_14  and  C_15 
REMARK    4  A    between atoms: C_15  and  C_16 
REMARK    5  A    between atoms: N_23  and  C_24 
ROOT
HETATM    1  C   UNL     1       3.074  34.481  58.868  1.00  0.00     0.046 C 
HETATM    2  C   UNL     1       3.387  33.980  57.452  1.00  0.00     0.058 C 
HETATM    3  C   UNL     1       4.606  34.754  56.924  1.00  0.00     0.046 C 
HETATM    4  O   UNL     1       2.208  34.263  56.664  1.00  0.00    -0.376 OA
HETATM    5  C   UNL     1       2.279  33.898  55.272  1.00  0.00     0.215 C 
HETATM    6  C   UNL     1       2.850  32.525  55.142  1.00  0.00     0.016 A 
HETATM    7  C   UNL     1       3.502  31.836  56.146  1.00  0.00    -0.021 A 
HETATM    8  C   UNL     1       3.936  30.549  55.699  1.00  0.00     0.077 A 
HETATM    9  C   UNL     1       3.630  30.329  54.379  1.00  0.00     0.133 A 
HETATM   10  N   UNL     1       3.886  29.210  53.665  1.00  0.00    -0.054 NA
HETATM   11  C   UNL     1       4.496  28.240  54.307  1.00  0.00     0.730 A 
HETATM   12  N   UNL     1       4.929  28.361  55.651  1.00  0.00    -0.107 N 
HETATM   13  C   UNL     1       4.632  29.503  56.424  1.00  0.00     0.280 A 
HETATM   14  O   UNL     1       4.943  29.666  57.602  1.00  0.00    -0.266 OA
HETATM   15  S   UNL     1       2.809  31.654  53.681  1.00  0.00    -0.071 SA
HETATM   16  C   UNL     1       3.646  32.449  57.505  1.00  0.00     0.078 C 
ENDROOT
BRANCH  11  17
HETATM   17  N   UNL     1       4.644  27.037  53.633  1.00  0.00    -0.127 N 
HETATM   18  H   UNL     1       3.943  26.300  53.708  1.00  0.00     0.206 HD
BRANCH  17  19
HETATM   19  N   UNL     1       5.954  26.560  53.471  1.00  0.00    -0.255 N 
HETATM   20  C   UNL     1       6.088  25.197  53.281  1.00  0.00     0.240 C 
HETATM   21  O   UNL     1       5.113  24.458  53.137  1.00  0.00    -0.272 OA
HETATM   22  H   UNL     1       6.676  27.131  53.911  1.00  0.00     0.190 HD
BRANCH  20  23
HETATM   23  C   UNL     1       7.524  24.708  53.230  1.00  0.00     0.143 C 
BRANCH  23  24
HETATM   24  C   UNL     1       7.718  23.299  53.737  1.00  0.00    -0.049 A 
HETATM   25  C   UNL     1       7.577  22.994  55.098  1.00  0.00     0.007 A 
HETATM   26  C   UNL     1       7.712  21.680  55.551  1.00  0.00     0.001 A 
HETATM   27  C   UNL     1       7.976  20.653  54.649  1.00  0.00     0.000 A 
HETATM   28  C   UNL     1       8.107  20.940  53.292  1.00  0.00     0.001 A 
HETATM   29  C   UNL     1       7.978  22.255  52.837  1.00  0.00     0.007 A 
ENDBRANCH  23  24
ENDBRANCH  20  23
ENDBRANCH  17  19
ENDBRANCH  11  17
BRANCH  12  30
HETATM   30  C   UNL     1       5.736  27.345  56.263  1.00  0.00     0.060 A 
HETATM   31  C   UNL     1       7.132  27.470  56.313  1.00  0.00     0.030 A 
HETATM   32  C   UNL     1       7.914  26.482  56.915  1.00  0.00     0.002 A 
HETATM   33  C   UNL     1       7.313  25.351  57.461  1.00  0.00     0.000 A 
HETATM   34  C   UNL     1       5.930  25.201  57.399  1.00  0.00     0.002 A 
HETATM   35  C   UNL     1       5.146  26.188  56.797  1.00  0.00     0.030 A 
ENDBRANCH  12  30
TORSDOF 5
ENDMDL
MODEL 6
REMARK VINA RESULT:      -9.4      4.185      7.182
REMARK  5 active torsions:
REMARK  status: ('A' for Active; 'I' for Inactive)
REMARK    1  A    between atoms: C_11  and  N_12 
REMARK    2  A    between atoms: N_12  and  N_13 
REMARK       I    between atoms: N_13  and  C_14 
REMARK    3  A    between atoms: C_14  and  C_15 
REMARK    4  A    between atoms: C_15  and  C_16 
REMARK    5  A    between atoms: N_23  and  C_24 
ROOT
HETATM    1  C   UNL     1       5.279  35.762  64.291  1.00  0.00     0.046 C 
HETATM    2  C   UNL     1       5.788  34.363  63.921  1.00  0.00     0.058 C 
HETATM    3  C   UNL     1       4.958  33.326  64.695  1.00  0.00     0.046 C 
HETATM    4  O   UNL     1       7.176  34.328  64.326  1.00  0.00    -0.376 OA
HETATM    5  C   UNL     1       7.868  33.085  64.099  1.00  0.00     0.215 C 
HETATM    6  C   UNL     1       7.565  32.587  62.724  1.00  0.00     0.016 A 
HETATM    7  C   UNL     1       6.549  33.055  61.914  1.00  0.00    -0.021 A 
HETATM    8  C   UNL     1       6.521  32.365  60.662  1.00  0.00     0.077 A 
HETATM    9  C   UNL     1       7.483  31.389  60.586  1.00  0.00     0.133 A 
HETATM   10  N   UNL     1       7.730  30.577  59.535  1.00  0.00    -0.054 NA
HETATM   11  C   UNL     1       6.961  30.740  58.483  1.00  0.00     0.730 A 
HETATM   12  N   UNL     1       5.886  31.663  58.453  1.00  0.00    -0.107 N 
HETATM   13  C   UNL     1       5.642  32.549  59.523  1.00  0.00     0.280 A 
HETATM   14  O   UNL     1       4.753  33.398  59.556  1.00  0.00    -0.266 OA
HETATM   15  S   UNL     1       8.431  31.311  62.006  1.00  0.00    -0.071 SA
HETATM   16  C   UNL     1       5.670  34.174  62.383  1.00  0.00     0.078 C 
ENDROOT
BRANCH  11  17
HETATM   17  N   UNL     1       7.286  30.013  57.348  1.00  0.00    -0.127 N 
HETATM   18  H   UNL     1       7.399  30.468  56.443  1.00  0.00     0.206 HD
BRANCH  17  19
HETATM   19  N   UNL     1       6.778  28.707  57.267  1.00  0.00    -0.255 N 
HETATM   20  C   UNL     1       7.713  27.690  57.216  1.00  0.00     0.240 C 
HETATM   21  O   UNL     1       8.918  27.902  57.359  1.00  0.00    -0.272 OA
HETATM   22  H   UNL     1       5.855  28.632  56.838  1.00  0.00     0.190 HD
BRANCH  20  23
HETATM   23  C   UNL     1       7.125  26.306  57.009  1.00  0.00     0.143 C 
BRANCH  23  24
HETATM   24  C   UNL     1       7.378  25.722  55.639  1.00  0.00    -0.049 A 
HETATM   25  C   UNL     1       7.288  26.517  54.487  1.00  0.00     0.007 A 
HETATM   26  C   UNL     1       7.570  25.981  53.229  1.00  0.00     0.001 A 
HETATM   27  C   UNL     1       7.958  24.649  53.108  1.00  0.00     0.000 A 
HETATM   28  C   UNL     1       8.062  23.852  54.245  1.00  0.00     0.001 A 
HETATM   29  C   UNL     1       7.776  24.385  55.504  1.00  0.00     0.007 A 
ENDBRANCH  23  24
ENDBRANCH  20  23
ENDBRANCH  17  19
ENDBRANCH  11  17
BRANCH  12  30
HETATM   30  C   UNL     1       4.969  31.695  57.350  1.00  0.00     0.060 A 
HETATM   31  C   UNL     1       5.179  32.559  56.266  1.00  0.00     0.030 A 
HETATM   32  C   UNL     1       4.287  32.583  55.192  1.00  0.00     0.002 A 
HETATM   33  C   UNL     1       3.167  31.755  55.194  1.00  0.00     0.000 A 
HETATM   34  C   UNL     1       2.932  30.909  56.274  1.00  0.00     0.002 A 
HETATM   35  C   UNL     1       3.822  30.884  57.350  1.00  0.00     0.030 A 
ENDBRANCH  12  30
TORSDOF 5
ENDMDL
MODEL 7
REMARK VINA RESULT:      -9.3      2.512      6.205
REMARK  5 active torsions:
REMARK  status: ('A' for Active; 'I' for Inactive)
REMARK    1  A    between atoms: C_11  and  N_12 
REMARK    2  A    between atoms: N_12  and  N_13 
REMARK       I    between atoms: N_13  and  C_14 
REMARK    3  A    between atoms: C_14  and  C_15 
REMARK    4  A    between atoms: C_15  and  C_16 
REMARK    5  A    between atoms: N_23  and  C_24 
ROOT
HETATM    1  C   UNL     1       4.857  35.371  55.992  1.00  0.00     0.046 C 
HETATM    2  C   UNL     1       4.445  33.943  56.374  1.00  0.00     0.058 C 
HETATM    3  C   UNL     1       3.003  33.983  56.907  1.00  0.00     0.046 C 
HETATM    4  O   UNL     1       5.371  33.527  57.403  1.00  0.00    -0.376 OA
HETATM    5  C   UNL     1       5.161  32.208  57.944  1.00  0.00     0.215 C 
HETATM    6  C   UNL     1       4.929  31.242  56.830  1.00  0.00     0.016 A 
HETATM    7  C   UNL     1       4.642  31.586  55.524  1.00  0.00    -0.021 A 
HETATM    8  C   UNL     1       4.468  30.428  54.705  1.00  0.00     0.077 A 
HETATM    9  C   UNL     1       4.593  29.263  55.421  1.00  0.00     0.133 A 
HETATM   10  N   UNL     1       4.504  28.003  54.940  1.00  0.00    -0.054 NA
HETATM   11  C   UNL     1       4.264  27.891  53.653  1.00  0.00     0.730 A 
HETATM   12  N   UNL     1       4.045  29.009  52.811  1.00  0.00    -0.107 N 
HETATM   13  C   UNL     1       4.179  30.331  53.287  1.00  0.00     0.280 A 
HETATM   14  O   UNL     1       4.037  31.348  52.612  1.00  0.00    -0.266 OA
HETATM   15  S   UNL     1       4.938  29.557  57.068  1.00  0.00    -0.071 SA
HETATM   16  C   UNL     1       4.580  33.029  55.125  1.00  0.00     0.078 C 
ENDROOT
BRANCH  11  17
HETATM   17  N   UNL     1       4.305  26.613  53.117  1.00  0.00    -0.127 N 
HETATM   18  H   UNL     1       3.592  25.921  53.344  1.00  0.00     0.206 HD
BRANCH  17  19
HETATM   19  N   UNL     1       5.577  26.062  52.892  1.00  0.00    -0.255 N 
HETATM   20  C   UNL     1       6.043  25.187  53.855  1.00  0.00     0.240 C 
HETATM   21  O   UNL     1       5.337  24.812  54.793  1.00  0.00    -0.272 OA
HETATM   22  H   UNL     1       6.197  26.635  52.319  1.00  0.00     0.190 HD
BRANCH  20  23
HETATM   23  C   UNL     1       7.465  24.708  53.634  1.00  0.00     0.143 C 
BRANCH  23  24
HETATM   24  C   UNL     1       7.685  23.247  53.951  1.00  0.00    -0.049 A 
HETATM   25  C   UNL     1       7.772  22.800  55.278  1.00  0.00     0.007 A 
HETATM   26  C   UNL     1       7.929  21.443  55.563  1.00  0.00     0.001 A 
HETATM   27  C   UNL     1       7.986  20.513  54.527  1.00  0.00     0.000 A 
HETATM   28  C   UNL     1       7.888  20.942  53.206  1.00  0.00     0.001 A 
HETATM   29  C   UNL     1       7.737  22.301  52.918  1.00  0.00     0.007 A 
ENDBRANCH  23  24
ENDBRANCH  20  23
ENDBRANCH  17  19
ENDBRANCH  11  17
BRANCH  12  30
HETATM   30  C   UNL     1       3.624  28.840  51.450  1.00  0.00     0.060 A 
HETATM   31  C   UNL     1       4.560  28.603  50.433  1.00  0.00     0.030 A 
HETATM   32  C   UNL     1       4.146  28.432  49.111  1.00  0.00     0.002 A 
HETATM   33  C   UNL     1       2.794  28.511  48.785  1.00  0.00     0.000 A 
HETATM   34  C   UNL     1       1.854  28.769  49.780  1.00  0.00     0.002 A 
HETATM   35  C   UNL     1       2.266  28.940  51.104  1.00  0.00     0.030 A 
ENDBRANCH  12  30
TORSDOF 5
ENDMDL
MODEL 8
REMARK VINA RESULT:      -9.3      4.166      6.868
REMARK  5 active torsions:
REMARK  status: ('A' for Active; 'I' for Inactive)
REMARK    1  A    between atoms: C_11  and  N_12 
REMARK    2  A    between atoms: N_12  and  N_13 
REMARK       I    between atoms: N_13  and  C_14 
REMARK    3  A    between atoms: C_14  and  C_15 
REMARK    4  A    between atoms: C_15  and  C_16 
REMARK    5  A    between atoms: N_23  and  C_24 
ROOT
HETATM    1  C   UNL     1       6.783  33.810  65.742  1.00  0.00     0.046 C 
HETATM    2  C   UNL     1       6.109  34.023  64.379  1.00  0.00     0.058 C 
HETATM    3  C   UNL     1       6.355  35.477  63.942  1.00  0.00     0.046 C 
HETATM    4  O   UNL     1       4.702  33.772  64.592  1.00  0.00    -0.376 OA
HETATM    5  C   UNL     1       3.851  33.940  63.441  1.00  0.00     0.215 C 
HETATM    6  C   UNL     1       4.474  33.274  62.258  1.00  0.00     0.016 A 
HETATM    7  C   UNL     1       5.784  32.847  62.183  1.00  0.00    -0.021 A 
HETATM    8  C   UNL     1       6.069  32.256  60.912  1.00  0.00     0.077 A 
HETATM    9  C   UNL     1       4.985  32.292  60.070  1.00  0.00     0.133 A 
HETATM   10  N   UNL     1       4.921  31.802  58.812  1.00  0.00    -0.054 NA
HETATM   11  C   UNL     1       6.017  31.242  58.352  1.00  0.00     0.730 A 
HETATM   12  N   UNL     1       7.226  31.199  59.090  1.00  0.00    -0.107 N 
HETATM   13  C   UNL     1       7.298  31.665  60.420  1.00  0.00     0.280 A 
HETATM   14  O   UNL     1       8.299  31.631  61.133  1.00  0.00    -0.266 OA
HETATM   15  S   UNL     1       3.623  33.014  60.807  1.00  0.00    -0.071 SA
HETATM   16  C   UNL     1       6.693  33.002  63.363  1.00  0.00     0.078 C 
ENDROOT
BRANCH  11  17
HETATM   17  N   UNL     1       5.931  30.613  57.120  1.00  0.00    -0.127 N 
HETATM   18  H   UNL     1       5.751  31.143  56.268  1.00  0.00     0.206 HD
BRANCH  17  19
HETATM   19  N   UNL     1       5.388  29.318  57.107  1.00  0.00    -0.255 N 
HETATM   20  C   UNL     1       5.725  28.526  56.025  1.00  0.00     0.240 C 
HETATM   21  O   UNL     1       6.551  28.885  55.184  1.00  0.00    -0.272 OA
HETATM   22  H   UNL     1       4.509  29.217  57.615  1.00  0.00     0.190 HD
BRANCH  20  23
HETATM   23  C   UNL     1       5.025  27.181  55.989  1.00  0.00     0.143 C 
BRANCH  23  24
HETATM   24  C   UNL     1       5.958  25.997  55.889  1.00  0.00    -0.049 A 
HETATM   25  C   UNL     1       5.914  25.133  54.785  1.00  0.00     0.007 A 
HETATM   26  C   UNL     1       6.812  24.069  54.677  1.00  0.00     0.001 A 
HETATM   27  C   UNL     1       7.773  23.863  55.662  1.00  0.00     0.000 A 
HETATM   28  C   UNL     1       7.836  24.721  56.759  1.00  0.00     0.001 A 
HETATM   29  C   UNL     1       6.935  25.783  56.872  1.00  0.00     0.007 A 
ENDBRANCH  23  24
ENDBRANCH  20  23
ENDBRANCH  17  19
ENDBRANCH  11  17
BRANCH  12  30
HETATM   30  C   UNL     1       8.442  30.728  58.492  1.00  0.00     0.060 A 
HETATM   31  C   UNL     1       9.558  31.569  58.376  1.00  0.00     0.030 A 
HETATM   32  C   UNL     1      10.742  31.105  57.798  1.00  0.00     0.002 A 
HETATM   33  C   UNL     1      10.821  29.801  57.318  1.00  0.00     0.000 A 
HETATM   34  C   UNL     1       9.715  28.960  57.406  1.00  0.00     0.002 A 
HETATM   35  C   UNL     1       8.529  29.422  57.982  1.00  0.00     0.030 A 
ENDBRANCH  12  30
TORSDOF 5
ENDMDL
MODEL 9
REMARK VINA RESULT:      -9.1      1.834      2.480
REMARK  5 active torsions:
REMARK  status: ('A' for Active; 'I' for Inactive)
REMARK    1  A    between atoms: C_11  and  N_12 
REMARK    2  A    between atoms: N_12  and  N_13 
REMARK       I    between atoms: N_13  and  C_14 
REMARK    3  A    between atoms: C_14  and  C_15 
REMARK    4  A    between atoms: C_15  and  C_16 
REMARK    5  A    between atoms: N_23  and  C_24 
ROOT
HETATM    1  C   UNL     1       9.149  30.345  60.683  1.00  0.00     0.046 C 
HETATM    2  C   UNL     1       8.417  30.719  59.387  1.00  0.00     0.058 C 
HETATM    3  C   UNL     1       9.349  31.604  58.544  1.00  0.00     0.046 C 
HETATM    4  O   UNL     1       7.236  31.446  59.797  1.00  0.00    -0.376 OA
HETATM    5  C   UNL     1       6.393  31.929  58.732  1.00  0.00     0.215 C 
HETATM    6  C   UNL     1       6.190  30.847  57.724  1.00  0.00     0.016 A 
HETATM    7  C   UNL     1       6.932  29.686  57.643  1.00  0.00    -0.021 A 
HETATM    8  C   UNL     1       6.491  28.859  56.562  1.00  0.00     0.077 A 
HETATM    9  C   UNL     1       5.467  29.436  55.853  1.00  0.00     0.133 A 
HETATM   10  N   UNL     1       4.819  28.908  54.791  1.00  0.00    -0.054 NA
HETATM   11  C   UNL     1       5.223  27.720  54.400  1.00  0.00     0.730 A 
HETATM   12  N   UNL     1       6.313  27.043  54.999  1.00  0.00    -0.107 N 
HETATM   13  C   UNL     1       6.971  27.559  56.135  1.00  0.00     0.280 A 
HETATM   14  O   UNL     1       7.900  27.015  56.729  1.00  0.00    -0.266 OA
HETATM   15  S   UNL     1       5.022  30.957  56.492  1.00  0.00    -0.071 SA
HETATM   16  C   UNL     1       8.016  29.416  58.640  1.00  0.00     0.078 C 
ENDROOT
BRANCH  11  17
HETATM   17  N   UNL     1       4.482  27.104  53.402  1.00  0.00    -0.127 N 
HETATM   18  H   UNL     1       4.024  26.207  53.562  1.00  0.00     0.206 HD
BRANCH  17  19
HETATM   19  N   UNL     1       4.923  27.289  52.082  1.00  0.00    -0.255 N 
HETATM   20  C   UNL     1       4.171  28.146  51.301  1.00  0.00     0.240 C 
HETATM   21  O   UNL     1       3.241  28.807  51.767  1.00  0.00    -0.272 OA
HETATM   22  H   UNL     1       5.453  26.507  51.694  1.00  0.00     0.190 HD
BRANCH  20  23
HETATM   23  C   UNL     1       4.610  28.225  49.852  1.00  0.00     0.143 C 
BRANCH  23  24
HETATM   24  C   UNL     1       4.879  29.628  49.359  1.00  0.00    -0.049 A 
HETATM   25  C   UNL     1       5.814  30.453  50.001  1.00  0.00     0.007 A 
HETATM   26  C   UNL     1       6.090  31.731  49.512  1.00  0.00     0.001 A 
HETATM   27  C   UNL     1       5.447  32.195  48.368  1.00  0.00     0.000 A 
HETATM   28  C   UNL     1       4.524  31.381  47.714  1.00  0.00     0.001 A 
HETATM   29  C   UNL     1       4.242  30.105  48.205  1.00  0.00     0.007 A 
ENDBRANCH  23  24
ENDBRANCH  20  23
ENDBRANCH  17  19
ENDBRANCH  11  17
BRANCH  12  30
HETATM   30  C   UNL     1       6.827  25.826  54.438  1.00  0.00     0.060 A 
HETATM   31  C   UNL     1       7.614  25.846  53.278  1.00  0.00     0.030 A 
HETATM   32  C   UNL     1       8.117  24.661  52.738  1.00  0.00     0.002 A 
HETATM   33  C   UNL     1       7.829  23.440  53.343  1.00  0.00     0.000 A 
HETATM   34  C   UNL     1       7.030  23.401  54.483  1.00  0.00     0.002 A 
HETATM   35  C   UNL     1       6.525  24.585  55.024  1.00  0.00     0.030 A 
ENDBRANCH  12  30
TORSDOF 5
ENDMDL
MODEL 10
REMARK VINA RESULT:      -9.0      3.017      8.204
REMARK  5 active torsions:
REMARK  status: ('A' for Active; 'I' for Inactive)
REMARK    1  A    between atoms: C_11  and  N_12 
REMARK    2  A    between atoms: N_12  and  N_13 
REMARK       I    between atoms: N_13  and  C_14 
REMARK    3  A    between atoms: C_14  and  C_15 
REMARK    4  A    between atoms: C_15  and  C_16 
REMARK    5  A    between atoms: N_23  and  C_24 
ROOT
HETATM    1  C   UNL     1       2.325  32.593  48.268  1.00  0.00     0.046 C 
HETATM    2  C   UNL     1       3.177  31.321  48.374  1.00  0.00     0.058 C 
HETATM    3  C   UNL     1       4.585  31.638  47.841  1.00  0.00     0.046 C 
HETATM    4  O   UNL     1       2.517  30.334  47.550  1.00  0.00    -0.376 OA
HETATM    5  C   UNL     1       3.160  29.047  47.472  1.00  0.00     0.215 C 
HETATM    6  C   UNL     1       3.566  28.607  48.840  1.00  0.00     0.016 A 
HETATM    7  C   UNL     1       3.616  29.419  49.955  1.00  0.00    -0.021 A 
HETATM    8  C   UNL     1       4.051  28.695  51.109  1.00  0.00     0.077 A 
HETATM    9  C   UNL     1       4.345  27.386  50.819  1.00  0.00     0.133 A 
HETATM   10  N   UNL     1       4.762  26.438  51.687  1.00  0.00    -0.054 NA
HETATM   11  C   UNL     1       4.903  26.820  52.937  1.00  0.00     0.730 A 
HETATM   12  N   UNL     1       4.700  28.157  53.360  1.00  0.00    -0.107 N 
HETATM   13  C   UNL     1       4.223  29.148  52.476  1.00  0.00     0.280 A 
HETATM   14  O   UNL     1       3.991  30.317  52.776  1.00  0.00    -0.266 OA
HETATM   15  S   UNL     1       4.082  27.020  49.171  1.00  0.00    -0.071 SA
HETATM   16  C   UNL     1       3.206  30.856  49.856  1.00  0.00     0.078 C 
ENDROOT
BRANCH  11  17
HETATM   17  N   UNL     1       5.196  25.832  53.865  1.00  0.00    -0.127 N 
HETATM   18  H   UNL     1       5.391  26.063  54.838  1.00  0.00     0.206 HD
BRANCH  17  19
HETATM   19  N   UNL     1       5.902  24.713  53.395  1.00  0.00    -0.255 N 
HETATM   20  C   UNL     1       7.280  24.781  53.477  1.00  0.00     0.240 C 
HETATM   21  O   UNL     1       7.856  25.713  54.041  1.00  0.00    -0.272 OA
HETATM   22  H   UNL     1       5.416  24.168  52.682  1.00  0.00     0.190 HD
BRANCH  20  23
HETATM   23  C   UNL     1       8.006  23.605  52.852  1.00  0.00     0.143 C 
BRANCH  23  24
HETATM   24  C   UNL     1       8.181  22.422  53.774  1.00  0.00    -0.049 A 
HETATM   25  C   UNL     1       8.006  22.553  55.159  1.00  0.00     0.007 A 
HETATM   26  C   UNL     1       8.124  21.444  56.000  1.00  0.00     0.001 A 
HETATM   27  C   UNL     1       8.404  20.189  55.466  1.00  0.00     0.000 A 
HETATM   28  C   UNL     1       8.569  20.043  54.090  1.00  0.00     0.001 A 
HETATM   29  C   UNL     1       8.458  21.152  53.248  1.00  0.00     0.007 A 
ENDBRANCH  23  24
ENDBRANCH  20  23
ENDBRANCH  17  19
ENDBRANCH  11  17
BRANCH  12  30
HETATM   30  C   UNL     1       5.025  28.568  54.695  1.00  0.00     0.060 A 
HETATM   31  C   UNL     1       4.018  28.757  55.653  1.00  0.00     0.030 A 
HETATM   32  C   UNL     1       4.338  29.151  56.954  1.00  0.00     0.002 A 
HETATM   33  C   UNL     1       5.665  29.375  57.310  1.00  0.00     0.000 A 
HETATM   34  C   UNL     1       6.675  29.214  56.364  1.00  0.00     0.002 A 
HETATM   35  C   UNL     1       6.357  28.820  55.063  1.00  0.00     0.030 A 
ENDBRANCH  12  30
TORSDOF 5
ENDMDL
