MODEL 1
REMARK VINA RESULT:      -9.8      0.000      0.000
REMARK  4 active torsions:
REMARK  status: ('A' for Active; 'I' for Inactive)
REMARK    1  A    between atoms: C_4  and  C_5 
REMARK       I    between atoms: C_5  and  N_6 
REMARK    2  A    between atoms: N_6  and  C_7 
REMARK    3  A    between atoms: C_20  and  C_21 
REMARK    4  A    between atoms: C_24  and  O_25 
ROOT
HETATM    1  C   UNL     1       7.439  31.592  59.865  1.00  0.00     0.263 C 
HETATM    2  N   UNL     1       7.426  31.207  61.198  1.00  0.00    -0.323 N 
HETATM    3  O   UNL     1       6.934  32.635  59.454  1.00  0.00    -0.267 OA
HETATM    4  H   UNL     1       7.750  30.261  61.372  1.00  0.00     0.169 HD
ENDROOT
BRANCH   1   5
HETATM    5  C   UNL     1       8.087  30.646  58.962  1.00  0.00     0.074 A 
HETATM    6  S   UNL     1       9.707  30.839  58.450  1.00  0.00    -0.089 SA
HETATM    7  C   UNL     1       9.621  29.500  57.384  1.00  0.00    -0.009 A 
HETATM    8  C   UNL     1      10.800  29.205  56.509  1.00  0.00     0.057 C 
HETATM    9  C   UNL     1       8.402  28.846  57.482  1.00  0.00    -0.012 A 
HETATM   10  C   UNL     1       7.516  29.534  58.375  1.00  0.00     0.038 A 
BRANCH   9  11
HETATM   11  C   UNL     1       8.069  27.658  56.699  1.00  0.00    -0.025 A 
HETATM   12  C   UNL     1       8.209  26.387  57.265  1.00  0.00     0.015 A 
HETATM   13  C   UNL     1       7.884  25.246  56.525  1.00  0.00     0.037 A 
HETATM   14  C   UNL     1       7.408  25.356  55.218  1.00  0.00     0.068 A 
HETATM   15  C   UNL     1       7.292  26.619  54.639  1.00  0.00     0.037 A 
HETATM   16  C   UNL     1       7.629  27.763  55.373  1.00  0.00     0.015 A 
BRANCH  14  17
HETATM   17  O   UNL     1       7.108  24.167  54.614  1.00  0.00    -0.356 OA
HETATM   18  C   UNL     1       7.429  22.985  55.337  1.00  0.00     0.210 C 
ENDBRANCH  14  17
ENDBRANCH   9  11
ENDBRANCH   1   5
BRANCH   2  19
HETATM   19  C   UNL     1       7.016  31.960  62.314  1.00  0.00     0.035 A 
HETATM   20  C   UNL     1       5.699  32.389  62.508  1.00  0.00     0.039 A 
HETATM   21  C   UNL     1       5.410  33.177  63.612  1.00  0.00    -0.022 A 
HETATM   22  C   UNL     1       6.398  33.527  64.537  1.00  0.00    -0.025 A 
HETATM   23  C   UNL     1       4.093  33.751  64.011  1.00  0.00     0.274 C 
HETATM   24  C   UNL     1       5.810  34.353  65.631  1.00  0.00     0.273 C 
HETATM   25  C   UNL     1       7.703  33.098  64.372  1.00  0.00     0.012 A 
HETATM   26  N   UNL     1       4.446  34.764  65.094  1.00  0.00    -0.067 N 
HETATM   27  H   UNL     1       4.597  35.652  64.601  1.00  0.00     0.280 HD
HETATM   28  C   UNL     1       3.398  34.965  66.125  1.00  0.00     0.270 C 
HETATM   29  C   UNL     1       8.008  32.323  63.247  1.00  0.00     0.030 A 
ENDBRANCH   2  19
TORSDOF 4
ENDMDL
MODEL 2
REMARK VINA RESULT:      -9.1      8.734     12.651
REMARK  4 active torsions:
REMARK  status: ('A' for Active; 'I' for Inactive)
REMARK    1  A    between atoms: C_4  and  C_5 
REMARK       I    between atoms: C_5  and  N_6 
REMARK    2  A    between atoms: N_6  and  C_7 
REMARK    3  A    between atoms: C_20  and  C_21 
REMARK    4  A    between atoms: C_24  and  O_25 
ROOT
HETATM    1  C   UNL     1       4.566  26.987  49.863  1.00  0.00     0.263 C 
HETATM    2  N   UNL     1       3.439  27.780  50.025  1.00  0.00    -0.323 N 
HETATM    3  O   UNL     1       4.935  26.542  48.779  1.00  0.00    -0.267 OA
HETATM    4  H   UNL     1       3.175  27.955  50.989  1.00  0.00     0.169 HD
ENDROOT
BRANCH   1   5
HETATM    5  C   UNL     1       5.289  26.695  51.098  1.00  0.00     0.074 A 
HETATM    6  S   UNL     1       5.778  27.925  52.179  1.00  0.00    -0.089 SA
HETATM    7  C   UNL     1       6.622  26.824  53.187  1.00  0.00    -0.009 A 
HETATM    8  C   UNL     1       7.404  27.366  54.342  1.00  0.00     0.057 C 
HETATM    9  C   UNL     1       6.457  25.514  52.763  1.00  0.00    -0.012 A 
HETATM   10  C   UNL     1       5.710  25.457  51.540  1.00  0.00     0.038 A 
BRANCH   9  11
HETATM   11  C   UNL     1       7.052  24.372  53.453  1.00  0.00    -0.025 A 
HETATM   12  C   UNL     1       7.927  23.522  52.770  1.00  0.00     0.015 A 
HETATM   13  C   UNL     1       8.508  22.432  53.426  1.00  0.00     0.037 A 
HETATM   14  C   UNL     1       8.231  22.180  54.771  1.00  0.00     0.068 A 
HETATM   15  C   UNL     1       7.338  23.009  55.450  1.00  0.00     0.037 A 
HETATM   16  C   UNL     1       6.746  24.094  54.791  1.00  0.00     0.015 A 
BRANCH  14  17
HETATM   17  O   UNL     1       8.879  21.097  55.297  1.00  0.00    -0.356 OA
HETATM   18  C   UNL     1       8.488  20.692  56.603  1.00  0.00     0.210 C 
ENDBRANCH  14  17
ENDBRANCH   9  11
ENDBRANCH   1   5
BRANCH   2  19
HETATM   19  C   UNL     1       2.630  28.350  49.025  1.00  0.00     0.035 A 
HETATM   20  C   UNL     1       1.736  27.609  48.246  1.00  0.00     0.039 A 
HETATM   21  C   UNL     1       1.027  28.257  47.246  1.00  0.00    -0.022 A 
HETATM   22  C   UNL     1       1.173  29.629  47.020  1.00  0.00    -0.025 A 
HETATM   23  C   UNL     1       0.036  27.673  46.296  1.00  0.00     0.274 C 
HETATM   24  C   UNL     1       0.280  30.065  45.907  1.00  0.00     0.273 C 
HETATM   25  C   UNL     1       2.039  30.383  47.790  1.00  0.00     0.012 A 
HETATM   26  N   UNL     1      -0.159  28.764  45.250  1.00  0.00    -0.067 N 
HETATM   27  H   UNL     1       0.539  28.572  44.520  1.00  0.00     0.280 HD
HETATM   28  C   UNL     1      -1.504  28.796  44.625  1.00  0.00     0.270 C 
HETATM   29  C   UNL     1       2.777  29.731  48.786  1.00  0.00     0.030 A 
ENDBRANCH   2  19
TORSDOF 4
ENDMDL
MODEL 3
REMARK VINA RESULT:      -8.9      1.784      2.311
REMARK  4 active torsions:
REMARK  status: ('A' for Active; 'I' for Inactive)
REMARK    1  A    between atoms: C_4  and  C_5 
REMARK       I    between atoms: C_5  and  N_6 
REMARK    2  A    between atoms: N_6  and  C_7 
REMARK    3  A    between atoms: C_20  and  C_21 
REMARK    4  A    between atoms: C_24  and  O_25 
ROOT
HETATM    1  C   UNL     1       6.991  31.652  59.272  1.00  0.00     0.263 C 
HETATM    2  N   UNL     1       6.189  31.553  60.399  1.00  0.00    -0.323 N 
HETATM    3  O   UNL     1       7.989  32.367  59.208  1.00  0.00    -0.267 OA
HETATM    4  H   UNL     1       5.323  31.041  60.263  1.00  0.00     0.169 HD
ENDROOT
BRANCH   1   5
HETATM    5  C   UNL     1       6.549  30.849  58.135  1.00  0.00     0.074 A 
HETATM    6  S   UNL     1       5.493  31.465  56.941  1.00  0.00    -0.089 SA
HETATM    7  C   UNL     1       5.376  29.953  56.140  1.00  0.00    -0.009 A 
HETATM    8  C   UNL     1       4.439  29.829  54.980  1.00  0.00     0.057 C 
HETATM    9  C   UNL     1       6.209  29.005  56.716  1.00  0.00    -0.012 A 
HETATM   10  C   UNL     1       6.857  29.527  57.884  1.00  0.00     0.038 A 
BRANCH   9  11
HETATM   11  C   UNL     1       6.321  27.636  56.218  1.00  0.00    -0.025 A 
HETATM   12  C   UNL     1       7.266  27.326  55.235  1.00  0.00     0.015 A 
HETATM   13  C   UNL     1       7.387  26.017  54.760  1.00  0.00     0.037 A 
HETATM   14  C   UNL     1       6.575  24.999  55.263  1.00  0.00     0.068 A 
HETATM   15  C   UNL     1       5.613  25.307  56.225  1.00  0.00     0.037 A 
HETATM   16  C   UNL     1       5.482  26.621  56.693  1.00  0.00     0.015 A 
BRANCH  14  17
HETATM   17  O   UNL     1       6.808  23.762  54.730  1.00  0.00    -0.356 OA
HETATM   18  C   UNL     1       7.788  23.685  53.702  1.00  0.00     0.210 C 
ENDBRANCH  14  17
ENDBRANCH   9  11
ENDBRANCH   1   5
BRANCH   2  19
HETATM   19  C   UNL     1       6.429  32.078  61.683  1.00  0.00     0.035 A 
HETATM   20  C   UNL     1       5.444  32.706  62.451  1.00  0.00     0.039 A 
HETATM   21  C   UNL     1       5.797  33.243  63.680  1.00  0.00    -0.022 A 
HETATM   22  C   UNL     1       7.104  33.147  64.169  1.00  0.00    -0.025 A 
HETATM   23  C   UNL     1       4.925  33.958  64.656  1.00  0.00     0.274 C 
HETATM   24  C   UNL     1       7.198  33.783  65.515  1.00  0.00     0.273 C 
HETATM   25  C   UNL     1       8.088  32.514  63.432  1.00  0.00     0.012 A 
HETATM   26  N   UNL     1       5.908  34.582  65.640  1.00  0.00    -0.067 N 
HETATM   27  H   UNL     1       6.120  35.514  65.263  1.00  0.00     0.280 HD
HETATM   28  C   UNL     1       5.393  34.735  67.023  1.00  0.00     0.270 C 
HETATM   29  C   UNL     1       7.744  31.992  62.179  1.00  0.00     0.030 A 
ENDBRANCH   2  19
TORSDOF 4
ENDMDL
MODEL 4
REMARK VINA RESULT:      -8.7      3.308     10.628
REMARK  4 active torsions:
REMARK  status: ('A' for Active; 'I' for Inactive)
REMARK    1  A    between atoms: C_4  and  C_5 
REMARK       I    between atoms: C_5  and  N_6 
REMARK    2  A    between atoms: N_6  and  C_7 
REMARK    3  A    between atoms: C_20  and  C_21 
REMARK    4  A    between atoms: C_24  and  O_25 
ROOT
HETATM    1  C   UNL     1       7.938  28.551  56.675  1.00  0.00     0.263 C 
HETATM    2  N   UNL     1       7.028  27.574  56.297  1.00  0.00    -0.323 N 
HETATM    3  O   UNL     1       9.127  28.529  56.367  1.00  0.00    -0.267 OA
HETATM    4  H   UNL     1       6.118  27.643  56.741  1.00  0.00     0.169 HD
ENDROOT
BRANCH   1   5
HETATM    5  C   UNL     1       7.379  29.619  57.500  1.00  0.00     0.074 A 
HETATM    6  S   UNL     1       6.186  30.693  56.912  1.00  0.00    -0.089 SA
HETATM    7  C   UNL     1       6.208  31.639  58.342  1.00  0.00    -0.009 A 
HETATM    8  C   UNL     1       5.376  32.882  58.391  1.00  0.00     0.057 C 
HETATM    9  C   UNL     1       7.046  31.092  59.303  1.00  0.00    -0.012 A 
HETATM   10  C   UNL     1       7.737  29.943  58.793  1.00  0.00     0.038 A 
BRANCH   9  11
HETATM   11  C   UNL     1       7.236  31.684  60.624  1.00  0.00    -0.025 A 
HETATM   12  C   UNL     1       8.501  31.668  61.221  1.00  0.00     0.015 A 
HETATM   13  C   UNL     1       8.693  32.242  62.482  1.00  0.00     0.037 A 
HETATM   14  C   UNL     1       7.633  32.845  63.159  1.00  0.00     0.068 A 
HETATM   15  C   UNL     1       6.364  32.841  62.581  1.00  0.00     0.037 A 
HETATM   16  C   UNL     1       6.166  32.256  61.324  1.00  0.00     0.015 A 
BRANCH  14  17
HETATM   17  O   UNL     1       7.960  33.385  64.372  1.00  0.00    -0.356 OA
HETATM   18  C   UNL     1       6.883  33.662  65.259  1.00  0.00     0.210 C 
ENDBRANCH  14  17
ENDBRANCH   9  11
ENDBRANCH   1   5
BRANCH   2  19
HETATM   19  C   UNL     1       7.223  26.513  55.393  1.00  0.00     0.035 A 
HETATM   20  C   UNL     1       7.316  25.175  55.788  1.00  0.00     0.039 A 
HETATM   21  C   UNL     1       7.567  24.211  54.825  1.00  0.00    -0.022 A 
HETATM   22  C   UNL     1       7.703  24.547  53.474  1.00  0.00    -0.025 A 
HETATM   23  C   UNL     1       7.715  22.739  55.014  1.00  0.00     0.274 C 
HETATM   24  C   UNL     1       7.942  23.320  52.660  1.00  0.00     0.273 C 
HETATM   25  C   UNL     1       7.597  25.862  53.060  1.00  0.00     0.012 A 
HETATM   26  N   UNL     1       8.287  22.252  53.688  1.00  0.00    -0.067 N 
HETATM   27  H   UNL     1       9.307  22.291  53.799  1.00  0.00     0.280 HD
HETATM   28  C   UNL     1       7.903  20.869  53.313  1.00  0.00     0.270 C 
HETATM   29  C   UNL     1       7.369  26.845  54.031  1.00  0.00     0.030 A 
ENDBRANCH   2  19
TORSDOF 4
ENDMDL
MODEL 5
REMARK VINA RESULT:      -8.6      3.764     10.538
REMARK  4 active torsions:
REMARK  status: ('A' for Active; 'I' for Inactive)
REMARK    1  A    between atoms: C_4  and  C_5 
REMARK       I    between atoms: C_5  and  N_6 
REMARK    2  A    between atoms: N_6  and  C_7 
REMARK    3  A    between atoms: C_20  and  C_21 
REMARK    4  A    between atoms: C_24  and  O_25 
ROOT
HETATM    1  C   UNL     1       5.793  28.446  55.281  1.00  0.00     0.263 C 
HETATM    2  N   UNL     1       6.959  27.695  55.317  1.00  0.00    -0.323 N 
HETATM    3  O   UNL     1       4.840  28.188  54.547  1.00  0.00    -0.267 OA
HETATM    4  H   UNL     1       7.713  28.104  55.859  1.00  0.00     0.169 HD
ENDROOT
BRANCH   1   5
HETATM    5  C   UNL     1       5.781  29.599  56.177  1.00  0.00     0.074 A 
HETATM    6  S   UNL     1       4.881  31.011  55.832  1.00  0.00    -0.089 SA
HETATM    7  C   UNL     1       5.501  31.844  57.197  1.00  0.00    -0.009 A 
HETATM    8  C   UNL     1       5.125  33.279  57.391  1.00  0.00     0.057 C 
HETATM    9  C   UNL     1       6.314  31.027  57.968  1.00  0.00    -0.012 A 
HETATM   10  C   UNL     1       6.490  29.743  57.353  1.00  0.00     0.038 A 
BRANCH   9  11
HETATM   11  C   UNL     1       6.957  31.477  59.200  1.00  0.00    -0.025 A 
HETATM   12  C   UNL     1       6.181  31.967  60.254  1.00  0.00     0.015 A 
HETATM   13  C   UNL     1       6.788  32.391  61.440  1.00  0.00     0.037 A 
HETATM   14  C   UNL     1       8.174  32.324  61.594  1.00  0.00     0.068 A 
HETATM   15  C   UNL     1       8.956  31.861  60.537  1.00  0.00     0.037 A 
HETATM   16  C   UNL     1       8.351  31.447  59.343  1.00  0.00     0.015 A 
BRANCH  14  17
HETATM   17  O   UNL     1       8.637  32.750  62.808  1.00  0.00    -0.356 OA
HETATM   18  C   UNL     1       7.712  32.729  63.888  1.00  0.00     0.210 C 
ENDBRANCH  14  17
ENDBRANCH   9  11
ENDBRANCH   1   5
BRANCH   2  19
HETATM   19  C   UNL     1       7.213  26.460  54.692  1.00  0.00     0.035 A 
HETATM   20  C   UNL     1       7.171  25.236  55.366  1.00  0.00     0.039 A 
HETATM   21  C   UNL     1       7.496  24.080  54.672  1.00  0.00    -0.022 A 
HETATM   22  C   UNL     1       7.839  24.115  53.317  1.00  0.00    -0.025 A 
HETATM   23  C   UNL     1       7.528  22.680  55.183  1.00  0.00     0.274 C 
HETATM   24  C   UNL     1       8.116  22.736  52.820  1.00  0.00     0.273 C 
HETATM   25  C   UNL     1       7.870  25.314  52.628  1.00  0.00     0.012 A 
HETATM   26  N   UNL     1       8.250  21.904  54.088  1.00  0.00    -0.067 N 
HETATM   27  H   UNL     1       9.245  21.937  54.339  1.00  0.00     0.280 HD
HETATM   28  C   UNL     1       7.839  20.484  53.955  1.00  0.00     0.270 C 
HETATM   29  C   UNL     1       7.568  26.488  53.329  1.00  0.00     0.030 A 
ENDBRANCH   2  19
TORSDOF 4
ENDMDL
MODEL 6
REMARK VINA RESULT:      -8.3      3.693     10.070
REMARK  4 active torsions:
REMARK  status: ('A' for Active; 'I' for Inactive)
REMARK    1  A    between atoms: C_4  and  C_5 
REMARK       I    between atoms: C_5  and  N_6 
REMARK    2  A    between atoms: N_6  and  C_7 
REMARK    3  A    between atoms: C_20  and  C_21 
REMARK    4  A    between atoms: C_24  and  O_25 
ROOT
HETATM    1  C   UNL     1       8.344  28.653  57.506  1.00  0.00     0.263 C 
HETATM    2  N   UNL     1       7.407  27.635  57.406  1.00  0.00    -0.323 N 
HETATM    3  O   UNL     1       9.491  28.568  57.070  1.00  0.00    -0.267 OA
HETATM    4  H   UNL     1       6.554  27.787  57.933  1.00  0.00     0.169 HD
ENDROOT
BRANCH   1   5
HETATM    5  C   UNL     1       7.873  29.851  58.196  1.00  0.00     0.074 A 
HETATM    6  S   UNL     1       8.801  30.632  59.400  1.00  0.00    -0.089 SA
HETATM    7  C   UNL     1       7.551  31.749  59.761  1.00  0.00    -0.009 A 
HETATM    8  C   UNL     1       7.753  32.706  60.895  1.00  0.00     0.057 C 
HETATM    9  C   UNL     1       6.467  31.596  58.910  1.00  0.00    -0.012 A 
HETATM   10  C   UNL     1       6.654  30.478  58.031  1.00  0.00     0.038 A 
BRANCH   9  11
HETATM   11  C   UNL     1       5.272  32.432  58.983  1.00  0.00    -0.025 A 
HETATM   12  C   UNL     1       4.348  32.240  60.015  1.00  0.00     0.015 A 
HETATM   13  C   UNL     1       3.206  33.043  60.098  1.00  0.00     0.037 A 
HETATM   14  C   UNL     1       2.974  34.051  59.160  1.00  0.00     0.068 A 
HETATM   15  C   UNL     1       3.879  34.230  58.114  1.00  0.00     0.037 A 
HETATM   16  C   UNL     1       5.017  33.419  58.022  1.00  0.00     0.015 A 
BRANCH  14  17
HETATM   17  O   UNL     1       1.834  34.775  59.367  1.00  0.00    -0.356 OA
HETATM   18  C   UNL     1       1.631  35.902  58.523  1.00  0.00     0.210 C 
ENDBRANCH  14  17
ENDBRANCH   9  11
ENDBRANCH   1   5
BRANCH   2  19
HETATM   19  C   UNL     1       7.507  26.435  56.678  1.00  0.00     0.035 A 
HETATM   20  C   UNL     1       7.875  25.215  57.255  1.00  0.00     0.039 A 
HETATM   21  C   UNL     1       8.001  24.101  56.439  1.00  0.00    -0.022 A 
HETATM   22  C   UNL     1       7.746  24.171  55.066  1.00  0.00    -0.025 A 
HETATM   23  C   UNL     1       8.387  22.715  56.830  1.00  0.00     0.274 C 
HETATM   24  C   UNL     1       7.933  22.830  54.439  1.00  0.00     0.273 C 
HETATM   25  C   UNL     1       7.364  25.363  54.479  1.00  0.00     0.012 A 
HETATM   26  N   UNL     1       8.666  22.022  55.501  1.00  0.00    -0.067 N 
HETATM   27  H   UNL     1       9.666  22.167  55.321  1.00  0.00     0.280 HD
HETATM   28  C   UNL     1       8.387  20.564  55.487  1.00  0.00     0.270 C 
HETATM   29  C   UNL     1       7.259  26.498  55.292  1.00  0.00     0.030 A 
ENDBRANCH   2  19
TORSDOF 4
ENDMDL
MODEL 7
REMARK VINA RESULT:      -8.3      2.249      2.718
REMARK  4 active torsions:
REMARK  status: ('A' for Active; 'I' for Inactive)
REMARK    1  A    between atoms: C_4  and  C_5 
REMARK       I    between atoms: C_5  and  N_6 
REMARK    2  A    between atoms: N_6  and  C_7 
REMARK    3  A    between atoms: C_20  and  C_21 
REMARK    4  A    between atoms: C_24  and  O_25 
ROOT
HETATM    1  C   UNL     1       5.334  32.669  59.960  1.00  0.00     0.263 C 
HETATM    2  N   UNL     1       5.772  31.938  61.055  1.00  0.00    -0.323 N 
HETATM    3  O   UNL     1       5.004  33.852  60.020  1.00  0.00    -0.267 OA
HETATM    4  H   UNL     1       5.871  30.942  60.890  1.00  0.00     0.169 HD
ENDROOT
BRANCH   1   5
HETATM    5  C   UNL     1       5.269  31.917  58.710  1.00  0.00     0.074 A 
HETATM    6  S   UNL     1       4.262  32.392  57.413  1.00  0.00    -0.089 SA
HETATM    7  C   UNL     1       4.645  30.998  56.491  1.00  0.00    -0.009 A 
HETATM    8  C   UNL     1       3.936  30.783  55.191  1.00  0.00     0.057 C 
HETATM    9  C   UNL     1       5.606  30.219  57.119  1.00  0.00    -0.012 A 
HETATM   10  C   UNL     1       5.936  30.746  58.411  1.00  0.00     0.038 A 
BRANCH   9  11
HETATM   11  C   UNL     1       6.130  28.983  56.543  1.00  0.00    -0.025 A 
HETATM   12  C   UNL     1       5.543  27.756  56.869  1.00  0.00     0.015 A 
HETATM   13  C   UNL     1       6.033  26.570  56.314  1.00  0.00     0.037 A 
HETATM   14  C   UNL     1       7.108  26.591  55.424  1.00  0.00     0.068 A 
HETATM   15  C   UNL     1       7.714  27.808  55.115  1.00  0.00     0.037 A 
HETATM   16  C   UNL     1       7.233  28.997  55.679  1.00  0.00     0.015 A 
BRANCH  14  17
HETATM   17  O   UNL     1       7.475  25.366  54.939  1.00  0.00    -0.356 OA
HETATM   18  C   UNL     1       8.010  24.442  55.878  1.00  0.00     0.210 C 
ENDBRANCH  14  17
ENDBRANCH   9  11
ENDBRANCH   1   5
BRANCH   2  19
HETATM   19  C   UNL     1       6.080  32.410  62.344  1.00  0.00     0.035 A 
HETATM   20  C   UNL     1       5.110  32.825  63.262  1.00  0.00     0.039 A 
HETATM   21  C   UNL     1       5.521  33.329  64.486  1.00  0.00    -0.022 A 
HETATM   22  C   UNL     1       6.876  33.405  64.825  1.00  0.00    -0.025 A 
HETATM   23  C   UNL     1       4.674  33.835  65.604  1.00  0.00     0.274 C 
HETATM   24  C   UNL     1       7.032  33.960  66.201  1.00  0.00     0.273 C 
HETATM   25  C   UNL     1       7.850  32.983  63.939  1.00  0.00     0.012 A 
HETATM   26  N   UNL     1       5.662  34.539  66.527  1.00  0.00    -0.067 N 
HETATM   27  H   UNL     1       5.689  35.514  66.207  1.00  0.00     0.280 HD
HETATM   28  C   UNL     1       5.295  34.519  67.964  1.00  0.00     0.270 C 
HETATM   29  C   UNL     1       7.443  32.497  62.691  1.00  0.00     0.030 A 
ENDBRANCH   2  19
TORSDOF 4
ENDMDL
MODEL 8
REMARK VINA RESULT:      -8.2      3.366     10.067
REMARK  4 active torsions:
REMARK  status: ('A' for Active; 'I' for Inactive)
REMARK    1  A    between atoms: C_4  and  C_5 
REMARK       I    between atoms: C_5  and  N_6 
REMARK    2  A    between atoms: N_6  and  C_7 
REMARK    3  A    between atoms: C_20  and  C_21 
REMARK    4  A    between atoms: C_24  and  O_25 
ROOT
HETATM    1  C   UNL     1       8.237  29.338  56.599  1.00  0.00     0.263 C 
HETATM    2  N   UNL     1       7.117  28.523  56.512  1.00  0.00    -0.323 N 
HETATM    3  O   UNL     1       9.135  29.352  55.760  1.00  0.00    -0.267 OA
HETATM    4  H   UNL     1       6.533  28.510  57.341  1.00  0.00     0.169 HD
ENDROOT
BRANCH   1   5
HETATM    5  C   UNL     1       8.287  30.180  57.791  1.00  0.00     0.074 A 
HETATM    6  S   UNL     1       9.761  30.752  58.440  1.00  0.00    -0.089 SA
HETATM    7  C   UNL     1       8.988  31.464  59.795  1.00  0.00    -0.009 A 
HETATM    8  C   UNL     1       9.838  32.083  60.860  1.00  0.00     0.057 C 
HETATM    9  C   UNL     1       7.608  31.355  59.712  1.00  0.00    -0.012 A 
HETATM   10  C   UNL     1       7.218  30.587  58.565  1.00  0.00     0.038 A 
BRANCH   9  11
HETATM   11  C   UNL     1       6.703  31.895  60.724  1.00  0.00    -0.025 A 
HETATM   12  C   UNL     1       6.846  31.515  62.062  1.00  0.00     0.015 A 
HETATM   13  C   UNL     1       5.991  32.035  63.038  1.00  0.00     0.037 A 
HETATM   14  C   UNL     1       4.988  32.943  62.695  1.00  0.00     0.068 A 
HETATM   15  C   UNL     1       4.823  33.305  61.359  1.00  0.00     0.037 A 
HETATM   16  C   UNL     1       5.671  32.776  60.377  1.00  0.00     0.015 A 
BRANCH  14  17
HETATM   17  O   UNL     1       4.235  33.390  63.746  1.00  0.00    -0.356 OA
HETATM   18  C   UNL     1       4.907  33.555  64.988  1.00  0.00     0.210 C 
ENDBRANCH  14  17
ENDBRANCH   9  11
ENDBRANCH   1   5
BRANCH   2  19
HETATM   19  C   UNL     1       6.712  27.721  55.429  1.00  0.00     0.035 A 
HETATM   20  C   UNL     1       6.227  28.243  54.226  1.00  0.00     0.039 A 
HETATM   21  C   UNL     1       5.798  27.366  53.241  1.00  0.00    -0.022 A 
HETATM   22  C   UNL     1       5.864  25.981  53.421  1.00  0.00    -0.025 A 
HETATM   23  C   UNL     1       5.240  27.693  51.898  1.00  0.00     0.274 C 
HETATM   24  C   UNL     1       5.364  25.280  52.203  1.00  0.00     0.273 C 
HETATM   25  C   UNL     1       6.357  25.444  54.596  1.00  0.00     0.012 A 
HETATM   26  N   UNL     1       4.662  26.371  51.407  1.00  0.00    -0.067 N 
HETATM   27  H   UNL     1       3.686  26.364  51.725  1.00  0.00     0.280 HD
HETATM   28  C   UNL     1       4.683  26.190  49.934  1.00  0.00     0.270 C 
HETATM   29  C   UNL     1       6.768  26.324  55.604  1.00  0.00     0.030 A 
ENDBRANCH   2  19
TORSDOF 4
ENDMDL
MODEL 9
REMARK VINA RESULT:      -7.9      6.377     13.664
REMARK  4 active torsions:
REMARK  status: ('A' for Active; 'I' for Inactive)
REMARK    1  A    between atoms: C_4  and  C_5 
REMARK       I    between atoms: C_5  and  N_6 
REMARK    2  A    between atoms: N_6  and  C_7 
REMARK    3  A    between atoms: C_20  and  C_21 
REMARK    4  A    between atoms: C_24  and  O_25 
ROOT
HETATM    1  C   UNL     1       5.889  34.187  67.194  1.00  0.00     0.263 C 
HETATM    2  N   UNL     1       6.953  34.233  66.305  1.00  0.00    -0.323 N 
HETATM    3  O   UNL     1       4.730  33.953  66.858  1.00  0.00    -0.267 OA
HETATM    4  H   UNL     1       7.823  34.577  66.697  1.00  0.00     0.169 HD
ENDROOT
BRANCH   1   5
HETATM    5  C   UNL     1       6.244  34.461  68.584  1.00  0.00     0.074 A 
HETATM    6  S   UNL     1       5.559  33.592  69.887  1.00  0.00    -0.089 SA
HETATM    7  C   UNL     1       6.335  34.571  71.062  1.00  0.00    -0.009 A 
HETATM    8  C   UNL     1       6.020  34.340  72.507  1.00  0.00     0.057 C 
HETATM    9  C   UNL     1       7.187  35.495  70.475  1.00  0.00    -0.012 A 
HETATM   10  C   UNL     1       7.103  35.440  69.044  1.00  0.00     0.038 A 
BRANCH   9  11
HETATM   11  C   UNL     1       7.989  36.441  71.246  1.00  0.00    -0.025 A 
HETATM   12  C   UNL     1       8.014  37.792  70.885  1.00  0.00     0.015 A 
HETATM   13  C   UNL     1       8.772  38.706  71.623  1.00  0.00     0.037 A 
HETATM   14  C   UNL     1       9.507  38.288  72.734  1.00  0.00     0.068 A 
HETATM   15  C   UNL     1       9.507  36.938  73.083  1.00  0.00     0.037 A 
HETATM   16  C   UNL     1       8.759  36.019  72.337  1.00  0.00     0.015 A 
BRANCH  14  17
HETATM   17  O   UNL     1      10.187  39.284  73.379  1.00  0.00    -0.356 OA
HETATM   18  C   UNL     1      11.546  39.021  73.707  1.00  0.00     0.210 C 
ENDBRANCH  14  17
ENDBRANCH   9  11
ENDBRANCH   1   5
BRANCH   2  19
HETATM   19  C   UNL     1       6.961  33.873  64.945  1.00  0.00     0.035 A 
HETATM   20  C   UNL     1       7.685  32.788  64.442  1.00  0.00     0.039 A 
HETATM   21  C   UNL     1       7.673  32.552  63.076  1.00  0.00    -0.022 A 
HETATM   22  C   UNL     1       6.937  33.359  62.203  1.00  0.00    -0.025 A 
HETATM   23  C   UNL     1       8.373  31.471  62.323  1.00  0.00     0.274 C 
HETATM   24  C   UNL     1       7.082  32.869  60.802  1.00  0.00     0.273 C 
HETATM   25  C   UNL     1       6.199  34.427  62.682  1.00  0.00     0.012 A 
HETATM   26  N   UNL     1       8.256  31.902  60.866  1.00  0.00    -0.067 N 
HETATM   27  H   UNL     1       9.093  32.468  60.679  1.00  0.00     0.280 HD
HETATM   28  C   UNL     1       8.208  30.787  59.888  1.00  0.00     0.270 C 
HETATM   29  C   UNL     1       6.227  34.686  64.058  1.00  0.00     0.030 A 
ENDBRANCH   2  19
TORSDOF 4
ENDMDL
MODEL 10
REMARK VINA RESULT:      -7.9      8.089     11.540
REMARK  4 active torsions:
REMARK  status: ('A' for Active; 'I' for Inactive)
REMARK    1  A    between atoms: C_4  and  C_5 
REMARK       I    between atoms: C_5  and  N_6 
REMARK    2  A    between atoms: N_6  and  C_7 
REMARK    3  A    between atoms: C_20  and  C_21 
REMARK    4  A    between atoms: C_24  and  O_25 
ROOT
HETATM    1  C   UNL     1       4.728  27.824  52.056  1.00  0.00     0.263 C 
HETATM    2  N   UNL     1       5.336  27.972  50.818  1.00  0.00    -0.323 N 
HETATM    3  O   UNL     1       3.665  28.362  52.361  1.00  0.00    -0.267 OA
HETATM    4  H   UNL     1       6.274  27.592  50.755  1.00  0.00     0.169 HD
ENDROOT
BRANCH   1   5
HETATM    5  C   UNL     1       5.461  26.984  52.999  1.00  0.00     0.074 A 
HETATM    6  S   UNL     1       6.046  27.585  54.488  1.00  0.00    -0.089 SA
HETATM    7  C   UNL     1       6.848  26.117  54.865  1.00  0.00    -0.009 A 
HETATM    8  C   UNL     1       7.687  26.057  56.103  1.00  0.00     0.057 C 
HETATM    9  C   UNL     1       6.597  25.139  53.914  1.00  0.00    -0.012 A 
HETATM   10  C   UNL     1       5.820  25.662  52.828  1.00  0.00     0.038 A 
BRANCH   9  11
HETATM   11  C   UNL     1       7.141  23.786  53.999  1.00  0.00    -0.025 A 
HETATM   12  C   UNL     1       7.193  23.131  55.233  1.00  0.00     0.015 A 
HETATM   13  C   UNL     1       7.702  21.832  55.322  1.00  0.00     0.037 A 
HETATM   14  C   UNL     1       8.159  21.167  54.183  1.00  0.00     0.068 A 
HETATM   15  C   UNL     1       8.134  21.824  52.953  1.00  0.00     0.037 A 
HETATM   16  C   UNL     1       7.635  23.130  52.864  1.00  0.00     0.015 A 
BRANCH  14  17
HETATM   17  O   UNL     1       8.612  19.896  54.403  1.00  0.00    -0.356 OA
HETATM   18  C   UNL     1       8.997  19.578  55.735  1.00  0.00     0.210 C 
ENDBRANCH  14  17
ENDBRANCH   9  11
ENDBRANCH   1   5
BRANCH   2  19
HETATM   19  C   UNL     1       4.813  28.587  49.665  1.00  0.00     0.035 A 
HETATM   20  C   UNL     1       5.043  29.926  49.337  1.00  0.00     0.039 A 
HETATM   21  C   UNL     1       4.434  30.452  48.208  1.00  0.00    -0.022 A 
HETATM   22  C   UNL     1       3.620  29.666  47.386  1.00  0.00    -0.025 A 
HETATM   23  C   UNL     1       4.527  31.842  47.676  1.00  0.00     0.274 C 
HETATM   24  C   UNL     1       3.117  30.473  46.237  1.00  0.00     0.273 C 
HETATM   25  C   UNL     1       3.394  28.334  47.683  1.00  0.00     0.012 A 
HETATM   26  N   UNL     1       3.419  31.912  46.632  1.00  0.00    -0.067 N 
HETATM   27  H   UNL     1       2.587  32.242  47.135  1.00  0.00     0.280 HD
HETATM   28  C   UNL     1       3.686  32.833  45.500  1.00  0.00     0.270 C 
HETATM   29  C   UNL     1       3.986  27.803  48.835  1.00  0.00     0.030 A 
ENDBRANCH   2  19
TORSDOF 4
ENDMDL
