MODEL 1
REMARK VINA RESULT:     -10.2      0.000      0.000
REMARK  7 active torsions:
REMARK  status: ('A' for Active; 'I' for Inactive)
REMARK    1  A    between atoms: C_2  and  C_3 
REMARK       I    between atoms: C_3  and  N_4 
REMARK    2  A    between atoms: N_4  and  N_5 
REMARK       I    between atoms: N_5  and  C_6 
REMARK    3  A    between atoms: C_6  and  C_7 
REMARK    4  A    between atoms: C_7  and  C_8 
REMARK    5  A    between atoms: C_8  and  C_9 
REMARK       I    between atoms: C_9  and  N_10 
REMARK    6  A    between atoms: N_10  and  C_11 
REMARK    7  A    between atoms: C_11  and  C_12 
ROOT
HETATM    1  C   UNL     1       7.438  29.922  58.318  1.00  0.00     0.114 C 
ENDROOT
BRANCH   1   2
HETATM    2  C   UNL     1       7.185  28.657  57.534  1.00  0.00     0.236 C 
HETATM    3  N   UNL     1       8.279  27.840  57.377  1.00  0.00    -0.267 N 
HETATM    4  H   UNL     1       9.236  28.144  57.561  1.00  0.00     0.190 HD
HETATM    5  O   UNL     1       6.089  28.414  57.027  1.00  0.00    -0.272 OA
BRANCH   3   6
HETATM    6  N   UNL     1       8.145  26.719  56.548  1.00  0.00    -0.263 N 
HETATM    7  C   UNL     1       8.242  25.471  57.130  1.00  0.00     0.270 C 
HETATM    8  O   UNL     1       8.401  25.318  58.338  1.00  0.00    -0.266 OA
HETATM    9  H   UNL     1       8.268  26.883  55.550  1.00  0.00     0.190 HD
BRANCH   7  10
HETATM   10  C   UNL     1       8.160  24.300  56.211  1.00  0.00     0.033 A 
HETATM   11  C   UNL     1       7.872  24.533  54.858  1.00  0.00     0.018 A 
HETATM   12  C   UNL     1       7.810  23.468  53.956  1.00  0.00     0.020 A 
HETATM   13  C   UNL     1       8.046  22.169  54.403  1.00  0.00     0.011 A 
HETATM   14  C   UNL     1       8.345  21.926  55.743  1.00  0.00     0.020 A 
HETATM   15 BR   UNL     1       7.977  20.728  53.182  1.00  0.00    -0.051 Br
HETATM   16  C   UNL     1       8.405  22.990  56.648  1.00  0.00     0.018 A 
ENDBRANCH   7  10
ENDBRANCH   3   6
ENDBRANCH   1   2
BRANCH   1  17
HETATM   17  C   UNL     1       8.934  30.179  58.424  1.00  0.00     0.112 C 
BRANCH  17  18
HETATM   18  C   UNL     1       9.267  31.274  59.418  1.00  0.00     0.218 C 
HETATM   19  N   UNL     1       9.042  30.945  60.730  1.00  0.00    -0.357 N 
HETATM   20  H   UNL     1       8.969  29.964  60.995  1.00  0.00     0.162 HD
HETATM   21  O   UNL     1       9.656  32.380  59.053  1.00  0.00    -0.274 OA
BRANCH  19  22
HETATM   22  C   UNL     1       9.291  31.881  61.802  1.00  0.00     0.161 C 
BRANCH  22  23
HETATM   23  C   UNL     1       8.009  32.176  62.539  1.00  0.00    -0.038 A 
HETATM   24  C   UNL     1       8.019  32.934  63.719  1.00  0.00     0.048 A 
HETATM   25  C   UNL     1       6.817  33.146  64.363  1.00  0.00     0.105 A 
HETATM   26  C   UNL     1       5.634  32.639  63.880  1.00  0.00     0.105 A 
HETATM   27  O   UNL     1       6.647  33.851  65.515  1.00  0.00    -0.323 OA
HETATM   28  O   UNL     1       4.571  32.957  64.667  1.00  0.00    -0.323 OA
HETATM   29  C   UNL     1       5.582  31.893  62.724  1.00  0.00     0.040 A 
HETATM   30  C   UNL     1       5.220  33.732  65.697  1.00  0.00     0.352 A 
HETATM   31  C   UNL     1       6.784  31.663  62.048  1.00  0.00     0.012 A 
ENDBRANCH  22  23
ENDBRANCH  19  22
ENDBRANCH  17  18
ENDBRANCH   1  17
TORSDOF 7
ENDMDL
MODEL 2
REMARK VINA RESULT:      -9.9      4.156     11.450
REMARK  7 active torsions:
REMARK  status: ('A' for Active; 'I' for Inactive)
REMARK    1  A    between atoms: C_2  and  C_3 
REMARK       I    between atoms: C_3  and  N_4 
REMARK    2  A    between atoms: N_4  and  N_5 
REMARK       I    between atoms: N_5  and  C_6 
REMARK    3  A    between atoms: C_6  and  C_7 
REMARK    4  A    between atoms: C_7  and  C_8 
REMARK    5  A    between atoms: C_8  and  C_9 
REMARK       I    between atoms: C_9  and  N_10 
REMARK    6  A    between atoms: N_10  and  C_11 
REMARK    7  A    between atoms: C_11  and  C_12 
ROOT
HETATM    1  C   UNL     1       8.701  29.141  57.466  1.00  0.00     0.114 C 
ENDROOT
BRANCH   1   2
HETATM    2  C   UNL     1       7.864  29.929  58.444  1.00  0.00     0.236 C 
HETATM    3  N   UNL     1       8.420  30.089  59.691  1.00  0.00    -0.267 N 
HETATM    4  H   UNL     1       9.215  29.543  60.023  1.00  0.00     0.190 HD
HETATM    5  O   UNL     1       6.741  30.343  58.153  1.00  0.00    -0.272 OA
BRANCH   3   6
HETATM    6  N   UNL     1       7.638  30.694  60.682  1.00  0.00    -0.263 N 
HETATM    7  C   UNL     1       8.259  31.572  61.549  1.00  0.00     0.270 C 
HETATM    8  O   UNL     1       9.449  31.862  61.452  1.00  0.00    -0.266 OA
HETATM    9  H   UNL     1       6.746  30.247  60.884  1.00  0.00     0.190 HD
BRANCH   7  10
HETATM   10  C   UNL     1       7.414  32.148  62.633  1.00  0.00     0.033 A 
HETATM   11  C   UNL     1       8.051  32.800  63.699  1.00  0.00     0.018 A 
HETATM   12  C   UNL     1       7.297  33.377  64.725  1.00  0.00     0.020 A 
HETATM   13  C   UNL     1       5.906  33.311  64.681  1.00  0.00     0.011 A 
HETATM   14  C   UNL     1       5.261  32.675  63.621  1.00  0.00     0.020 A 
HETATM   15 BR   UNL     1       4.884  34.102  66.061  1.00  0.00    -0.051 Br
HETATM   16  C   UNL     1       6.013  32.096  62.594  1.00  0.00     0.018 A 
ENDBRANCH   7  10
ENDBRANCH   3   6
ENDBRANCH   1   2
BRANCH   1  17
HETATM   17  C   UNL     1       8.194  27.710  57.381  1.00  0.00     0.112 C 
BRANCH  17  18
HETATM   18  C   UNL     1       7.711  27.346  55.990  1.00  0.00     0.218 C 
HETATM   19  N   UNL     1       7.447  26.013  55.805  1.00  0.00    -0.357 N 
HETATM   20  H   UNL     1       7.292  25.416  56.616  1.00  0.00     0.162 HD
HETATM   21  O   UNL     1       7.622  28.185  55.099  1.00  0.00    -0.274 OA
BRANCH  19  22
HETATM   22  C   UNL     1       6.996  25.496  54.535  1.00  0.00     0.161 C 
BRANCH  22  23
HETATM   23  C   UNL     1       7.343  24.034  54.418  1.00  0.00    -0.038 A 
HETATM   24  C   UNL     1       7.482  23.235  55.562  1.00  0.00     0.048 A 
HETATM   25  C   UNL     1       7.829  21.911  55.391  1.00  0.00     0.105 A 
HETATM   26  C   UNL     1       8.038  21.370  54.144  1.00  0.00     0.105 A 
HETATM   27  O   UNL     1       8.008  21.001  56.387  1.00  0.00    -0.323 OA
HETATM   28  O   UNL     1       8.377  20.054  54.198  1.00  0.00    -0.323 OA
HETATM   29  C   UNL     1       7.909  22.119  52.997  1.00  0.00     0.040 A 
HETATM   30  C   UNL     1       8.349  19.826  55.623  1.00  0.00     0.352 A 
HETATM   31  C   UNL     1       7.556  23.464  53.139  1.00  0.00     0.012 A 
ENDBRANCH  22  23
ENDBRANCH  19  22
ENDBRANCH  17  18
ENDBRANCH   1  17
TORSDOF 7
ENDMDL
MODEL 3
REMARK VINA RESULT:      -9.6      4.163     11.197
REMARK  7 active torsions:
REMARK  status: ('A' for Active; 'I' for Inactive)
REMARK    1  A    between atoms: C_2  and  C_3 
REMARK       I    between atoms: C_3  and  N_4 
REMARK    2  A    between atoms: N_4  and  N_5 
REMARK       I    between atoms: N_5  and  C_6 
REMARK    3  A    between atoms: C_6  and  C_7 
REMARK    4  A    between atoms: C_7  and  C_8 
REMARK    5  A    between atoms: C_8  and  C_9 
REMARK       I    between atoms: C_9  and  N_10 
REMARK    6  A    between atoms: N_10  and  C_11 
REMARK    7  A    between atoms: C_11  and  C_12 
ROOT
HETATM    1  C   UNL     1       6.952  29.390  56.172  1.00  0.00     0.114 C 
ENDROOT
BRANCH   1   2
HETATM    2  C   UNL     1       6.563  30.123  57.434  1.00  0.00     0.236 C 
HETATM    3  N   UNL     1       7.572  30.271  58.356  1.00  0.00    -0.267 N 
HETATM    4  H   UNL     1       8.445  29.745  58.319  1.00  0.00     0.190 HD
HETATM    5  O   UNL     1       5.409  30.504  57.636  1.00  0.00    -0.272 OA
BRANCH   3   6
HETATM    6  N   UNL     1       7.243  30.823  59.601  1.00  0.00    -0.263 N 
HETATM    7  C   UNL     1       7.944  31.937  60.019  1.00  0.00     0.270 C 
HETATM    8  O   UNL     1       8.806  32.472  59.325  1.00  0.00    -0.266 OA
HETATM    9  H   UNL     1       6.723  30.219  60.235  1.00  0.00     0.190 HD
BRANCH   7  10
HETATM   10  C   UNL     1       7.616  32.460  61.376  1.00  0.00     0.033 A 
HETATM   11  C   UNL     1       6.474  33.260  61.523  1.00  0.00     0.018 A 
HETATM   12  C   UNL     1       6.114  33.752  62.781  1.00  0.00     0.020 A 
HETATM   13  C   UNL     1       6.890  33.435  63.894  1.00  0.00     0.011 A 
HETATM   14  C   UNL     1       8.022  32.631  63.762  1.00  0.00     0.020 A 
HETATM   15 BR   UNL     1       6.398  34.087  65.598  1.00  0.00    -0.051 Br
HETATM   16  C   UNL     1       8.384  32.139  62.504  1.00  0.00     0.018 A 
ENDBRANCH   7  10
ENDBRANCH   3   6
ENDBRANCH   1   2
BRANCH   1  17
HETATM   17  C   UNL     1       6.604  27.915  56.300  1.00  0.00     0.112 C 
BRANCH  17  18
HETATM   18  C   UNL     1       7.763  27.087  56.818  1.00  0.00     0.218 C 
HETATM   19  N   UNL     1       7.590  25.730  56.717  1.00  0.00    -0.357 N 
HETATM   20  H   UNL     1       6.896  25.361  56.069  1.00  0.00     0.162 HD
HETATM   21  O   UNL     1       8.748  27.608  57.335  1.00  0.00    -0.274 OA
BRANCH  19  22
HETATM   22  C   UNL     1       8.591  24.799  57.181  1.00  0.00     0.161 C 
BRANCH  22  23
HETATM   23  C   UNL     1       8.485  23.502  56.419  1.00  0.00    -0.038 A 
HETATM   24  C   UNL     1       8.511  23.489  55.017  1.00  0.00     0.048 A 
HETATM   25  C   UNL     1       8.381  22.274  54.377  1.00  0.00     0.105 A 
HETATM   26  C   UNL     1       8.229  21.098  55.075  1.00  0.00     0.105 A 
HETATM   27  O   UNL     1       8.381  22.081  53.030  1.00  0.00    -0.323 OA
HETATM   28  O   UNL     1       8.111  20.019  54.255  1.00  0.00    -0.323 OA
HETATM   29  C   UNL     1       8.201  21.068  56.450  1.00  0.00     0.040 A 
HETATM   30  C   UNL     1       8.216  20.649  52.961  1.00  0.00     0.352 A 
HETATM   31  C   UNL     1       8.333  22.284  57.126  1.00  0.00     0.012 A 
ENDBRANCH  22  23
ENDBRANCH  19  22
ENDBRANCH  17  18
ENDBRANCH   1  17
TORSDOF 7
ENDMDL
MODEL 4
REMARK VINA RESULT:      -9.5      1.554      2.309
REMARK  7 active torsions:
REMARK  status: ('A' for Active; 'I' for Inactive)
REMARK    1  A    between atoms: C_2  and  C_3 
REMARK       I    between atoms: C_3  and  N_4 
REMARK    2  A    between atoms: N_4  and  N_5 
REMARK       I    between atoms: N_5  and  C_6 
REMARK    3  A    between atoms: C_6  and  C_7 
REMARK    4  A    between atoms: C_7  and  C_8 
REMARK    5  A    between atoms: C_8  and  C_9 
REMARK       I    between atoms: C_9  and  N_10 
REMARK    6  A    between atoms: N_10  and  C_11 
REMARK    7  A    between atoms: C_11  and  C_12 
ROOT
HETATM    1  C   UNL     1       7.162  29.709  57.986  1.00  0.00     0.114 C 
ENDROOT
BRANCH   1   2
HETATM    2  C   UNL     1       7.736  28.456  57.369  1.00  0.00     0.236 C 
HETATM    3  N   UNL     1       6.866  27.747  56.575  1.00  0.00    -0.267 N 
HETATM    4  H   UNL     1       5.858  27.903  56.571  1.00  0.00     0.190 HD
HETATM    5  O   UNL     1       8.881  28.075  57.615  1.00  0.00    -0.272 OA
BRANCH   3   6
HETATM    6  N   UNL     1       7.294  26.508  56.082  1.00  0.00    -0.263 N 
HETATM    7  C   UNL     1       6.807  26.097  54.857  1.00  0.00     0.270 C 
HETATM    8  O   UNL     1       6.053  26.793  54.181  1.00  0.00    -0.266 OA
HETATM    9  H   UNL     1       7.700  25.870  56.765  1.00  0.00     0.190 HD
BRANCH   7  10
HETATM   10  C   UNL     1       7.229  24.745  54.392  1.00  0.00     0.033 A 
HETATM   11  C   UNL     1       7.271  23.701  55.327  1.00  0.00     0.018 A 
HETATM   12  C   UNL     1       7.636  22.412  54.931  1.00  0.00     0.020 A 
HETATM   13  C   UNL     1       7.951  22.163  53.596  1.00  0.00     0.011 A 
HETATM   14  C   UNL     1       7.902  23.190  52.654  1.00  0.00     0.020 A 
HETATM   15 BR   UNL     1       8.433  20.418  53.054  1.00  0.00    -0.051 Br
HETATM   16  C   UNL     1       7.538  24.482  53.050  1.00  0.00     0.018 A 
ENDBRANCH   7  10
ENDBRANCH   3   6
ENDBRANCH   1   2
BRANCH   1  17
HETATM   17  C   UNL     1       8.046  30.176  59.133  1.00  0.00     0.112 C 
BRANCH  17  18
HETATM   18  C   UNL     1       7.779  31.616  59.524  1.00  0.00     0.218 C 
HETATM   19  N   UNL     1       6.575  31.829  60.145  1.00  0.00    -0.357 N 
HETATM   20  H   UNL     1       6.085  31.043  60.570  1.00  0.00     0.162 HD
HETATM   21  O   UNL     1       8.568  32.516  59.248  1.00  0.00    -0.274 OA
BRANCH  19  22
HETATM   22  C   UNL     1       6.158  33.145  60.565  1.00  0.00     0.161 C 
BRANCH  22  23
HETATM   23  C   UNL     1       6.198  33.245  62.069  1.00  0.00    -0.038 A 
HETATM   24  C   UNL     1       5.026  33.478  62.804  1.00  0.00     0.048 A 
HETATM   25  C   UNL     1       5.132  33.587  64.175  1.00  0.00     0.105 A 
HETATM   26  C   UNL     1       6.340  33.475  64.822  1.00  0.00     0.105 A 
HETATM   27  O   UNL     1       4.102  33.814  65.036  1.00  0.00    -0.323 OA
HETATM   28  O   UNL     1       6.224  33.622  66.170  1.00  0.00    -0.323 OA
HETATM   29  C   UNL     1       7.511  33.245  64.138  1.00  0.00     0.040 A 
HETATM   30  C   UNL     1       4.802  33.828  66.298  1.00  0.00     0.352 A 
HETATM   31  C   UNL     1       7.436  33.127  62.747  1.00  0.00     0.012 A 
ENDBRANCH  22  23
ENDBRANCH  19  22
ENDBRANCH  17  18
ENDBRANCH   1  17
TORSDOF 7
ENDMDL
MODEL 5
REMARK VINA RESULT:      -9.4      4.612     11.054
REMARK  7 active torsions:
REMARK  status: ('A' for Active; 'I' for Inactive)
REMARK    1  A    between atoms: C_2  and  C_3 
REMARK       I    between atoms: C_3  and  N_4 
REMARK    2  A    between atoms: N_4  and  N_5 
REMARK       I    between atoms: N_5  and  C_6 
REMARK    3  A    between atoms: C_6  and  C_7 
REMARK    4  A    between atoms: C_7  and  C_8 
REMARK    5  A    between atoms: C_8  and  C_9 
REMARK       I    between atoms: C_9  and  N_10 
REMARK    6  A    between atoms: N_10  and  C_11 
REMARK    7  A    between atoms: C_11  and  C_12 
ROOT
HETATM    1  C   UNL     1       9.768  29.780  57.873  1.00  0.00     0.114 C 
ENDROOT
BRANCH   1   2
HETATM    2  C   UNL     1       9.190  30.739  58.886  1.00  0.00     0.236 C 
HETATM    3  N   UNL     1       8.342  30.171  59.807  1.00  0.00    -0.267 N 
HETATM    4  H   UNL     1       7.942  29.239  59.700  1.00  0.00     0.190 HD
HETATM    5  O   UNL     1       9.421  31.948  58.844  1.00  0.00    -0.272 OA
BRANCH   3   6
HETATM    6  N   UNL     1       7.669  31.025  60.690  1.00  0.00    -0.263 N 
HETATM    7  C   UNL     1       8.109  31.082  61.997  1.00  0.00     0.270 C 
HETATM    8  O   UNL     1       9.083  30.444  62.392  1.00  0.00    -0.266 OA
HETATM    9  H   UNL     1       6.741  31.329  60.399  1.00  0.00     0.190 HD
BRANCH   7  10
HETATM   10  C   UNL     1       7.331  31.950  62.925  1.00  0.00     0.033 A 
HETATM   11  C   UNL     1       5.931  31.874  62.892  1.00  0.00     0.018 A 
HETATM   12  C   UNL     1       5.161  32.650  63.763  1.00  0.00     0.020 A 
HETATM   13  C   UNL     1       5.790  33.497  64.673  1.00  0.00     0.011 A 
HETATM   14  C   UNL     1       7.182  33.573  64.723  1.00  0.00     0.020 A 
HETATM   15 BR   UNL     1       4.752  34.539  65.860  1.00  0.00    -0.051 Br
HETATM   16  C   UNL     1       7.954  32.798  63.852  1.00  0.00     0.018 A 
ENDBRANCH   7  10
ENDBRANCH   3   6
ENDBRANCH   1   2
BRANCH   1  17
HETATM   17  C   UNL     1       8.761  29.526  56.762  1.00  0.00     0.112 C 
BRANCH  17  18
HETATM   18  C   UNL     1       8.132  28.150  56.851  1.00  0.00     0.218 C 
HETATM   19  N   UNL     1       7.654  27.659  55.663  1.00  0.00    -0.357 N 
HETATM   20  H   UNL     1       7.990  28.056  54.786  1.00  0.00     0.162 HD
HETATM   21  O   UNL     1       8.020  27.560  57.922  1.00  0.00    -0.274 OA
BRANCH  19  22
HETATM   22  C   UNL     1       7.010  26.370  55.576  1.00  0.00     0.161 C 
BRANCH  22  23
HETATM   23  C   UNL     1       6.417  26.179  54.203  1.00  0.00    -0.038 A 
HETATM   24  C   UNL     1       6.357  27.244  53.292  1.00  0.00     0.048 A 
HETATM   25  C   UNL     1       5.778  27.013  52.062  1.00  0.00     0.105 A 
HETATM   26  C   UNL     1       5.267  25.783  51.718  1.00  0.00     0.105 A 
HETATM   27  O   UNL     1       5.634  27.930  51.067  1.00  0.00    -0.323 OA
HETATM   28  O   UNL     1       4.736  25.772  50.466  1.00  0.00    -0.323 OA
HETATM   29  C   UNL     1       5.310  24.713  52.582  1.00  0.00     0.040 A 
HETATM   30  C   UNL     1       4.979  27.134  50.057  1.00  0.00     0.352 A 
HETATM   31  C   UNL     1       5.893  24.916  53.836  1.00  0.00     0.012 A 
ENDBRANCH  22  23
ENDBRANCH  19  22
ENDBRANCH  17  18
ENDBRANCH   1  17
TORSDOF 7
ENDMDL
MODEL 6
REMARK VINA RESULT:      -9.2      4.196     10.870
REMARK  7 active torsions:
REMARK  status: ('A' for Active; 'I' for Inactive)
REMARK    1  A    between atoms: C_2  and  C_3 
REMARK       I    between atoms: C_3  and  N_4 
REMARK    2  A    between atoms: N_4  and  N_5 
REMARK       I    between atoms: N_5  and  C_6 
REMARK    3  A    between atoms: C_6  and  C_7 
REMARK    4  A    between atoms: C_7  and  C_8 
REMARK    5  A    between atoms: C_8  and  C_9 
REMARK       I    between atoms: C_9  and  N_10 
REMARK    6  A    between atoms: N_10  and  C_11 
REMARK    7  A    between atoms: C_11  and  C_12 
ROOT
HETATM    1  C   UNL     1       8.306  29.803  57.711  1.00  0.00     0.114 C 
ENDROOT
BRANCH   1   2
HETATM    2  C   UNL     1       7.708  30.714  58.756  1.00  0.00     0.236 C 
HETATM    3  N   UNL     1       7.843  30.280  60.053  1.00  0.00    -0.267 N 
HETATM    4  H   UNL     1       8.111  29.327  60.300  1.00  0.00     0.190 HD
HETATM    5  O   UNL     1       7.095  31.738  58.452  1.00  0.00    -0.272 OA
BRANCH   3   6
HETATM    6  N   UNL     1       7.195  31.010  61.057  1.00  0.00    -0.263 N 
HETATM    7  C   UNL     1       7.977  31.713  61.952  1.00  0.00     0.270 C 
HETATM    8  O   UNL     1       9.202  31.747  61.871  1.00  0.00    -0.266 OA
HETATM    9  H   UNL     1       6.225  30.756  61.241  1.00  0.00     0.190 HD
BRANCH   7  10
HETATM   10  C   UNL     1       7.259  32.425  63.047  1.00  0.00     0.033 A 
HETATM   11  C   UNL     1       5.857  32.387  63.061  1.00  0.00     0.018 A 
HETATM   12  C   UNL     1       5.144  33.019  64.083  1.00  0.00     0.020 A 
HETATM   13  C   UNL     1       5.831  33.683  65.097  1.00  0.00     0.011 A 
HETATM   14  C   UNL     1       7.225  33.718  65.100  1.00  0.00     0.020 A 
HETATM   15 BR   UNL     1       4.869  34.528  66.487  1.00  0.00    -0.051 Br
HETATM   16  C   UNL     1       7.941  33.087  64.078  1.00  0.00     0.018 A 
ENDBRANCH   7  10
ENDBRANCH   3   6
ENDBRANCH   1   2
BRANCH   1  17
HETATM   17  C   UNL     1       7.552  29.950  56.399  1.00  0.00     0.112 C 
BRANCH  17  18
HETATM   18  C   UNL     1       6.759  28.708  56.041  1.00  0.00     0.218 C 
HETATM   19  N   UNL     1       6.618  27.803  57.062  1.00  0.00    -0.357 N 
HETATM   20  H   UNL     1       6.760  28.107  58.024  1.00  0.00     0.162 HD
HETATM   21  O   UNL     1       6.332  28.520  54.905  1.00  0.00    -0.274 OA
BRANCH  19  22
HETATM   22  C   UNL     1       5.906  26.560  56.883  1.00  0.00     0.161 C 
BRANCH  22  23
HETATM   23  C   UNL     1       6.862  25.472  56.462  1.00  0.00    -0.038 A 
HETATM   24  C   UNL     1       6.564  24.637  55.374  1.00  0.00     0.048 A 
HETATM   25  C   UNL     1       7.466  23.643  55.055  1.00  0.00     0.105 A 
HETATM   26  C   UNL     1       8.627  23.458  55.769  1.00  0.00     0.105 A 
HETATM   27  O   UNL     1       7.333  22.746  54.040  1.00  0.00    -0.323 OA
HETATM   28  O   UNL     1       9.369  22.421  55.295  1.00  0.00    -0.323 OA
HETATM   29  C   UNL     1       8.956  24.257  56.839  1.00  0.00     0.040 A 
HETATM   30  C   UNL     1       8.546  21.980  54.194  1.00  0.00     0.352 A 
HETATM   31  C   UNL     1       8.063  25.275  57.185  1.00  0.00     0.012 A 
ENDBRANCH  22  23
ENDBRANCH  19  22
ENDBRANCH  17  18
ENDBRANCH   1  17
TORSDOF 7
ENDMDL
MODEL 7
REMARK VINA RESULT:      -8.9      7.217     11.104
REMARK  7 active torsions:
REMARK  status: ('A' for Active; 'I' for Inactive)
REMARK    1  A    between atoms: C_2  and  C_3 
REMARK       I    between atoms: C_3  and  N_4 
REMARK    2  A    between atoms: N_4  and  N_5 
REMARK       I    between atoms: N_5  and  C_6 
REMARK    3  A    between atoms: C_6  and  C_7 
REMARK    4  A    between atoms: C_7  and  C_8 
REMARK    5  A    between atoms: C_8  and  C_9 
REMARK       I    between atoms: C_9  and  N_10 
REMARK    6  A    between atoms: N_10  and  C_11 
REMARK    7  A    between atoms: C_11  and  C_12 
ROOT
HETATM    1  C   UNL     1       6.764  26.874  53.561  1.00  0.00     0.114 C 
ENDROOT
BRANCH   1   2
HETATM    2  C   UNL     1       5.538  26.807  52.682  1.00  0.00     0.236 C 
HETATM    3  N   UNL     1       5.711  26.144  51.490  1.00  0.00    -0.267 N 
HETATM    4  H   UNL     1       6.628  25.911  51.107  1.00  0.00     0.190 HD
HETATM    5  O   UNL     1       4.483  27.361  52.994  1.00  0.00    -0.272 OA
BRANCH   3   6
HETATM    6  N   UNL     1       4.653  26.162  50.573  1.00  0.00    -0.263 N 
HETATM    7  C   UNL     1       4.630  27.174  49.633  1.00  0.00     0.270 C 
HETATM    8  O   UNL     1       5.516  28.021  49.557  1.00  0.00    -0.266 OA
HETATM    9  H   UNL     1       3.833  25.613  50.825  1.00  0.00     0.190 HD
BRANCH   7  10
HETATM   10  C   UNL     1       3.456  27.203  48.715  1.00  0.00     0.033 A 
HETATM   11  C   UNL     1       2.575  28.291  48.793  1.00  0.00     0.018 A 
HETATM   12  C   UNL     1       1.476  28.373  47.934  1.00  0.00     0.020 A 
HETATM   13  C   UNL     1       1.262  27.372  46.989  1.00  0.00     0.011 A 
HETATM   14  C   UNL     1       2.137  26.290  46.894  1.00  0.00     0.020 A 
HETATM   15 BR   UNL     1      -0.217  27.487  45.817  1.00  0.00    -0.051 Br
HETATM   16  C   UNL     1       3.237  26.206  47.754  1.00  0.00     0.018 A 
ENDBRANCH   7  10
ENDBRANCH   3   6
ENDBRANCH   1   2
BRANCH   1  17
HETATM   17  C   UNL     1       6.382  27.356  54.951  1.00  0.00     0.112 C 
BRANCH  17  18
HETATM   18  C   UNL     1       6.379  26.238  55.975  1.00  0.00     0.218 C 
HETATM   19  N   UNL     1       7.554  25.536  56.062  1.00  0.00    -0.357 N 
HETATM   20  H   UNL     1       8.412  25.950  55.701  1.00  0.00     0.162 HD
HETATM   21  O   UNL     1       5.375  25.962  56.626  1.00  0.00    -0.274 OA
BRANCH  19  22
HETATM   22  C   UNL     1       7.712  24.428  56.974  1.00  0.00     0.161 C 
BRANCH  22  23
HETATM   23  C   UNL     1       7.995  23.162  56.206  1.00  0.00    -0.038 A 
HETATM   24  C   UNL     1       7.868  23.126  54.810  1.00  0.00     0.048 A 
HETATM   25  C   UNL     1       8.113  21.930  54.167  1.00  0.00     0.105 A 
HETATM   26  C   UNL     1       8.473  20.795  54.856  1.00  0.00     0.105 A 
HETATM   27  O   UNL     1       8.032  21.718  52.825  1.00  0.00    -0.323 OA
HETATM   28  O   UNL     1       8.660  19.726  54.035  1.00  0.00    -0.323 OA
HETATM   29  C   UNL     1       8.611  20.790  56.225  1.00  0.00     0.040 A 
HETATM   30  C   UNL     1       8.387  20.321  52.750  1.00  0.00     0.352 A 
HETATM   31  C   UNL     1       8.371  21.988  56.904  1.00  0.00     0.012 A 
ENDBRANCH  22  23
ENDBRANCH  19  22
ENDBRANCH  17  18
ENDBRANCH   1  17
TORSDOF 7
ENDMDL
MODEL 8
REMARK VINA RESULT:      -8.6      2.744      3.178
REMARK  7 active torsions:
REMARK  status: ('A' for Active; 'I' for Inactive)
REMARK    1  A    between atoms: C_2  and  C_3 
REMARK       I    between atoms: C_3  and  N_4 
REMARK    2  A    between atoms: N_4  and  N_5 
REMARK       I    between atoms: N_5  and  C_6 
REMARK    3  A    between atoms: C_6  and  C_7 
REMARK    4  A    between atoms: C_7  and  C_8 
REMARK    5  A    between atoms: C_8  and  C_9 
REMARK       I    between atoms: C_9  and  N_10 
REMARK    6  A    between atoms: N_10  and  C_11 
REMARK    7  A    between atoms: C_11  and  C_12 
ROOT
HETATM    1  C   UNL     1       7.768  29.448  58.557  1.00  0.00     0.114 C 
ENDROOT
BRANCH   1   2
HETATM    2  C   UNL     1       6.932  29.127  57.342  1.00  0.00     0.236 C 
HETATM    3  N   UNL     1       7.608  28.511  56.316  1.00  0.00    -0.267 N 
HETATM    4  H   UNL     1       8.625  28.472  56.260  1.00  0.00     0.190 HD
HETATM    5  O   UNL     1       5.746  29.451  57.264  1.00  0.00    -0.272 OA
BRANCH   3   6
HETATM    6  N   UNL     1       6.922  28.307  55.111  1.00  0.00    -0.263 N 
HETATM    7  C   UNL     1       6.977  27.051  54.541  1.00  0.00     0.270 C 
HETATM    8  O   UNL     1       7.567  26.113  55.072  1.00  0.00    -0.266 OA
HETATM    9  H   UNL     1       6.670  29.146  54.592  1.00  0.00     0.190 HD
BRANCH   7  10
HETATM   10  C   UNL     1       6.293  26.884  53.228  1.00  0.00     0.033 A 
HETATM   11  C   UNL     1       6.054  28.028  52.452  1.00  0.00     0.018 A 
HETATM   12  C   UNL     1       5.439  27.917  51.202  1.00  0.00     0.020 A 
HETATM   13  C   UNL     1       5.069  26.661  50.723  1.00  0.00     0.011 A 
HETATM   14  C   UNL     1       5.312  25.516  51.480  1.00  0.00     0.020 A 
HETATM   15 BR   UNL     1       4.248  26.507  49.027  1.00  0.00    -0.051 Br
HETATM   16  C   UNL     1       5.927  25.625  52.732  1.00  0.00     0.018 A 
ENDBRANCH   7  10
ENDBRANCH   3   6
ENDBRANCH   1   2
BRANCH   1  17
HETATM   17  C   UNL     1       8.965  30.296  58.155  1.00  0.00     0.112 C 
BRANCH  17  18
HETATM   18  C   UNL     1       9.351  31.302  59.222  1.00  0.00     0.218 C 
HETATM   19  N   UNL     1       9.059  30.918  60.506  1.00  0.00    -0.357 N 
HETATM   20  H   UNL     1       8.901  29.932  60.709  1.00  0.00     0.162 HD
HETATM   21  O   UNL     1       9.835  32.393  58.935  1.00  0.00    -0.274 OA
BRANCH  19  22
HETATM   22  C   UNL     1       9.345  31.767  61.637  1.00  0.00     0.161 C 
BRANCH  22  23
HETATM   23  C   UNL     1       8.067  32.113  62.361  1.00  0.00    -0.038 A 
HETATM   24  C   UNL     1       8.099  32.784  63.592  1.00  0.00     0.048 A 
HETATM   25  C   UNL     1       6.899  33.048  64.218  1.00  0.00     0.105 A 
HETATM   26  C   UNL     1       5.695  32.672  63.669  1.00  0.00     0.105 A 
HETATM   27  O   UNL     1       6.748  33.682  65.412  1.00  0.00    -0.323 OA
HETATM   28  O   UNL     1       4.636  33.019  64.449  1.00  0.00    -0.323 OA
HETATM   29  C   UNL     1       5.621  32.015  62.462  1.00  0.00     0.040 A 
HETATM   30  C   UNL     1       5.311  33.666  65.548  1.00  0.00     0.352 A 
HETATM   31  C   UNL     1       6.822  31.736  61.803  1.00  0.00     0.012 A 
ENDBRANCH  22  23
ENDBRANCH  19  22
ENDBRANCH  17  18
ENDBRANCH   1  17
TORSDOF 7
ENDMDL
MODEL 9
REMARK VINA RESULT:      -8.4      4.696     10.658
REMARK  7 active torsions:
REMARK  status: ('A' for Active; 'I' for Inactive)
REMARK    1  A    between atoms: C_2  and  C_3 
REMARK       I    between atoms: C_3  and  N_4 
REMARK    2  A    between atoms: N_4  and  N_5 
REMARK       I    between atoms: N_5  and  C_6 
REMARK    3  A    between atoms: C_6  and  C_7 
REMARK    4  A    between atoms: C_7  and  C_8 
REMARK    5  A    between atoms: C_8  and  C_9 
REMARK       I    between atoms: C_9  and  N_10 
REMARK    6  A    between atoms: N_10  and  C_11 
REMARK    7  A    between atoms: C_11  and  C_12 
ROOT
HETATM    1  C   UNL     1       4.068  29.338  53.678  1.00  0.00     0.114 C 
ENDROOT
BRANCH   1   2
HETATM    2  C   UNL     1       4.342  29.803  55.088  1.00  0.00     0.236 C 
HETATM    3  N   UNL     1       5.359  30.719  55.211  1.00  0.00    -0.267 N 
HETATM    4  H   UNL     1       6.034  30.909  54.470  1.00  0.00     0.190 HD
HETATM    5  O   UNL     1       3.731  29.345  56.054  1.00  0.00    -0.272 OA
BRANCH   3   6
HETATM    6  N   UNL     1       5.751  31.090  56.504  1.00  0.00    -0.263 N 
HETATM    7  C   UNL     1       6.866  30.477  57.041  1.00  0.00     0.270 C 
HETATM    8  O   UNL     1       7.534  29.659  56.414  1.00  0.00    -0.266 OA
HETATM    9  H   UNL     1       5.047  31.563  57.067  1.00  0.00     0.190 HD
BRANCH   7  10
HETATM   10  C   UNL     1       7.218  30.845  58.442  1.00  0.00     0.033 A 
HETATM   11  C   UNL     1       6.434  31.808  59.095  1.00  0.00     0.018 A 
HETATM   12  C   UNL     1       6.711  32.165  60.418  1.00  0.00     0.020 A 
HETATM   13  C   UNL     1       7.767  31.554  61.091  1.00  0.00     0.011 A 
HETATM   14  C   UNL     1       8.546  30.587  60.457  1.00  0.00     0.020 A 
HETATM   15 BR   UNL     1       8.136  32.025  62.884  1.00  0.00    -0.051 Br
HETATM   16  C   UNL     1       8.271  30.229  59.133  1.00  0.00     0.018 A 
ENDBRANCH   7  10
ENDBRANCH   3   6
ENDBRANCH   1   2
BRANCH   1  17
HETATM   17  C   UNL     1       3.961  27.821  53.642  1.00  0.00     0.112 C 
BRANCH  17  18
HETATM   18  C   UNL     1       5.163  27.169  52.986  1.00  0.00     0.218 C 
HETATM   19  N   UNL     1       6.216  26.925  53.829  1.00  0.00    -0.357 N 
HETATM   20  H   UNL     1       6.056  26.898  54.835  1.00  0.00     0.162 HD
HETATM   21  O   UNL     1       5.191  26.935  51.781  1.00  0.00    -0.274 OA
BRANCH  19  22
HETATM   22  C   UNL     1       7.443  26.325  53.360  1.00  0.00     0.161 C 
BRANCH  22  23
HETATM   23  C   UNL     1       7.541  24.901  53.844  1.00  0.00    -0.038 A 
HETATM   24  C   UNL     1       7.831  23.858  52.953  1.00  0.00     0.048 A 
HETATM   25  C   UNL     1       7.880  22.573  53.452  1.00  0.00     0.105 A 
HETATM   26  C   UNL     1       7.654  22.300  54.780  1.00  0.00     0.105 A 
HETATM   27  O   UNL     1       8.142  21.450  52.730  1.00  0.00    -0.323 OA
HETATM   28  O   UNL     1       7.742  20.972  55.061  1.00  0.00    -0.323 OA
HETATM   29  C   UNL     1       7.369  23.295  55.687  1.00  0.00     0.040 A 
HETATM   30  C   UNL     1       8.059  20.441  53.758  1.00  0.00     0.352 A 
HETATM   31  C   UNL     1       7.315  24.608  55.212  1.00  0.00     0.012 A 
ENDBRANCH  22  23
ENDBRANCH  19  22
ENDBRANCH  17  18
ENDBRANCH   1  17
TORSDOF 7
ENDMDL
MODEL 10
REMARK VINA RESULT:      -8.1      2.562      3.254
REMARK  7 active torsions:
REMARK  status: ('A' for Active; 'I' for Inactive)
REMARK    1  A    between atoms: C_2  and  C_3 
REMARK       I    between atoms: C_3  and  N_4 
REMARK    2  A    between atoms: N_4  and  N_5 
REMARK       I    between atoms: N_5  and  C_6 
REMARK    3  A    between atoms: C_6  and  C_7 
REMARK    4  A    between atoms: C_7  and  C_8 
REMARK    5  A    between atoms: C_8  and  C_9 
REMARK       I    between atoms: C_9  and  N_10 
REMARK    6  A    between atoms: N_10  and  C_11 
REMARK    7  A    between atoms: C_11  and  C_12 
ROOT
HETATM    1  C   UNL     1       5.499  31.227  56.447  1.00  0.00     0.114 C 
ENDROOT
BRANCH   1   2
HETATM    2  C   UNL     1       5.864  29.768  56.317  1.00  0.00     0.236 C 
HETATM    3  N   UNL     1       5.864  29.280  55.032  1.00  0.00    -0.267 N 
HETATM    4  H   UNL     1       5.438  29.771  54.247  1.00  0.00     0.190 HD
HETATM    5  O   UNL     1       6.086  29.063  57.302  1.00  0.00    -0.272 OA
BRANCH   3   6
HETATM    6  N   UNL     1       6.063  27.904  54.856  1.00  0.00    -0.263 N 
HETATM    7  C   UNL     1       7.253  27.491  54.291  1.00  0.00     0.270 C 
HETATM    8  O   UNL     1       8.143  28.279  53.980  1.00  0.00    -0.266 OA
HETATM    9  H   UNL     1       5.227  27.323  54.887  1.00  0.00     0.190 HD
BRANCH   7  10
HETATM   10  C   UNL     1       7.406  26.027  54.057  1.00  0.00     0.033 A 
HETATM   11  C   UNL     1       7.728  25.589  52.764  1.00  0.00     0.018 A 
HETATM   12  C   UNL     1       7.907  24.228  52.503  1.00  0.00     0.020 A 
HETATM   13  C   UNL     1       7.772  23.304  53.537  1.00  0.00     0.011 A 
HETATM   14  C   UNL     1       7.464  23.727  54.829  1.00  0.00     0.020 A 
HETATM   15 BR   UNL     1       8.026  21.463  53.190  1.00  0.00    -0.051 Br
HETATM   16  C   UNL     1       7.283  25.089  55.092  1.00  0.00     0.018 A 
ENDBRANCH   7  10
ENDBRANCH   3   6
ENDBRANCH   1   2
BRANCH   1  17
HETATM   17  C   UNL     1       5.826  31.723  57.847  1.00  0.00     0.112 C 
BRANCH  17  18
HETATM   18  C   UNL     1       4.585  31.941  58.691  1.00  0.00     0.218 C 
HETATM   19  N   UNL     1       4.792  31.868  60.045  1.00  0.00    -0.357 N 
HETATM   20  H   UNL     1       5.735  31.977  60.414  1.00  0.00     0.162 HD
HETATM   21  O   UNL     1       3.481  32.113  58.182  1.00  0.00    -0.274 OA
BRANCH  19  22
HETATM   22  C   UNL     1       3.712  32.034  60.989  1.00  0.00     0.161 C 
BRANCH  22  23
HETATM   23  C   UNL     1       4.216  32.713  62.237  1.00  0.00    -0.038 A 
HETATM   24  C   UNL     1       5.483  32.410  62.758  1.00  0.00     0.048 A 
HETATM   25  C   UNL     1       5.875  33.045  63.918  1.00  0.00     0.105 A 
HETATM   26  C   UNL     1       5.064  33.951  64.562  1.00  0.00     0.105 A 
HETATM   27  O   UNL     1       7.062  32.866  64.559  1.00  0.00    -0.323 OA
HETATM   28  O   UNL     1       5.637  34.453  65.689  1.00  0.00    -0.323 OA
HETATM   29  C   UNL     1       3.817  34.277  64.081  1.00  0.00     0.040 A 
HETATM   30  C   UNL     1       6.906  33.767  65.676  1.00  0.00     0.352 A 
HETATM   31  C   UNL     1       3.392  33.652  62.906  1.00  0.00     0.012 A 
ENDBRANCH  22  23
ENDBRANCH  19  22
ENDBRANCH  17  18
ENDBRANCH   1  17
TORSDOF 7
ENDMDL
