MODEL 1
REMARK VINA RESULT:     -11.7      0.000      0.000
REMARK  4 active torsions:
REMARK  status: ('A' for Active; 'I' for Inactive)
REMARK    1  A    between atoms: C_8  and  C_9 
REMARK    2  A    between atoms: C_12  and  N_13 
REMARK       I    between atoms: N_13  and  C_14 
REMARK    3  A    between atoms: C_14  and  C_15 
REMARK    4  A    between atoms: C_17  and  N_18 
ROOT
HETATM    1  C   UNL     1       7.513  27.847  56.528  1.00  0.00     0.010 A 
HETATM    2  C   UNL     1       8.698  28.358  57.069  1.00  0.00     0.017 A 
HETATM    3  C   UNL     1       8.671  29.394  58.011  1.00  0.00     0.030 A 
HETATM    4  C   UNL     1       7.461  29.945  58.431  1.00  0.00     0.035 A 
HETATM    5  C   UNL     1       6.278  29.492  57.836  1.00  0.00     0.030 A 
HETATM    6  C   UNL     1       6.305  28.453  56.896  1.00  0.00     0.017 A 
ENDROOT
BRANCH   4   7
HETATM    7  N   UNL     1       7.352  30.903  59.465  1.00  0.00    -0.323 N 
HETATM    8  C   UNL     1       8.130  30.960  60.608  1.00  0.00     0.256 C 
HETATM    9  O   UNL     1       9.113  30.279  60.874  1.00  0.00    -0.267 OA
HETATM   10  H   UNL     1       6.527  31.492  59.436  1.00  0.00     0.169 HD
BRANCH   8  11
HETATM   11  C   UNL     1       7.639  31.890  61.655  1.00  0.00     0.034 A 
HETATM   12  C   UNL     1       6.440  32.606  61.510  1.00  0.00     0.047 A 
HETATM   13  C   UNL     1       5.997  33.490  62.513  1.00  0.00     0.046 A 
HETATM   14  C   UNL     1       6.801  33.610  63.662  1.00  0.00     0.030 A 
HETATM   15  C   UNL     1       8.001  32.903  63.803  1.00  0.00     0.003 A 
HETATM   16  C   UNL     1       8.425  32.050  62.796  1.00  0.00     0.017 A 
BRANCH  13  17
HETATM   17  N   UNL     1       4.789  34.246  62.370  1.00  0.00    -0.252 N 
HETATM   18  C   UNL     1       3.519  33.710  62.428  1.00  0.00     0.231 C 
HETATM   19  O   UNL     1       3.172  32.574  62.726  1.00  0.00    -0.273 OA
HETATM   20  C   UNL     1       2.525  34.766  62.052  1.00  0.00     0.113 C 
HETATM   21  C   UNL     1       3.299  36.049  62.194  1.00  0.00     0.113 C 
HETATM   22  C   UNL     1       4.731  35.609  62.163  1.00  0.00     0.231 C 
HETATM   23  O   UNL     1       5.638  36.413  61.989  1.00  0.00    -0.273 OA
ENDBRANCH  13  17
ENDBRANCH   8  11
ENDBRANCH   4   7
BRANCH   1  24
HETATM   24  C   UNL     1       7.505  26.684  55.635  1.00  0.00     0.139 A 
HETATM   25  N   UNL     1       7.498  26.781  54.260  1.00  0.00    -0.338 N 
HETATM   26  C   UNL     1       7.590  25.526  53.722  1.00  0.00     0.063 A 
HETATM   27  H   UNL     1       7.486  27.641  53.735  1.00  0.00     0.167 HD
HETATM   28  C   UNL     1       7.631  24.687  54.827  1.00  0.00     0.086 A 
HETATM   29  C   UNL     1       7.652  25.070  52.406  1.00  0.00     0.032 A 
HETATM   30  C   UNL     1       7.731  23.302  54.629  1.00  0.00     0.040 A 
HETATM   31  N   UNL     1       7.581  25.414  55.993  1.00  0.00    -0.228 NA
HETATM   32  C   UNL     1       7.786  22.801  53.315  1.00  0.00    -0.060 A 
HETATM   33  C   UNL     1       7.925  21.326  53.070  1.00  0.00     0.048 C 
HETATM   34  C   UNL     1       7.756  23.685  52.227  1.00  0.00     0.009 A 
ENDBRANCH   1  24
TORSDOF 4
ENDMDL
MODEL 2
REMARK VINA RESULT:     -11.1      1.805      2.820
REMARK  4 active torsions:
REMARK  status: ('A' for Active; 'I' for Inactive)
REMARK    1  A    between atoms: C_8  and  C_9 
REMARK    2  A    between atoms: C_12  and  N_13 
REMARK       I    between atoms: N_13  and  C_14 
REMARK    3  A    between atoms: C_14  and  C_15 
REMARK    4  A    between atoms: C_17  and  N_18 
ROOT
HETATM    1  C   UNL     1       7.226  26.747  56.357  1.00  0.00     0.010 A 
HETATM    2  C   UNL     1       7.966  27.384  57.360  1.00  0.00     0.017 A 
HETATM    3  C   UNL     1       7.558  28.619  57.882  1.00  0.00     0.030 A 
HETATM    4  C   UNL     1       6.405  29.246  57.412  1.00  0.00     0.035 A 
HETATM    5  C   UNL     1       5.705  28.653  56.356  1.00  0.00     0.030 A 
HETATM    6  C   UNL     1       6.111  27.416  55.837  1.00  0.00     0.017 A 
ENDROOT
BRANCH   4   7
HETATM    7  N   UNL     1       5.869  30.426  57.976  1.00  0.00    -0.323 N 
HETATM    8  C   UNL     1       6.594  31.466  58.531  1.00  0.00     0.256 C 
HETATM    9  O   UNL     1       7.811  31.610  58.528  1.00  0.00    -0.267 OA
HETATM   10  H   UNL     1       4.867  30.426  58.130  1.00  0.00     0.169 HD
BRANCH   8  11
HETATM   11  C   UNL     1       5.789  32.455  59.291  1.00  0.00     0.034 A 
HETATM   12  C   UNL     1       5.975  32.664  60.667  1.00  0.00     0.047 A 
HETATM   13  C   UNL     1       5.195  33.602  61.370  1.00  0.00     0.046 A 
HETATM   14  C   UNL     1       4.238  34.322  60.631  1.00  0.00     0.030 A 
HETATM   15  C   UNL     1       4.046  34.108  59.261  1.00  0.00     0.003 A 
HETATM   16  C   UNL     1       4.815  33.168  58.592  1.00  0.00     0.017 A 
BRANCH  13  17
HETATM   17  N   UNL     1       5.356  33.809  62.778  1.00  0.00    -0.252 N 
HETATM   18  C   UNL     1       5.065  32.869  63.745  1.00  0.00     0.231 C 
HETATM   19  O   UNL     1       4.754  31.693  63.611  1.00  0.00    -0.273 OA
HETATM   20  C   UNL     1       5.181  33.505  65.096  1.00  0.00     0.113 C 
HETATM   21  C   UNL     1       5.975  34.757  64.833  1.00  0.00     0.113 C 
HETATM   22  C   UNL     1       5.830  34.970  63.356  1.00  0.00     0.231 C 
HETATM   23  O   UNL     1       6.125  36.038  62.837  1.00  0.00    -0.273 OA
ENDBRANCH  13  17
ENDBRANCH   8  11
ENDBRANCH   4   7
BRANCH   1  24
HETATM   24  C   UNL     1       7.561  25.402  55.881  1.00  0.00     0.139 A 
HETATM   25  N   UNL     1       7.763  24.327  56.719  1.00  0.00    -0.338 N 
HETATM   26  C   UNL     1       7.959  23.201  55.965  1.00  0.00     0.063 A 
HETATM   27  H   UNL     1       7.715  24.353  57.726  1.00  0.00     0.167 HD
HETATM   28  C   UNL     1       7.886  23.656  54.655  1.00  0.00     0.086 A 
HETATM   29  C   UNL     1       8.174  21.867  56.306  1.00  0.00     0.032 A 
HETATM   30  C   UNL     1       8.044  22.739  53.605  1.00  0.00     0.040 A 
HETATM   31  N   UNL     1       7.638  25.008  54.621  1.00  0.00    -0.228 NA
HETATM   32  C   UNL     1       8.273  21.384  53.908  1.00  0.00    -0.060 A 
HETATM   33  C   UNL     1       8.415  20.374  52.807  1.00  0.00     0.048 C 
HETATM   34  C   UNL     1       8.325  20.965  55.246  1.00  0.00     0.009 A 
ENDBRANCH   1  24
TORSDOF 4
ENDMDL
MODEL 3
REMARK VINA RESULT:     -10.6      1.747      2.915
REMARK  4 active torsions:
REMARK  status: ('A' for Active; 'I' for Inactive)
REMARK    1  A    between atoms: C_8  and  C_9 
REMARK    2  A    between atoms: C_12  and  N_13 
REMARK       I    between atoms: N_13  and  C_14 
REMARK    3  A    between atoms: C_14  and  C_15 
REMARK    4  A    between atoms: C_17  and  N_18 
ROOT
HETATM    1  C   UNL     1       6.849  26.938  56.226  1.00  0.00     0.010 A 
HETATM    2  C   UNL     1       7.632  27.525  57.226  1.00  0.00     0.017 A 
HETATM    3  C   UNL     1       7.273  28.756  57.792  1.00  0.00     0.030 A 
HETATM    4  C   UNL     1       6.127  29.428  57.369  1.00  0.00     0.035 A 
HETATM    5  C   UNL     1       5.384  28.885  56.316  1.00  0.00     0.030 A 
HETATM    6  C   UNL     1       5.740  27.652  55.753  1.00  0.00     0.017 A 
ENDROOT
BRANCH   4   7
HETATM    7  N   UNL     1       5.639  30.607  57.979  1.00  0.00    -0.323 N 
HETATM    8  C   UNL     1       6.408  31.613  58.537  1.00  0.00     0.256 C 
HETATM    9  O   UNL     1       7.627  31.725  58.500  1.00  0.00    -0.267 OA
HETATM   10  H   UNL     1       4.643  30.628  58.164  1.00  0.00     0.169 HD
BRANCH   8  11
HETATM   11  C   UNL     1       5.653  32.602  59.347  1.00  0.00     0.034 A 
HETATM   12  C   UNL     1       5.889  32.773  60.720  1.00  0.00     0.047 A 
HETATM   13  C   UNL     1       5.156  33.712  61.471  1.00  0.00     0.046 A 
HETATM   14  C   UNL     1       4.193  34.472  60.781  1.00  0.00     0.030 A 
HETATM   15  C   UNL     1       3.951  34.296  59.414  1.00  0.00     0.003 A 
HETATM   16  C   UNL     1       4.675  33.355  58.698  1.00  0.00     0.017 A 
BRANCH  13  17
HETATM   17  N   UNL     1       5.367  33.881  62.877  1.00  0.00    -0.252 N 
HETATM   18  C   UNL     1       5.835  35.038  63.465  1.00  0.00     0.231 C 
HETATM   19  O   UNL     1       6.032  36.136  62.961  1.00  0.00    -0.273 OA
HETATM   20  C   UNL     1       6.100  34.777  64.916  1.00  0.00     0.113 C 
HETATM   21  C   UNL     1       5.342  33.507  65.193  1.00  0.00     0.113 C 
HETATM   22  C   UNL     1       5.123  32.916  63.833  1.00  0.00     0.231 C 
HETATM   23  O   UNL     1       4.771  31.751  63.697  1.00  0.00    -0.273 OA
ENDBRANCH  13  17
ENDBRANCH   8  11
ENDBRANCH   4   7
BRANCH   1  24
HETATM   24  C   UNL     1       7.132  25.598  55.703  1.00  0.00     0.139 A 
HETATM   25  N   UNL     1       7.315  25.327  54.364  1.00  0.00    -0.338 N 
HETATM   26  C   UNL     1       7.656  24.009  54.217  1.00  0.00     0.063 A 
HETATM   27  H   UNL     1       7.262  26.003  53.618  1.00  0.00     0.167 HD
HETATM   28  C   UNL     1       7.649  23.512  55.512  1.00  0.00     0.086 A 
HETATM   29  C   UNL     1       7.974  23.241  53.098  1.00  0.00     0.032 A 
HETATM   30  C   UNL     1       7.966  22.162  55.727  1.00  0.00     0.040 A 
HETATM   31  N   UNL     1       7.328  24.500  56.413  1.00  0.00    -0.228 NA
HETATM   32  C   UNL     1       8.282  21.350  54.622  1.00  0.00    -0.060 A 
HETATM   33  C   UNL     1       8.657  19.910  54.821  1.00  0.00     0.048 C 
HETATM   34  C   UNL     1       8.293  21.898  53.331  1.00  0.00     0.009 A 
ENDBRANCH   1  24
TORSDOF 4
ENDMDL
MODEL 4
REMARK VINA RESULT:     -10.4      1.732      2.438
REMARK  4 active torsions:
REMARK  status: ('A' for Active; 'I' for Inactive)
REMARK    1  A    between atoms: C_8  and  C_9 
REMARK    2  A    between atoms: C_12  and  N_13 
REMARK       I    between atoms: N_13  and  C_14 
REMARK    3  A    between atoms: C_14  and  C_15 
REMARK    4  A    between atoms: C_17  and  N_18 
ROOT
HETATM    1  C   UNL     1       6.976  27.211  56.323  1.00  0.00     0.010 A 
HETATM    2  C   UNL     1       7.782  27.608  57.396  1.00  0.00     0.017 A 
HETATM    3  C   UNL     1       7.517  28.793  58.095  1.00  0.00     0.030 A 
HETATM    4  C   UNL     1       6.444  29.608  57.737  1.00  0.00     0.035 A 
HETATM    5  C   UNL     1       5.683  29.257  56.618  1.00  0.00     0.030 A 
HETATM    6  C   UNL     1       5.944  28.070  55.920  1.00  0.00     0.017 A 
ENDROOT
BRANCH   4   7
HETATM    7  N   UNL     1       6.046  30.747  58.473  1.00  0.00    -0.323 N 
HETATM    8  C   UNL     1       6.883  31.733  58.966  1.00  0.00     0.256 C 
HETATM    9  O   UNL     1       8.084  31.861  58.760  1.00  0.00    -0.267 OA
HETATM   10  H   UNL     1       5.087  30.747  58.801  1.00  0.00     0.169 HD
BRANCH   8  11
HETATM   11  C   UNL     1       6.250  32.670  59.928  1.00  0.00     0.034 A 
HETATM   12  C   UNL     1       5.149  33.466  59.575  1.00  0.00     0.047 A 
HETATM   13  C   UNL     1       4.569  34.354  60.502  1.00  0.00     0.046 A 
HETATM   14  C   UNL     1       5.135  34.395  61.790  1.00  0.00     0.030 A 
HETATM   15  C   UNL     1       6.238  33.608  62.140  1.00  0.00     0.003 A 
HETATM   16  C   UNL     1       6.802  32.751  61.206  1.00  0.00     0.017 A 
BRANCH  13  17
HETATM   17  N   UNL     1       3.462  35.190  60.150  1.00  0.00    -0.252 N 
HETATM   18  C   UNL     1       3.555  36.541  59.885  1.00  0.00     0.231 C 
HETATM   19  O   UNL     1       4.554  37.240  59.773  1.00  0.00    -0.273 OA
HETATM   20  C   UNL     1       2.175  37.107  59.738  1.00  0.00     0.113 C 
HETATM   21  C   UNL     1       1.315  35.893  59.516  1.00  0.00     0.113 C 
HETATM   22  C   UNL     1       2.157  34.759  60.019  1.00  0.00     0.231 C 
HETATM   23  O   UNL     1       1.672  33.656  60.236  1.00  0.00    -0.273 OA
ENDBRANCH  13  17
ENDBRANCH   8  11
ENDBRANCH   4   7
BRANCH   1  24
HETATM   24  C   UNL     1       7.154  25.919  55.653  1.00  0.00     0.139 A 
HETATM   25  N   UNL     1       7.306  25.785  54.289  1.00  0.00    -0.338 N 
HETATM   26  C   UNL     1       7.548  24.470  53.993  1.00  0.00     0.063 A 
HETATM   27  H   UNL     1       7.299  26.541  53.623  1.00  0.00     0.167 HD
HETATM   28  C   UNL     1       7.513  23.835  55.227  1.00  0.00     0.086 A 
HETATM   29  C   UNL     1       7.800  23.809  52.792  1.00  0.00     0.032 A 
HETATM   30  C   UNL     1       7.730  22.450  55.287  1.00  0.00     0.040 A 
HETATM   31  N   UNL     1       7.273  24.738  56.235  1.00  0.00    -0.228 NA
HETATM   32  C   UNL     1       7.977  21.744  54.095  1.00  0.00    -0.060 A 
HETATM   33  C   UNL     1       8.245  20.267  54.130  1.00  0.00     0.048 C 
HETATM   34  C   UNL     1       8.019  22.428  52.871  1.00  0.00     0.009 A 
ENDBRANCH   1  24
TORSDOF 4
ENDMDL
MODEL 5
REMARK VINA RESULT:     -10.2      1.421      2.137
REMARK  4 active torsions:
REMARK  status: ('A' for Active; 'I' for Inactive)
REMARK    1  A    between atoms: C_8  and  C_9 
REMARK    2  A    between atoms: C_12  and  N_13 
REMARK       I    between atoms: N_13  and  C_14 
REMARK    3  A    between atoms: C_14  and  C_15 
REMARK    4  A    between atoms: C_17  and  N_18 
ROOT
HETATM    1  C   UNL     1       7.714  29.252  57.420  1.00  0.00     0.010 A 
HETATM    2  C   UNL     1       8.835  29.549  58.203  1.00  0.00     0.017 A 
HETATM    3  C   UNL     1       8.781  30.541  59.191  1.00  0.00     0.030 A 
HETATM    4  C   UNL     1       7.608  31.260  59.416  1.00  0.00     0.035 A 
HETATM    5  C   UNL     1       6.509  31.023  58.584  1.00  0.00     0.030 A 
HETATM    6  C   UNL     1       6.561  30.028  57.599  1.00  0.00     0.017 A 
ENDROOT
BRANCH   4   7
HETATM    7  N   UNL     1       7.446  32.185  60.473  1.00  0.00    -0.323 N 
HETATM    8  C   UNL     1       7.702  31.944  61.812  1.00  0.00     0.256 C 
HETATM    9  O   UNL     1       8.218  30.948  62.303  1.00  0.00    -0.267 OA
HETATM   10  H   UNL     1       6.945  33.035  60.243  1.00  0.00     0.169 HD
BRANCH   8  11
HETATM   11  C   UNL     1       7.196  32.983  62.743  1.00  0.00     0.034 A 
HETATM   12  C   UNL     1       6.329  34.003  62.319  1.00  0.00     0.047 A 
HETATM   13  C   UNL     1       5.868  34.983  63.219  1.00  0.00     0.046 A 
HETATM   14  C   UNL     1       6.305  34.885  64.553  1.00  0.00     0.030 A 
HETATM   15  C   UNL     1       7.176  33.874  64.975  1.00  0.00     0.003 A 
HETATM   16  C   UNL     1       7.630  32.928  64.068  1.00  0.00     0.017 A 
BRANCH  13  17
HETATM   17  N   UNL     1       5.003  36.044  62.797  1.00  0.00    -0.252 N 
HETATM   18  C   UNL     1       3.638  35.923  62.635  1.00  0.00     0.231 C 
HETATM   19  O   UNL     1       2.906  34.986  62.923  1.00  0.00    -0.273 OA
HETATM   20  C   UNL     1       3.107  37.177  62.011  1.00  0.00     0.113 C 
HETATM   21  C   UNL     1       4.210  38.177  62.228  1.00  0.00     0.113 C 
HETATM   22  C   UNL     1       5.414  37.329  62.505  1.00  0.00     0.231 C 
HETATM   23  O   UNL     1       6.544  37.799  62.468  1.00  0.00    -0.273 OA
ENDBRANCH  13  17
ENDBRANCH   8  11
ENDBRANCH   4   7
BRANCH   1  24
HETATM   24  C   UNL     1       7.705  28.139  56.466  1.00  0.00     0.139 A 
HETATM   25  N   UNL     1       7.506  26.825  56.833  1.00  0.00    -0.338 N 
HETATM   26  C   UNL     1       7.458  26.048  55.706  1.00  0.00     0.063 A 
HETATM   27  H   UNL     1       7.362  26.496  57.775  1.00  0.00     0.167 HD
HETATM   28  C   UNL     1       7.654  26.948  54.668  1.00  0.00     0.086 A 
HETATM   29  C   UNL     1       7.251  24.683  55.515  1.00  0.00     0.032 A 
HETATM   30  C   UNL     1       7.659  26.474  53.347  1.00  0.00     0.040 A 
HETATM   31  N   UNL     1       7.801  28.227  55.150  1.00  0.00    -0.228 NA
HETATM   32  C   UNL     1       7.464  25.101  53.112  1.00  0.00    -0.060 A 
HETATM   33  C   UNL     1       7.432  24.567  51.709  1.00  0.00     0.048 C 
HETATM   34  C   UNL     1       7.254  24.229  54.191  1.00  0.00     0.009 A 
ENDBRANCH   1  24
TORSDOF 4
ENDMDL
MODEL 6
REMARK VINA RESULT:     -10.0      2.604      3.853
REMARK  4 active torsions:
REMARK  status: ('A' for Active; 'I' for Inactive)
REMARK    1  A    between atoms: C_8  and  C_9 
REMARK    2  A    between atoms: C_12  and  N_13 
REMARK       I    between atoms: N_13  and  C_14 
REMARK    3  A    between atoms: C_14  and  C_15 
REMARK    4  A    between atoms: C_17  and  N_18 
ROOT
HETATM    1  C   UNL     1       6.472  26.252  56.630  1.00  0.00     0.010 A 
HETATM    2  C   UNL     1       5.091  26.482  56.636  1.00  0.00     0.017 A 
HETATM    3  C   UNL     1       4.571  27.724  57.022  1.00  0.00     0.030 A 
HETATM    4  C   UNL     1       5.416  28.761  57.415  1.00  0.00     0.035 A 
HETATM    5  C   UNL     1       6.791  28.512  57.486  1.00  0.00     0.030 A 
HETATM    6  C   UNL     1       7.312  27.271  57.096  1.00  0.00     0.017 A 
ENDROOT
BRANCH   4   7
HETATM    7  N   UNL     1       4.969  30.073  57.696  1.00  0.00    -0.323 N 
HETATM    8  C   UNL     1       4.965  31.139  56.814  1.00  0.00     0.256 C 
HETATM    9  O   UNL     1       5.230  31.117  55.618  1.00  0.00    -0.267 OA
HETATM   10  H   UNL     1       4.794  30.279  58.673  1.00  0.00     0.169 HD
BRANCH   8  11
HETATM   11  C   UNL     1       4.702  32.463  57.432  1.00  0.00     0.034 A 
HETATM   12  C   UNL     1       4.271  32.589  58.762  1.00  0.00     0.047 A 
HETATM   13  C   UNL     1       4.020  33.856  59.326  1.00  0.00     0.046 A 
HETATM   14  C   UNL     1       4.232  34.977  58.503  1.00  0.00     0.030 A 
HETATM   15  C   UNL     1       4.654  34.851  57.174  1.00  0.00     0.003 A 
HETATM   16  C   UNL     1       4.880  33.593  56.635  1.00  0.00     0.017 A 
BRANCH  13  17
HETATM   17  N   UNL     1       3.556  34.000  60.673  1.00  0.00    -0.252 N 
HETATM   18  C   UNL     1       4.370  33.982  61.787  1.00  0.00     0.231 C 
HETATM   19  O   UNL     1       5.592  33.970  61.852  1.00  0.00    -0.273 OA
HETATM   20  C   UNL     1       3.514  33.975  63.017  1.00  0.00     0.113 C 
HETATM   21  C   UNL     1       2.168  34.423  62.516  1.00  0.00     0.113 C 
HETATM   22  C   UNL     1       2.238  34.186  61.038  1.00  0.00     0.231 C 
HETATM   23  O   UNL     1       1.228  34.191  60.346  1.00  0.00    -0.273 OA
ENDBRANCH  13  17
ENDBRANCH   8  11
ENDBRANCH   4   7
BRANCH   1  24
HETATM   24  C   UNL     1       7.050  25.006  56.116  1.00  0.00     0.139 A 
HETATM   25  N   UNL     1       7.543  24.006  56.926  1.00  0.00    -0.338 N 
HETATM   26  C   UNL     1       7.919  22.944  56.147  1.00  0.00     0.063 A 
HETATM   27  H   UNL     1       7.570  24.028  57.933  1.00  0.00     0.167 HD
HETATM   28  C   UNL     1       7.647  23.363  54.852  1.00  0.00     0.086 A 
HETATM   29  C   UNL     1       8.442  21.690  56.458  1.00  0.00     0.032 A 
HETATM   30  C   UNL     1       7.917  22.495  53.783  1.00  0.00     0.040 A 
HETATM   31  N   UNL     1       7.112  24.630  54.850  1.00  0.00    -0.228 NA
HETATM   32  C   UNL     1       8.455  21.223  54.054  1.00  0.00    -0.060 A 
HETATM   33  C   UNL     1       8.725  20.259  52.935  1.00  0.00     0.048 C 
HETATM   34  C   UNL     1       8.700  20.834  55.380  1.00  0.00     0.009 A 
ENDBRANCH   1  24
TORSDOF 4
ENDMDL
MODEL 7
REMARK VINA RESULT:      -9.7      2.327      3.285
REMARK  4 active torsions:
REMARK  status: ('A' for Active; 'I' for Inactive)
REMARK    1  A    between atoms: C_8  and  C_9 
REMARK    2  A    between atoms: C_12  and  N_13 
REMARK       I    between atoms: N_13  and  C_14 
REMARK    3  A    between atoms: C_14  and  C_15 
REMARK    4  A    between atoms: C_17  and  N_18 
ROOT
HETATM    1  C   UNL     1       5.390  27.909  56.019  1.00  0.00     0.010 A 
HETATM    2  C   UNL     1       4.174  28.516  55.685  1.00  0.00     0.017 A 
HETATM    3  C   UNL     1       3.747  29.679  56.340  1.00  0.00     0.030 A 
HETATM    4  C   UNL     1       4.522  30.258  57.344  1.00  0.00     0.035 A 
HETATM    5  C   UNL     1       5.699  29.612  57.735  1.00  0.00     0.030 A 
HETATM    6  C   UNL     1       6.130  28.452  57.078  1.00  0.00     0.017 A 
ENDROOT
BRANCH   4   7
HETATM    7  N   UNL     1       4.213  31.494  57.958  1.00  0.00    -0.323 N 
HETATM    8  C   UNL     1       4.740  32.727  57.616  1.00  0.00     0.256 C 
HETATM    9  O   UNL     1       5.464  32.989  56.663  1.00  0.00    -0.267 OA
HETATM   10  H   UNL     1       3.688  31.438  58.823  1.00  0.00     0.169 HD
BRANCH   8  11
HETATM   11  C   UNL     1       4.461  33.817  58.584  1.00  0.00     0.034 A 
HETATM   12  C   UNL     1       4.433  33.592  59.969  1.00  0.00     0.047 A 
HETATM   13  C   UNL     1       4.159  34.641  60.869  1.00  0.00     0.046 A 
HETATM   14  C   UNL     1       3.927  35.915  60.317  1.00  0.00     0.030 A 
HETATM   15  C   UNL     1       3.946  36.138  58.935  1.00  0.00     0.003 A 
HETATM   16  C   UNL     1       4.204  35.087  58.067  1.00  0.00     0.017 A 
BRANCH  13  17
HETATM   17  N   UNL     1       4.102  34.423  62.283  1.00  0.00    -0.252 N 
HETATM   18  C   UNL     1       2.939  34.396  63.025  1.00  0.00     0.231 C 
HETATM   19  O   UNL     1       1.777  34.421  62.641  1.00  0.00    -0.273 OA
HETATM   20  C   UNL     1       3.289  34.330  64.480  1.00  0.00     0.113 C 
HETATM   21  C   UNL     1       4.728  33.890  64.480  1.00  0.00     0.113 C 
HETATM   22  C   UNL     1       5.199  34.201  63.092  1.00  0.00     0.231 C 
HETATM   23  O   UNL     1       6.391  34.218  62.815  1.00  0.00    -0.273 OA
ENDBRANCH  13  17
ENDBRANCH   8  11
ENDBRANCH   4   7
BRANCH   1  24
HETATM   24  C   UNL     1       5.920  26.766  55.269  1.00  0.00     0.139 A 
HETATM   25  N   UNL     1       6.440  26.867  53.996  1.00  0.00    -0.338 N 
HETATM   26  C   UNL     1       6.935  25.648  53.617  1.00  0.00     0.063 A 
HETATM   27  H   UNL     1       6.500  27.715  53.454  1.00  0.00     0.167 HD
HETATM   28  C   UNL     1       6.670  24.824  54.702  1.00  0.00     0.086 A 
HETATM   29  C   UNL     1       7.583  25.215  52.461  1.00  0.00     0.032 A 
HETATM   30  C   UNL     1       7.059  23.477  54.647  1.00  0.00     0.040 A 
HETATM   31  N   UNL     1       6.049  25.526  55.708  1.00  0.00    -0.228 NA
HETATM   32  C   UNL     1       7.707  22.999  53.493  1.00  0.00    -0.060 A 
HETATM   33  C   UNL     1       8.164  21.570  53.416  1.00  0.00     0.048 C 
HETATM   34  C   UNL     1       7.969  23.870  52.425  1.00  0.00     0.009 A 
ENDBRANCH   1  24
TORSDOF 4
ENDMDL
MODEL 8
REMARK VINA RESULT:      -9.5      5.935      7.175
REMARK  4 active torsions:
REMARK  status: ('A' for Active; 'I' for Inactive)
REMARK    1  A    between atoms: C_8  and  C_9 
REMARK    2  A    between atoms: C_12  and  N_13 
REMARK       I    between atoms: N_13  and  C_14 
REMARK    3  A    between atoms: C_14  and  C_15 
REMARK    4  A    between atoms: C_17  and  N_18 
ROOT
HETATM    1  C   UNL     1       5.369  27.358  54.529  1.00  0.00     0.010 A 
HETATM    2  C   UNL     1       4.806  27.830  55.720  1.00  0.00     0.017 A 
HETATM    3  C   UNL     1       4.063  29.018  55.744  1.00  0.00     0.030 A 
HETATM    4  C   UNL     1       3.868  29.761  54.581  1.00  0.00     0.035 A 
HETATM    5  C   UNL     1       4.494  29.336  53.404  1.00  0.00     0.030 A 
HETATM    6  C   UNL     1       5.234  28.146  53.378  1.00  0.00     0.017 A 
ENDROOT
BRANCH   4   7
HETATM    7  N   UNL     1       3.030  30.897  54.507  1.00  0.00    -0.323 N 
HETATM    8  C   UNL     1       3.425  32.213  54.671  1.00  0.00     0.256 C 
HETATM    9  O   UNL     1       4.568  32.638  54.789  1.00  0.00    -0.267 OA
HETATM   10  H   UNL     1       2.034  30.710  54.496  1.00  0.00     0.169 HD
BRANCH   8  11
HETATM   11  C   UNL     1       2.314  33.187  54.814  1.00  0.00     0.034 A 
HETATM   12  C   UNL     1       0.968  32.790  54.783  1.00  0.00     0.047 A 
HETATM   13  C   UNL     1      -0.070  33.733  54.913  1.00  0.00     0.046 A 
HETATM   14  C   UNL     1       0.305  35.078  55.085  1.00  0.00     0.030 A 
HETATM   15  C   UNL     1       1.646  35.476  55.107  1.00  0.00     0.003 A 
HETATM   16  C   UNL     1       2.652  34.532  54.962  1.00  0.00     0.017 A 
BRANCH  13  17
HETATM   17  N   UNL     1      -1.448  33.347  54.858  1.00  0.00    -0.252 N 
HETATM   18  C   UNL     1      -2.291  33.302  55.949  1.00  0.00     0.231 C 
HETATM   19  O   UNL     1      -2.093  33.682  57.095  1.00  0.00    -0.273 OA
HETATM   20  C   UNL     1      -3.591  32.680  55.537  1.00  0.00     0.113 C 
HETATM   21  C   UNL     1      -3.568  32.770  54.035  1.00  0.00     0.113 C 
HETATM   22  C   UNL     1      -2.119  32.977  53.710  1.00  0.00     0.231 C 
HETATM   23  O   UNL     1      -1.697  32.830  52.570  1.00  0.00    -0.273 OA
ENDBRANCH  13  17
ENDBRANCH   8  11
ENDBRANCH   4   7
BRANCH   1  24
HETATM   24  C   UNL     1       6.046  26.060  54.450  1.00  0.00     0.139 A 
HETATM   25  N   UNL     1       6.442  25.341  55.558  1.00  0.00    -0.338 N 
HETATM   26  C   UNL     1       6.952  24.137  55.151  1.00  0.00     0.063 A 
HETATM   27  H   UNL     1       6.323  25.630  56.516  1.00  0.00     0.167 HD
HETATM   28  C   UNL     1       6.859  24.182  53.767  1.00  0.00     0.086 A 
HETATM   29  C   UNL     1       7.456  23.044  55.854  1.00  0.00     0.032 A 
HETATM   30  C   UNL     1       7.301  23.081  53.017  1.00  0.00     0.040 A 
HETATM   31  N   UNL     1       6.298  25.367  53.353  1.00  0.00    -0.228 NA
HETATM   32  C   UNL     1       7.826  21.962  53.690  1.00  0.00    -0.060 A 
HETATM   33  C   UNL     1       8.278  20.756  52.918  1.00  0.00     0.048 C 
HETATM   34  C   UNL     1       7.888  21.953  55.091  1.00  0.00     0.009 A 
ENDBRANCH   1  24
TORSDOF 4
ENDMDL
MODEL 9
REMARK VINA RESULT:      -9.4      7.189     11.370
REMARK  4 active torsions:
REMARK  status: ('A' for Active; 'I' for Inactive)
REMARK    1  A    between atoms: C_8  and  C_9 
REMARK    2  A    between atoms: C_12  and  N_13 
REMARK       I    between atoms: N_13  and  C_14 
REMARK    3  A    between atoms: C_14  and  C_15 
REMARK    4  A    between atoms: C_17  and  N_18 
ROOT
HETATM    1  C   UNL     1       3.712  27.792  49.979  1.00  0.00     0.010 A 
HETATM    2  C   UNL     1       4.625  26.742  49.827  1.00  0.00     0.017 A 
HETATM    3  C   UNL     1       5.352  26.257  50.922  1.00  0.00     0.030 A 
HETATM    4  C   UNL     1       5.185  26.809  52.191  1.00  0.00     0.035 A 
HETATM    5  C   UNL     1       4.332  27.909  52.334  1.00  0.00     0.030 A 
HETATM    6  C   UNL     1       3.601  28.393  51.240  1.00  0.00     0.017 A 
ENDROOT
BRANCH   4   7
HETATM    7  N   UNL     1       5.789  26.290  53.358  1.00  0.00    -0.323 N 
HETATM    8  C   UNL     1       6.882  26.825  54.017  1.00  0.00     0.256 C 
HETATM    9  O   UNL     1       7.442  27.890  53.786  1.00  0.00    -0.267 OA
HETATM   10  H   UNL     1       5.493  25.360  53.632  1.00  0.00     0.169 HD
BRANCH   8  11
HETATM   11  C   UNL     1       7.483  25.946  55.051  1.00  0.00     0.034 A 
HETATM   12  C   UNL     1       7.706  24.579  54.826  1.00  0.00     0.047 A 
HETATM   13  C   UNL     1       8.271  23.762  55.824  1.00  0.00     0.046 A 
HETATM   14  C   UNL     1       8.608  24.379  57.043  1.00  0.00     0.030 A 
HETATM   15  C   UNL     1       8.378  25.741  57.271  1.00  0.00     0.003 A 
HETATM   16  C   UNL     1       7.807  26.523  56.279  1.00  0.00     0.017 A 
BRANCH  13  17
HETATM   17  N   UNL     1       8.482  22.360  55.619  1.00  0.00    -0.252 N 
HETATM   18  C   UNL     1       8.464  21.411  56.620  1.00  0.00     0.231 C 
HETATM   19  O   UNL     1       8.155  21.536  57.798  1.00  0.00    -0.273 OA
HETATM   20  C   UNL     1       8.905  20.095  56.055  1.00  0.00     0.113 C 
HETATM   21  C   UNL     1       8.760  20.281  54.569  1.00  0.00     0.113 C 
HETATM   22  C   UNL     1       8.722  21.769  54.395  1.00  0.00     0.231 C 
HETATM   23  O   UNL     1       8.876  22.284  53.295  1.00  0.00    -0.273 OA
ENDBRANCH  13  17
ENDBRANCH   8  11
ENDBRANCH   4   7
BRANCH   1  24
HETATM   24  C   UNL     1       2.850  28.238  48.879  1.00  0.00     0.139 A 
HETATM   25  N   UNL     1       1.907  27.432  48.278  1.00  0.00    -0.338 N 
HETATM   26  C   UNL     1       1.208  28.170  47.360  1.00  0.00     0.063 A 
HETATM   27  H   UNL     1       1.721  26.471  48.516  1.00  0.00     0.167 HD
HETATM   28  C   UNL     1       1.786  29.429  47.429  1.00  0.00     0.086 A 
HETATM   29  C   UNL     1       0.145  27.855  46.515  1.00  0.00     0.032 A 
HETATM   30  C   UNL     1       1.295  30.452  46.603  1.00  0.00     0.040 A 
HETATM   31  N   UNL     1       2.791  29.455  48.368  1.00  0.00    -0.228 NA
HETATM   32  C   UNL     1       0.230  30.171  45.727  1.00  0.00    -0.060 A 
HETATM   33  C   UNL     1      -0.339  31.252  44.854  1.00  0.00     0.048 C 
HETATM   34  C   UNL     1      -0.336  28.888  45.701  1.00  0.00     0.009 A 
ENDBRANCH   1  24
TORSDOF 4
ENDMDL
MODEL 10
REMARK VINA RESULT:      -9.3      8.253     10.525
REMARK  4 active torsions:
REMARK  status: ('A' for Active; 'I' for Inactive)
REMARK    1  A    between atoms: C_8  and  C_9 
REMARK    2  A    between atoms: C_12  and  N_13 
REMARK       I    between atoms: N_13  and  C_14 
REMARK    3  A    between atoms: C_14  and  C_15 
REMARK    4  A    between atoms: C_17  and  N_18 
ROOT
HETATM    1  C   UNL     1       6.396  25.852  53.035  1.00  0.00     0.010 A 
HETATM    2  C   UNL     1       5.600  25.974  51.890  1.00  0.00     0.017 A 
HETATM    3  C   UNL     1       5.277  27.233  51.368  1.00  0.00     0.030 A 
HETATM    4  C   UNL     1       5.739  28.398  51.980  1.00  0.00     0.035 A 
HETATM    5  C   UNL     1       6.469  28.285  53.168  1.00  0.00     0.030 A 
HETATM    6  C   UNL     1       6.796  27.026  53.687  1.00  0.00     0.017 A 
ENDROOT
BRANCH   4   7
HETATM    7  N   UNL     1       5.557  29.692  51.440  1.00  0.00    -0.323 N 
HETATM    8  C   UNL     1       5.729  30.054  50.115  1.00  0.00     0.256 C 
HETATM    9  O   UNL     1       5.950  29.314  49.164  1.00  0.00    -0.267 OA
HETATM   10  H   UNL     1       5.451  30.441  52.115  1.00  0.00     0.169 HD
BRANCH   8  11
HETATM   11  C   UNL     1       5.739  31.516  49.861  1.00  0.00     0.034 A 
HETATM   12  C   UNL     1       6.352  32.069  48.726  1.00  0.00     0.047 A 
HETATM   13  C   UNL     1       6.356  33.461  48.509  1.00  0.00     0.046 A 
HETATM   14  C   UNL     1       5.711  34.261  49.470  1.00  0.00     0.030 A 
HETATM   15  C   UNL     1       5.106  33.711  50.606  1.00  0.00     0.003 A 
HETATM   16  C   UNL     1       5.128  32.339  50.807  1.00  0.00     0.017 A 
BRANCH  13  17
HETATM   17  N   UNL     1       6.999  34.043  47.369  1.00  0.00    -0.252 N 
HETATM   18  C   UNL     1       8.086  34.890  47.432  1.00  0.00     0.231 C 
HETATM   19  O   UNL     1       8.769  35.201  48.399  1.00  0.00    -0.273 OA
HETATM   20  C   UNL     1       8.360  35.436  46.064  1.00  0.00     0.113 C 
HETATM   21  C   UNL     1       7.612  34.501  45.152  1.00  0.00     0.113 C 
HETATM   22  C   UNL     1       6.626  33.828  46.058  1.00  0.00     0.231 C 
HETATM   23  O   UNL     1       5.677  33.199  45.607  1.00  0.00    -0.273 OA
ENDBRANCH  13  17
ENDBRANCH   8  11
ENDBRANCH   4   7
BRANCH   1  24
HETATM   24  C   UNL     1       6.851  24.549  53.531  1.00  0.00     0.139 A 
HETATM   25  N   UNL     1       7.116  23.474  52.710  1.00  0.00    -0.338 N 
HETATM   26  C   UNL     1       7.611  22.445  53.466  1.00  0.00     0.063 A 
HETATM   27  H   UNL     1       7.016  23.465  51.707  1.00  0.00     0.167 HD
HETATM   28  C   UNL     1       7.609  22.947  54.760  1.00  0.00     0.086 A 
HETATM   29  C   UNL     1       8.058  21.167  53.135  1.00  0.00     0.032 A 
HETATM   30  C   UNL     1       8.069  22.134  55.807  1.00  0.00     0.040 A 
HETATM   31  N   UNL     1       7.142  24.240  54.782  1.00  0.00    -0.228 NA
HETATM   32  C   UNL     1       8.519  20.833  55.516  1.00  0.00    -0.060 A 
HETATM   33  C   UNL     1       9.048  19.950  56.610  1.00  0.00     0.048 C 
HETATM   34  C   UNL     1       8.518  20.372  54.191  1.00  0.00     0.009 A 
ENDBRANCH   1  24
TORSDOF 4
ENDMDL
