MODEL 1
REMARK VINA RESULT:      -8.1      0.000      0.000
REMARK  9 active torsions:
REMARK  status: ('A' for Active; 'I' for Inactive)
REMARK    1  A    between atoms: O_2  and  C_3 
REMARK    2  A    between atoms: C_3  and  C_4 
REMARK    3  A    between atoms: C_4  and  S_5 
REMARK    4  A    between atoms: S_5  and  C_6 
REMARK    5  A    between atoms: C_7  and  C_8 
REMARK       I    between atoms: C_8  and  N_9 
REMARK    6  A    between atoms: N_9  and  C_10 
REMARK    7  A    between atoms: C_11  and  C_12 
REMARK       I    between atoms: C_12  and  N_13 
REMARK    8  A    between atoms: N_13  and  C_14 
REMARK    9  A    between atoms: C_14  and  C_15 
ROOT
HETATM    1  C   UNL     1       5.397  28.365  56.378  1.00  0.00     0.050 A 
HETATM    2  C   UNL     1       5.962  29.138  57.404  1.00  0.00     0.058 A 
HETATM    3  C   UNL     1       5.264  30.231  57.942  1.00  0.00     0.019 A 
HETATM    4  C   UNL     1       4.006  30.569  57.447  1.00  0.00     0.001 A 
HETATM    5  C   UNL     1       3.458  29.838  56.396  1.00  0.00     0.002 A 
HETATM    6  C   UNL     1       4.154  28.752  55.857  1.00  0.00     0.030 A 
ENDROOT
BRANCH   1   7
HETATM    7  N   UNL     1       5.995  27.222  55.803  1.00  0.00    -0.322 N 
HETATM    8  C   UNL     1       5.764  25.919  56.222  1.00  0.00     0.257 C 
HETATM    9  O   UNL     1       4.868  25.587  56.985  1.00  0.00    -0.267 OA
HETATM   10  H   UNL     1       6.424  27.337  54.894  1.00  0.00     0.169 HD
BRANCH   8  11
HETATM   11  C   UNL     1       6.647  24.908  55.574  1.00  0.00     0.049 A 
HETATM   12  C   UNL     1       6.447  24.434  54.264  1.00  0.00     0.016 A 
HETATM   13  C   UNL     1       7.334  23.466  53.760  1.00  0.00     0.019 A 
HETATM   14  C   UNL     1       8.398  22.984  54.526  1.00  0.00     0.001 A 
HETATM   15  C   UNL     1       8.585  23.448  55.822  1.00  0.00     0.001 A 
HETATM   16  C   UNL     1       7.710  24.398  56.347  1.00  0.00     0.018 A 
BRANCH  12  17
HETATM   17  S   UNL     1       5.141  24.923  53.140  1.00  0.00    -0.127 SA
BRANCH  17  18
HETATM   18  C   UNL     1       6.069  25.877  51.882  1.00  0.00     0.106 C 
BRANCH  18  19
HETATM   19  C   UNL     1       5.206  26.387  50.729  1.00  0.00     0.177 C 
BRANCH  19  20
HETATM   20  O   UNL     1       5.454  27.773  50.491  1.00  0.00    -0.395 OA
HETATM   21  C   UNL     1       5.318  28.544  51.676  1.00  0.00     0.201 C 
ENDBRANCH  19  20
ENDBRANCH  18  19
ENDBRANCH  17  18
ENDBRANCH  12  17
ENDBRANCH   8  11
ENDBRANCH   1   7
BRANCH   2  22
HETATM   22  C   UNL     1       7.378  29.016  57.819  1.00  0.00     0.254 C 
HETATM   23  N   UNL     1       8.097  30.184  57.729  1.00  0.00    -0.354 N 
HETATM   24  H   UNL     1       7.533  31.013  57.905  1.00  0.00     0.162 HD
HETATM   25  O   UNL     1       7.822  27.924  58.149  1.00  0.00    -0.268 OA
BRANCH  23  26
HETATM   26  C   UNL     1       9.468  30.260  58.202  1.00  0.00     0.155 C 
BRANCH  26  27
HETATM   27  C   UNL     1       9.600  31.228  59.376  1.00  0.00     0.139 C 
HETATM   28  O   UNL     1       8.743  32.373  59.207  1.00  0.00    -0.384 OA
HETATM   29  C   UNL     1       8.225  32.741  60.495  1.00  0.00     0.168 C 
HETATM   30  C   UNL     1       8.884  31.842  61.520  1.00  0.00     0.029 C 
HETATM   31  C   UNL     1       9.205  30.613  60.709  1.00  0.00     0.035 C 
ENDBRANCH  26  27
ENDBRANCH  23  26
ENDBRANCH   2  22
TORSDOF 9
ENDMDL
MODEL 2
REMARK VINA RESULT:      -8.1      2.987      8.195
REMARK  9 active torsions:
REMARK  status: ('A' for Active; 'I' for Inactive)
REMARK    1  A    between atoms: O_2  and  C_3 
REMARK    2  A    between atoms: C_3  and  C_4 
REMARK    3  A    between atoms: C_4  and  S_5 
REMARK    4  A    between atoms: S_5  and  C_6 
REMARK    5  A    between atoms: C_7  and  C_8 
REMARK       I    between atoms: C_8  and  N_9 
REMARK    6  A    between atoms: N_9  and  C_10 
REMARK    7  A    between atoms: C_11  and  C_12 
REMARK       I    between atoms: C_12  and  N_13 
REMARK    8  A    between atoms: N_13  and  C_14 
REMARK    9  A    between atoms: C_14  and  C_15 
ROOT
HETATM    1  C   UNL     1       4.810  27.455  53.185  1.00  0.00     0.050 A 
HETATM    2  C   UNL     1       4.616  27.852  51.852  1.00  0.00     0.058 A 
HETATM    3  C   UNL     1       4.066  29.109  51.555  1.00  0.00     0.019 A 
HETATM    4  C   UNL     1       3.691  29.970  52.584  1.00  0.00     0.001 A 
HETATM    5  C   UNL     1       3.835  29.565  53.909  1.00  0.00     0.002 A 
HETATM    6  C   UNL     1       4.378  28.312  54.207  1.00  0.00     0.030 A 
ENDROOT
BRANCH   1   7
HETATM    7  N   UNL     1       5.395  26.235  53.588  1.00  0.00    -0.322 N 
HETATM    8  C   UNL     1       6.761  26.018  53.703  1.00  0.00     0.257 C 
HETATM    9  O   UNL     1       7.606  26.904  53.676  1.00  0.00    -0.267 OA
HETATM   10  H   UNL     1       4.790  25.564  54.044  1.00  0.00     0.169 HD
BRANCH   8  11
HETATM   11  C   UNL     1       7.130  24.600  53.973  1.00  0.00     0.049 A 
HETATM   12  C   UNL     1       7.074  24.018  55.254  1.00  0.00     0.016 A 
HETATM   13  C   UNL     1       7.462  22.674  55.395  1.00  0.00     0.019 A 
HETATM   14  C   UNL     1       7.887  21.919  54.299  1.00  0.00     0.001 A 
HETATM   15  C   UNL     1       7.950  22.502  53.039  1.00  0.00     0.001 A 
HETATM   16  C   UNL     1       7.582  23.837  52.878  1.00  0.00     0.018 A 
BRANCH  12  17
HETATM   17  S   UNL     1       6.570  24.824  56.771  1.00  0.00    -0.127 SA
BRANCH  17  18
HETATM   18  C   UNL     1       8.158  25.500  57.381  1.00  0.00     0.106 C 
BRANCH  18  19
HETATM   19  C   UNL     1       8.351  26.989  57.096  1.00  0.00     0.177 C 
BRANCH  19  20
HETATM   20  O   UNL     1       7.807  27.778  58.154  1.00  0.00    -0.395 OA
HETATM   21  C   UNL     1       6.935  28.786  57.665  1.00  0.00     0.201 C 
ENDBRANCH  19  20
ENDBRANCH  18  19
ENDBRANCH  17  18
ENDBRANCH  12  17
ENDBRANCH   8  11
ENDBRANCH   1   7
BRANCH   2  22
HETATM   22  C   UNL     1       4.745  26.923  50.707  1.00  0.00     0.254 C 
HETATM   23  N   UNL     1       3.750  27.040  49.766  1.00  0.00    -0.354 N 
HETATM   24  H   UNL     1       3.398  27.991  49.677  1.00  0.00     0.162 HD
HETATM   25  O   UNL     1       5.655  26.104  50.691  1.00  0.00    -0.268 OA
BRANCH  23  26
HETATM   26  C   UNL     1       3.792  26.280  48.530  1.00  0.00     0.155 C 
BRANCH  26  27
HETATM   27  C   UNL     1       2.999  26.972  47.423  1.00  0.00     0.139 C 
HETATM   28  O   UNL     1       1.715  26.349  47.234  1.00  0.00    -0.384 OA
HETATM   29  C   UNL     1       0.757  27.377  46.936  1.00  0.00     0.168 C 
HETATM   30  C   UNL     1       1.514  28.684  46.830  1.00  0.00     0.029 C 
HETATM   31  C   UNL     1       2.707  28.435  47.717  1.00  0.00     0.035 C 
ENDBRANCH  26  27
ENDBRANCH  23  26
ENDBRANCH   2  22
TORSDOF 9
ENDMDL
MODEL 3
REMARK VINA RESULT:      -8.1      2.695      5.333
REMARK  9 active torsions:
REMARK  status: ('A' for Active; 'I' for Inactive)
REMARK    1  A    between atoms: O_2  and  C_3 
REMARK    2  A    between atoms: C_3  and  C_4 
REMARK    3  A    between atoms: C_4  and  S_5 
REMARK    4  A    between atoms: S_5  and  C_6 
REMARK    5  A    between atoms: C_7  and  C_8 
REMARK       I    between atoms: C_8  and  N_9 
REMARK    6  A    between atoms: N_9  and  C_10 
REMARK    7  A    between atoms: C_11  and  C_12 
REMARK       I    between atoms: C_12  and  N_13 
REMARK    8  A    between atoms: N_13  and  C_14 
REMARK    9  A    between atoms: C_14  and  C_15 
ROOT
HETATM    1  C   UNL     1       5.221  26.136  52.036  1.00  0.00     0.050 A 
HETATM    2  C   UNL     1       4.785  27.369  52.546  1.00  0.00     0.058 A 
HETATM    3  C   UNL     1       4.229  28.336  51.693  1.00  0.00     0.019 A 
HETATM    4  C   UNL     1       4.121  28.086  50.327  1.00  0.00     0.001 A 
HETATM    5  C   UNL     1       4.595  26.885  49.806  1.00  0.00     0.002 A 
HETATM    6  C   UNL     1       5.154  25.922  50.652  1.00  0.00     0.030 A 
ENDROOT
BRANCH   1   7
HETATM    7  N   UNL     1       5.750  25.082  52.813  1.00  0.00    -0.322 N 
HETATM    8  C   UNL     1       7.105  24.820  52.963  1.00  0.00     0.257 C 
HETATM    9  O   UNL     1       7.998  25.583  52.622  1.00  0.00    -0.267 OA
HETATM   10  H   UNL     1       5.128  24.646  53.482  1.00  0.00     0.169 HD
BRANCH   8  11
HETATM   11  C   UNL     1       7.401  23.551  53.687  1.00  0.00     0.049 A 
HETATM   12  C   UNL     1       7.229  23.395  55.075  1.00  0.00     0.016 A 
HETATM   13  C   UNL     1       7.556  22.156  55.655  1.00  0.00     0.019 A 
HETATM   14  C   UNL     1       8.034  21.094  54.883  1.00  0.00     0.001 A 
HETATM   15  C   UNL     1       8.211  21.257  53.514  1.00  0.00     0.001 A 
HETATM   16  C   UNL     1       7.905  22.481  52.920  1.00  0.00     0.018 A 
BRANCH  12  17
HETATM   17  S   UNL     1       6.642  24.637  56.223  1.00  0.00    -0.127 SA
BRANCH  17  18
HETATM   18  C   UNL     1       8.207  25.220  56.974  1.00  0.00     0.106 C 
BRANCH  18  19
HETATM   19  C   UNL     1       8.372  26.740  56.966  1.00  0.00     0.177 C 
BRANCH  19  20
HETATM   20  O   UNL     1       7.734  27.320  58.104  1.00  0.00    -0.395 OA
HETATM   21  C   UNL     1       7.707  28.738  58.026  1.00  0.00     0.201 C 
ENDBRANCH  19  20
ENDBRANCH  18  19
ENDBRANCH  17  18
ENDBRANCH  12  17
ENDBRANCH   8  11
ENDBRANCH   1   7
BRANCH   2  22
HETATM   22  C   UNL     1       5.083  27.824  53.922  1.00  0.00     0.254 C 
HETATM   23  N   UNL     1       3.979  28.219  54.640  1.00  0.00    -0.354 N 
HETATM   24  H   UNL     1       3.138  27.702  54.393  1.00  0.00     0.162 HD
HETATM   25  O   UNL     1       6.245  27.874  54.306  1.00  0.00    -0.268 OA
BRANCH  23  26
HETATM   26  C   UNL     1       4.087  28.587  56.041  1.00  0.00     0.155 C 
BRANCH  26  27
HETATM   27  C   UNL     1       3.950  30.097  56.232  1.00  0.00     0.139 C 
HETATM   28  O   UNL     1       3.394  30.410  57.523  1.00  0.00    -0.384 OA
HETATM   29  C   UNL     1       4.035  31.599  58.011  1.00  0.00     0.168 C 
HETATM   30  C   UNL     1       4.951  32.101  56.915  1.00  0.00     0.029 C 
HETATM   31  C   UNL     1       5.278  30.834  56.167  1.00  0.00     0.035 C 
ENDBRANCH  26  27
ENDBRANCH  23  26
ENDBRANCH   2  22
TORSDOF 9
ENDMDL
MODEL 4
REMARK VINA RESULT:      -8.0      2.224      8.018
REMARK  9 active torsions:
REMARK  status: ('A' for Active; 'I' for Inactive)
REMARK    1  A    between atoms: O_2  and  C_3 
REMARK    2  A    between atoms: C_3  and  C_4 
REMARK    3  A    between atoms: C_4  and  S_5 
REMARK    4  A    between atoms: S_5  and  C_6 
REMARK    5  A    between atoms: C_7  and  C_8 
REMARK       I    between atoms: C_8  and  N_9 
REMARK    6  A    between atoms: N_9  and  C_10 
REMARK    7  A    between atoms: C_11  and  C_12 
REMARK       I    between atoms: C_12  and  N_13 
REMARK    8  A    between atoms: N_13  and  C_14 
REMARK    9  A    between atoms: C_14  and  C_15 
ROOT
HETATM    1  C   UNL     1       7.171  24.705  54.681  1.00  0.00     0.050 A 
HETATM    2  C   UNL     1       6.691  24.113  53.501  1.00  0.00     0.058 A 
HETATM    3  C   UNL     1       7.271  22.932  53.010  1.00  0.00     0.019 A 
HETATM    4  C   UNL     1       8.342  22.346  53.681  1.00  0.00     0.001 A 
HETATM    5  C   UNL     1       8.856  22.953  54.824  1.00  0.00     0.002 A 
HETATM    6  C   UNL     1       8.283  24.131  55.313  1.00  0.00     0.030 A 
ENDROOT
BRANCH   1   7
HETATM    7  N   UNL     1       6.630  25.863  55.282  1.00  0.00    -0.322 N 
HETATM    8  C   UNL     1       6.994  27.162  54.954  1.00  0.00     0.257 C 
HETATM    9  O   UNL     1       7.659  27.466  53.973  1.00  0.00    -0.267 OA
HETATM   10  H   UNL     1       5.770  25.751  55.803  1.00  0.00     0.169 HD
BRANCH   8  11
HETATM   11  C   UNL     1       6.411  28.199  55.851  1.00  0.00     0.049 A 
HETATM   12  C   UNL     1       7.181  28.970  56.742  1.00  0.00     0.016 A 
HETATM   13  C   UNL     1       6.522  29.911  57.554  1.00  0.00     0.019 A 
HETATM   14  C   UNL     1       5.138  30.091  57.484  1.00  0.00     0.001 A 
HETATM   15  C   UNL     1       4.382  29.320  56.610  1.00  0.00     0.001 A 
HETATM   16  C   UNL     1       5.013  28.373  55.804  1.00  0.00     0.018 A 
BRANCH  12  17
HETATM   17  S   UNL     1       8.953  28.874  56.981  1.00  0.00    -0.127 SA
BRANCH  17  18
HETATM   18  C   UNL     1       9.217  30.097  58.318  1.00  0.00     0.106 C 
BRANCH  18  19
HETATM   19  C   UNL     1      10.303  31.128  58.012  1.00  0.00     0.177 C 
BRANCH  19  20
HETATM   20  O   UNL     1      10.060  32.340  58.725  1.00  0.00    -0.395 OA
HETATM   21  C   UNL     1       9.182  32.139  59.823  1.00  0.00     0.201 C 
ENDBRANCH  19  20
ENDBRANCH  18  19
ENDBRANCH  17  18
ENDBRANCH  12  17
ENDBRANCH   8  11
ENDBRANCH   1   7
BRANCH   2  22
HETATM   22  C   UNL     1       5.737  24.786  52.592  1.00  0.00     0.254 C 
HETATM   23  N   UNL     1       6.311  25.714  51.755  1.00  0.00    -0.354 N 
HETATM   24  H   UNL     1       7.263  25.472  51.487  1.00  0.00     0.162 HD
HETATM   25  O   UNL     1       4.542  24.532  52.670  1.00  0.00    -0.268 OA
BRANCH  23  26
HETATM   26  C   UNL     1       5.531  26.380  50.727  1.00  0.00     0.155 C 
BRANCH  26  27
HETATM   27  C   UNL     1       5.388  27.873  51.017  1.00  0.00     0.139 C 
HETATM   28  O   UNL     1       4.888  28.582  49.868  1.00  0.00    -0.384 OA
HETATM   29  C   UNL     1       4.001  29.614  50.328  1.00  0.00     0.168 C 
HETATM   30  C   UNL     1       4.045  29.606  51.841  1.00  0.00     0.029 C 
HETATM   31  C   UNL     1       4.413  28.176  52.143  1.00  0.00     0.035 C 
ENDBRANCH  26  27
ENDBRANCH  23  26
ENDBRANCH   2  22
TORSDOF 9
ENDMDL
MODEL 5
REMARK VINA RESULT:      -8.0      2.287      5.897
REMARK  9 active torsions:
REMARK  status: ('A' for Active; 'I' for Inactive)
REMARK    1  A    between atoms: O_2  and  C_3 
REMARK    2  A    between atoms: C_3  and  C_4 
REMARK    3  A    between atoms: C_4  and  S_5 
REMARK    4  A    between atoms: S_5  and  C_6 
REMARK    5  A    between atoms: C_7  and  C_8 
REMARK       I    between atoms: C_8  and  N_9 
REMARK    6  A    between atoms: N_9  and  C_10 
REMARK    7  A    between atoms: C_11  and  C_12 
REMARK       I    between atoms: C_12  and  N_13 
REMARK    8  A    between atoms: N_13  and  C_14 
REMARK    9  A    between atoms: C_14  and  C_15 
ROOT
HETATM    1  C   UNL     1       7.225  23.926  53.692  1.00  0.00     0.050 A 
HETATM    2  C   UNL     1       7.306  23.809  55.089  1.00  0.00     0.058 A 
HETATM    3  C   UNL     1       7.755  22.617  55.679  1.00  0.00     0.019 A 
HETATM    4  C   UNL     1       8.109  21.531  54.882  1.00  0.00     0.001 A 
HETATM    5  C   UNL     1       7.986  21.621  53.498  1.00  0.00     0.002 A 
HETATM    6  C   UNL     1       7.534  22.806  52.908  1.00  0.00     0.030 A 
ENDROOT
BRANCH   1   7
HETATM    7  N   UNL     1       6.831  25.092  53.000  1.00  0.00    -0.322 N 
HETATM    8  C   UNL     1       5.543  25.340  52.546  1.00  0.00     0.257 C 
HETATM    9  O   UNL     1       4.559  24.689  52.871  1.00  0.00    -0.267 OA
HETATM   10  H   UNL     1       7.456  25.887  53.047  1.00  0.00     0.169 HD
BRANCH   8  11
HETATM   11  C   UNL     1       5.424  26.556  51.693  1.00  0.00     0.049 A 
HETATM   12  C   UNL     1       5.658  27.860  52.170  1.00  0.00     0.016 A 
HETATM   13  C   UNL     1       5.499  28.936  51.278  1.00  0.00     0.019 A 
HETATM   14  C   UNL     1       5.126  28.731  49.948  1.00  0.00     0.001 A 
HETATM   15  C   UNL     1       4.885  27.443  49.486  1.00  0.00     0.001 A 
HETATM   16  C   UNL     1       5.025  26.362  50.355  1.00  0.00     0.018 A 
BRANCH  12  17
HETATM   17  S   UNL     1       6.131  28.319  53.834  1.00  0.00    -0.127 SA
BRANCH  17  18
HETATM   18  C   UNL     1       4.523  28.257  54.709  1.00  0.00     0.106 C 
BRANCH  18  19
HETATM   19  C   UNL     1       4.366  29.321  55.796  1.00  0.00     0.177 C 
BRANCH  19  20
HETATM   20  O   UNL     1       5.461  30.235  55.766  1.00  0.00    -0.395 OA
HETATM   21  C   UNL     1       5.215  31.380  56.570  1.00  0.00     0.201 C 
ENDBRANCH  19  20
ENDBRANCH  18  19
ENDBRANCH  17  18
ENDBRANCH  12  17
ENDBRANCH   8  11
ENDBRANCH   1   7
BRANCH   2  22
HETATM   22  C   UNL     1       6.722  24.803  56.016  1.00  0.00     0.254 C 
HETATM   23  N   UNL     1       7.615  25.329  56.920  1.00  0.00    -0.354 N 
HETATM   24  H   UNL     1       8.561  25.398  56.549  1.00  0.00     0.162 HD
HETATM   25  O   UNL     1       5.523  25.049  55.967  1.00  0.00    -0.268 OA
BRANCH  23  26
HETATM   26  C   UNL     1       7.228  26.396  57.824  1.00  0.00     0.155 C 
BRANCH  26  27
HETATM   27  C   UNL     1       7.570  27.768  57.246  1.00  0.00     0.139 C 
HETATM   28  O   UNL     1       7.301  28.816  58.196  1.00  0.00    -0.384 OA
HETATM   29  C   UNL     1       8.322  29.817  58.062  1.00  0.00     0.168 C 
HETATM   30  C   UNL     1       9.200  29.414  56.895  1.00  0.00     0.029 C 
HETATM   31  C   UNL     1       9.038  27.915  56.877  1.00  0.00     0.035 C 
ENDBRANCH  26  27
ENDBRANCH  23  26
ENDBRANCH   2  22
TORSDOF 9
ENDMDL
MODEL 6
REMARK VINA RESULT:      -7.8      2.213      5.255
REMARK  9 active torsions:
REMARK  status: ('A' for Active; 'I' for Inactive)
REMARK    1  A    between atoms: O_2  and  C_3 
REMARK    2  A    between atoms: C_3  and  C_4 
REMARK    3  A    between atoms: C_4  and  S_5 
REMARK    4  A    between atoms: S_5  and  C_6 
REMARK    5  A    between atoms: C_7  and  C_8 
REMARK       I    between atoms: C_8  and  N_9 
REMARK    6  A    between atoms: N_9  and  C_10 
REMARK    7  A    between atoms: C_11  and  C_12 
REMARK       I    between atoms: C_12  and  N_13 
REMARK    8  A    between atoms: N_13  and  C_14 
REMARK    9  A    between atoms: C_14  and  C_15 
ROOT
HETATM    1  C   UNL     1       7.226  24.608  54.277  1.00  0.00     0.050 A 
HETATM    2  C   UNL     1       7.769  24.613  55.572  1.00  0.00     0.058 A 
HETATM    3  C   UNL     1       8.681  23.622  55.967  1.00  0.00     0.019 A 
HETATM    4  C   UNL     1       9.043  22.610  55.080  1.00  0.00     0.001 A 
HETATM    5  C   UNL     1       8.473  22.569  53.810  1.00  0.00     0.002 A 
HETATM    6  C   UNL     1       7.561  23.553  53.416  1.00  0.00     0.030 A 
ENDROOT
BRANCH   1   7
HETATM    7  N   UNL     1       6.340  25.582  53.768  1.00  0.00    -0.322 N 
HETATM    8  C   UNL     1       6.663  26.919  53.582  1.00  0.00     0.257 C 
HETATM    9  O   UNL     1       7.801  27.368  53.632  1.00  0.00    -0.267 OA
HETATM   10  H   UNL     1       5.511  25.246  53.293  1.00  0.00     0.169 HD
BRANCH   8  11
HETATM   11  C   UNL     1       5.505  27.776  53.200  1.00  0.00     0.049 A 
HETATM   12  C   UNL     1       4.846  27.676  51.961  1.00  0.00     0.016 A 
HETATM   13  C   UNL     1       3.773  28.549  51.702  1.00  0.00     0.019 A 
HETATM   14  C   UNL     1       3.357  29.492  52.645  1.00  0.00     0.001 A 
HETATM   15  C   UNL     1       4.019  29.593  53.863  1.00  0.00     0.001 A 
HETATM   16  C   UNL     1       5.093  28.746  54.137  1.00  0.00     0.018 A 
BRANCH  12  17
HETATM   17  S   UNL     1       5.239  26.545  50.631  1.00  0.00    -0.127 SA
BRANCH  17  18
HETATM   18  C   UNL     1       4.034  27.046  49.346  1.00  0.00     0.106 C 
BRANCH  18  19
HETATM   19  C   UNL     1       4.652  27.267  47.966  1.00  0.00     0.177 C 
BRANCH  19  20
HETATM   20  O   UNL     1       4.161  26.303  47.035  1.00  0.00    -0.395 OA
HETATM   21  C   UNL     1       3.111  25.522  47.589  1.00  0.00     0.201 C 
ENDBRANCH  19  20
ENDBRANCH  18  19
ENDBRANCH  17  18
ENDBRANCH  12  17
ENDBRANCH   8  11
ENDBRANCH   1   7
BRANCH   2  22
HETATM   22  C   UNL     1       7.263  25.486  56.654  1.00  0.00     0.254 C 
HETATM   23  N   UNL     1       7.959  26.663  56.806  1.00  0.00    -0.354 N 
HETATM   24  H   UNL     1       8.331  27.020  55.928  1.00  0.00     0.162 HD
HETATM   25  O   UNL     1       6.334  25.106  57.356  1.00  0.00    -0.268 OA
BRANCH  23  26
HETATM   26  C   UNL     1       7.521  27.677  57.748  1.00  0.00     0.155 C 
BRANCH  26  27
HETATM   27  C   UNL     1       8.202  29.018  57.479  1.00  0.00     0.139 C 
HETATM   28  O   UNL     1       8.232  29.835  58.664  1.00  0.00    -0.384 OA
HETATM   29  C   UNL     1       9.478  30.550  58.686  1.00  0.00     0.168 C 
HETATM   30  C   UNL     1      10.200  30.238  57.392  1.00  0.00     0.029 C 
HETATM   31  C   UNL     1       9.651  28.879  57.039  1.00  0.00     0.035 C 
ENDBRANCH  26  27
ENDBRANCH  23  26
ENDBRANCH   2  22
TORSDOF 9
ENDMDL
MODEL 7
REMARK VINA RESULT:      -7.6      2.716      7.585
REMARK  9 active torsions:
REMARK  status: ('A' for Active; 'I' for Inactive)
REMARK    1  A    between atoms: O_2  and  C_3 
REMARK    2  A    between atoms: C_3  and  C_4 
REMARK    3  A    between atoms: C_4  and  S_5 
REMARK    4  A    between atoms: S_5  and  C_6 
REMARK    5  A    between atoms: C_7  and  C_8 
REMARK       I    between atoms: C_8  and  N_9 
REMARK    6  A    between atoms: N_9  and  C_10 
REMARK    7  A    between atoms: C_11  and  C_12 
REMARK       I    between atoms: C_12  and  N_13 
REMARK    8  A    between atoms: N_13  and  C_14 
REMARK    9  A    between atoms: C_14  and  C_15 
ROOT
HETATM    1  C   UNL     1       7.261  24.891  54.998  1.00  0.00     0.050 A 
HETATM    2  C   UNL     1       7.205  24.225  53.763  1.00  0.00     0.058 A 
HETATM    3  C   UNL     1       7.536  22.863  53.673  1.00  0.00     0.019 A 
HETATM    4  C   UNL     1       7.941  22.164  54.808  1.00  0.00     0.001 A 
HETATM    5  C   UNL     1       8.046  22.829  56.027  1.00  0.00     0.002 A 
HETATM    6  C   UNL     1       7.721  24.186  56.118  1.00  0.00     0.030 A 
ENDROOT
BRANCH   1   7
HETATM    7  N   UNL     1       6.905  26.242  55.204  1.00  0.00    -0.322 N 
HETATM    8  C   UNL     1       5.806  26.663  55.939  1.00  0.00     0.257 C 
HETATM    9  O   UNL     1       5.142  25.936  56.666  1.00  0.00    -0.267 OA
HETATM   10  H   UNL     1       7.614  26.939  55.010  1.00  0.00     0.169 HD
BRANCH   8  11
HETATM   11  C   UNL     1       5.548  28.129  55.860  1.00  0.00     0.049 A 
HETATM   12  C   UNL     1       6.194  29.072  56.681  1.00  0.00     0.016 A 
HETATM   13  C   UNL     1       5.859  30.430  56.530  1.00  0.00     0.019 A 
HETATM   14  C   UNL     1       4.916  30.848  55.588  1.00  0.00     0.001 A 
HETATM   15  C   UNL     1       4.274  29.911  54.787  1.00  0.00     0.001 A 
HETATM   16  C   UNL     1       4.581  28.558  54.928  1.00  0.00     0.018 A 
BRANCH  12  17
HETATM   17  S   UNL     1       7.414  28.729  57.945  1.00  0.00    -0.127 SA
BRANCH  17  18
HETATM   18  C   UNL     1       8.904  28.378  56.939  1.00  0.00     0.106 C 
BRANCH  18  19
HETATM   19  C   UNL     1       9.061  29.287  55.722  1.00  0.00     0.177 C 
BRANCH  19  20
HETATM   20  O   UNL     1      10.230  30.096  55.846  1.00  0.00    -0.395 OA
HETATM   21  C   UNL     1      11.030  29.700  56.951  1.00  0.00     0.201 C 
ENDBRANCH  19  20
ENDBRANCH  18  19
ENDBRANCH  17  18
ENDBRANCH  12  17
ENDBRANCH   8  11
ENDBRANCH   1   7
BRANCH   2  22
HETATM   22  C   UNL     1       7.032  24.930  52.474  1.00  0.00     0.254 C 
HETATM   23  N   UNL     1       5.724  25.192  52.142  1.00  0.00    -0.354 N 
HETATM   24  H   UNL     1       5.134  25.361  52.954  1.00  0.00     0.162 HD
HETATM   25  O   UNL     1       8.012  25.178  51.782  1.00  0.00    -0.268 OA
BRANCH  23  26
HETATM   26  C   UNL     1       5.391  25.974  50.964  1.00  0.00     0.155 C 
BRANCH  26  27
HETATM   27  C   UNL     1       4.793  27.327  51.345  1.00  0.00     0.139 C 
HETATM   28  O   UNL     1       5.819  28.262  51.727  1.00  0.00    -0.384 OA
HETATM   29  C   UNL     1       5.444  29.562  51.246  1.00  0.00     0.168 C 
HETATM   30  C   UNL     1       4.065  29.436  50.634  1.00  0.00     0.029 C 
HETATM   31  C   UNL     1       4.035  27.991  50.207  1.00  0.00     0.035 C 
ENDBRANCH  26  27
ENDBRANCH  23  26
ENDBRANCH   2  22
TORSDOF 9
ENDMDL
MODEL 8
REMARK VINA RESULT:      -7.5      4.447      7.595
REMARK  9 active torsions:
REMARK  status: ('A' for Active; 'I' for Inactive)
REMARK    1  A    between atoms: O_2  and  C_3 
REMARK    2  A    between atoms: C_3  and  C_4 
REMARK    3  A    between atoms: C_4  and  S_5 
REMARK    4  A    between atoms: S_5  and  C_6 
REMARK    5  A    between atoms: C_7  and  C_8 
REMARK       I    between atoms: C_8  and  N_9 
REMARK    6  A    between atoms: N_9  and  C_10 
REMARK    7  A    between atoms: C_11  and  C_12 
REMARK       I    between atoms: C_12  and  N_13 
REMARK    8  A    between atoms: N_13  and  C_14 
REMARK    9  A    between atoms: C_14  and  C_15 
ROOT
HETATM    1  C   UNL     1       4.641  26.925  53.463  1.00  0.00     0.050 A 
HETATM    2  C   UNL     1       5.409  25.944  54.111  1.00  0.00     0.058 A 
HETATM    3  C   UNL     1       5.706  26.059  55.478  1.00  0.00     0.019 A 
HETATM    4  C   UNL     1       5.254  27.160  56.203  1.00  0.00     0.001 A 
HETATM    5  C   UNL     1       4.534  28.163  55.557  1.00  0.00     0.002 A 
HETATM    6  C   UNL     1       4.242  28.053  54.195  1.00  0.00     0.030 A 
ENDROOT
BRANCH   1   7
HETATM    7  N   UNL     1       4.250  26.881  52.107  1.00  0.00    -0.322 N 
HETATM    8  C   UNL     1       4.909  27.538  51.077  1.00  0.00     0.257 C 
HETATM    9  O   UNL     1       6.014  28.053  51.181  1.00  0.00    -0.267 OA
HETATM   10  H   UNL     1       3.607  26.147  51.838  1.00  0.00     0.169 HD
BRANCH   8  11
HETATM   11  C   UNL     1       4.199  27.478  49.767  1.00  0.00     0.049 A 
HETATM   12  C   UNL     1       3.342  28.494  49.306  1.00  0.00     0.016 A 
HETATM   13  C   UNL     1       2.712  28.323  48.060  1.00  0.00     0.019 A 
HETATM   14  C   UNL     1       2.927  27.181  47.286  1.00  0.00     0.001 A 
HETATM   15  C   UNL     1       3.766  26.176  47.751  1.00  0.00     0.001 A 
HETATM   16  C   UNL     1       4.392  26.318  48.989  1.00  0.00     0.018 A 
BRANCH  12  17
HETATM   17  S   UNL     1       2.937  30.016  50.157  1.00  0.00    -0.127 SA
BRANCH  17  18
HETATM   18  C   UNL     1       3.933  31.240  49.228  1.00  0.00     0.106 C 
BRANCH  18  19
HETATM   19  C   UNL     1       5.409  30.869  49.094  1.00  0.00     0.177 C 
BRANCH  19  20
HETATM   20  O   UNL     1       6.162  31.405  50.180  1.00  0.00    -0.395 OA
HETATM   21  C   UNL     1       5.746  32.722  50.512  1.00  0.00     0.201 C 
ENDBRANCH  19  20
ENDBRANCH  18  19
ENDBRANCH  17  18
ENDBRANCH  12  17
ENDBRANCH   8  11
ENDBRANCH   1   7
BRANCH   2  22
HETATM   22  C   UNL     1       6.137  24.880  53.385  1.00  0.00     0.254 C 
HETATM   23  N   UNL     1       7.359  24.558  53.926  1.00  0.00    -0.354 N 
HETATM   24  H   UNL     1       7.384  24.661  54.939  1.00  0.00     0.162 HD
HETATM   25  O   UNL     1       5.659  24.408  52.361  1.00  0.00    -0.268 OA
BRANCH  23  26
HETATM   26  C   UNL     1       8.148  23.460  53.398  1.00  0.00     0.155 C 
BRANCH  26  27
HETATM   27  C   UNL     1       7.704  22.122  53.987  1.00  0.00     0.139 C 
HETATM   28  O   UNL     1       8.631  21.072  53.655  1.00  0.00    -0.384 OA
HETATM   29  C   UNL     1       8.733  20.189  54.783  1.00  0.00     0.168 C 
HETATM   30  C   UNL     1       7.734  20.661  55.818  1.00  0.00     0.029 C 
HETATM   31  C   UNL     1       7.620  22.131  55.505  1.00  0.00     0.035 C 
ENDBRANCH  26  27
ENDBRANCH  23  26
ENDBRANCH   2  22
TORSDOF 9
ENDMDL
MODEL 9
REMARK VINA RESULT:      -7.5      2.668      4.582
REMARK  9 active torsions:
REMARK  status: ('A' for Active; 'I' for Inactive)
REMARK    1  A    between atoms: O_2  and  C_3 
REMARK    2  A    between atoms: C_3  and  C_4 
REMARK    3  A    between atoms: C_4  and  S_5 
REMARK    4  A    between atoms: S_5  and  C_6 
REMARK    5  A    between atoms: C_7  and  C_8 
REMARK       I    between atoms: C_8  and  N_9 
REMARK    6  A    between atoms: N_9  and  C_10 
REMARK    7  A    between atoms: C_11  and  C_12 
REMARK       I    between atoms: C_12  and  N_13 
REMARK    8  A    between atoms: N_13  and  C_14 
REMARK    9  A    between atoms: C_14  and  C_15 
ROOT
HETATM    1  C   UNL     1       9.037  29.409  56.984  1.00  0.00     0.050 A 
HETATM    2  C   UNL     1       8.676  30.485  57.810  1.00  0.00     0.058 A 
HETATM    3  C   UNL     1       9.661  31.302  58.387  1.00  0.00     0.019 A 
HETATM    4  C   UNL     1      11.010  31.040  58.158  1.00  0.00     0.001 A 
HETATM    5  C   UNL     1      11.378  29.946  57.380  1.00  0.00     0.002 A 
HETATM    6  C   UNL     1      10.399  29.128  56.808  1.00  0.00     0.030 A 
ENDROOT
BRANCH   1   7
HETATM    7  N   UNL     1       8.125  28.558  56.320  1.00  0.00    -0.322 N 
HETATM    8  C   UNL     1       7.790  27.280  56.746  1.00  0.00     0.257 C 
HETATM    9  O   UNL     1       8.073  26.822  57.845  1.00  0.00    -0.267 OA
HETATM   10  H   UNL     1       7.509  28.985  55.641  1.00  0.00     0.169 HD
BRANCH   8  11
HETATM   11  C   UNL     1       6.945  26.521  55.781  1.00  0.00     0.049 A 
HETATM   12  C   UNL     1       7.061  25.134  55.578  1.00  0.00     0.016 A 
HETATM   13  C   UNL     1       6.221  24.524  54.628  1.00  0.00     0.019 A 
HETATM   14  C   UNL     1       5.285  25.264  53.903  1.00  0.00     0.001 A 
HETATM   15  C   UNL     1       5.182  26.636  54.100  1.00  0.00     0.001 A 
HETATM   16  C   UNL     1       6.012  27.263  55.028  1.00  0.00     0.018 A 
BRANCH  12  17
HETATM   17  S   UNL     1       8.203  24.027  56.400  1.00  0.00    -0.127 SA
BRANCH  17  18
HETATM   18  C   UNL     1       7.907  22.455  55.508  1.00  0.00     0.106 C 
BRANCH  18  19
HETATM   19  C   UNL     1       8.964  22.129  54.454  1.00  0.00     0.177 C 
BRANCH  19  20
HETATM   20  O   UNL     1       8.352  21.884  53.188  1.00  0.00    -0.395 OA
HETATM   21  C   UNL     1       8.276  20.495  52.900  1.00  0.00     0.201 C 
ENDBRANCH  19  20
ENDBRANCH  18  19
ENDBRANCH  17  18
ENDBRANCH  12  17
ENDBRANCH   8  11
ENDBRANCH   1   7
BRANCH   2  22
HETATM   22  C   UNL     1       7.299  30.690  58.311  1.00  0.00     0.254 C 
HETATM   23  N   UNL     1       7.188  31.654  59.286  1.00  0.00    -0.354 N 
HETATM   24  H   UNL     1       7.861  32.410  59.175  1.00  0.00     0.162 HD
HETATM   25  O   UNL     1       6.389  29.987  57.891  1.00  0.00    -0.268 OA
BRANCH  23  26
HETATM   26  C   UNL     1       5.891  32.054  59.802  1.00  0.00     0.155 C 
BRANCH  26  27
HETATM   27  C   UNL     1       6.028  32.826  61.114  1.00  0.00     0.139 C 
HETATM   28  O   UNL     1       5.143  32.302  62.121  1.00  0.00    -0.384 OA
HETATM   29  C   UNL     1       5.817  32.364  63.388  1.00  0.00     0.168 C 
HETATM   30  C   UNL     1       7.141  33.063  63.160  1.00  0.00     0.029 C 
HETATM   31  C   UNL     1       7.423  32.751  61.713  1.00  0.00     0.035 C 
ENDBRANCH  26  27
ENDBRANCH  23  26
ENDBRANCH   2  22
TORSDOF 9
ENDMDL
MODEL 10
REMARK VINA RESULT:      -7.5      2.557      5.700
REMARK  9 active torsions:
REMARK  status: ('A' for Active; 'I' for Inactive)
REMARK    1  A    between atoms: O_2  and  C_3 
REMARK    2  A    between atoms: C_3  and  C_4 
REMARK    3  A    between atoms: C_4  and  S_5 
REMARK    4  A    between atoms: S_5  and  C_6 
REMARK    5  A    between atoms: C_7  and  C_8 
REMARK       I    between atoms: C_8  and  N_9 
REMARK    6  A    between atoms: N_9  and  C_10 
REMARK    7  A    between atoms: C_11  and  C_12 
REMARK       I    between atoms: C_12  and  N_13 
REMARK    8  A    between atoms: N_13  and  C_14 
REMARK    9  A    between atoms: C_14  and  C_15 
ROOT
HETATM    1  C   UNL     1       7.282  25.323  53.323  1.00  0.00     0.050 A 
HETATM    2  C   UNL     1       7.427  25.263  54.718  1.00  0.00     0.058 A 
HETATM    3  C   UNL     1       7.998  24.135  55.328  1.00  0.00     0.019 A 
HETATM    4  C   UNL     1       8.411  23.053  54.552  1.00  0.00     0.001 A 
HETATM    5  C   UNL     1       8.226  23.083  53.172  1.00  0.00     0.002 A 
HETATM    6  C   UNL     1       7.653  24.204  52.563  1.00  0.00     0.030 A 
ENDROOT
BRANCH   1   7
HETATM    7  N   UNL     1       6.764  26.427  52.610  1.00  0.00    -0.322 N 
HETATM    8  C   UNL     1       5.461  26.519  52.142  1.00  0.00     0.257 C 
HETATM    9  O   UNL     1       4.555  25.763  52.467  1.00  0.00    -0.267 OA
HETATM   10  H   UNL     1       7.293  27.289  52.651  1.00  0.00     0.169 HD
BRANCH   8  11
HETATM   11  C   UNL     1       5.212  27.702  51.270  1.00  0.00     0.049 A 
HETATM   12  C   UNL     1       4.715  27.602  49.957  1.00  0.00     0.016 A 
HETATM   13  C   UNL     1       4.534  28.786  49.219  1.00  0.00     0.019 A 
HETATM   14  C   UNL     1       4.829  30.037  49.766  1.00  0.00     0.001 A 
HETATM   15  C   UNL     1       5.329  30.128  51.059  1.00  0.00     0.001 A 
HETATM   16  C   UNL     1       5.528  28.967  51.804  1.00  0.00     0.018 A 
BRANCH  12  17
HETATM   17  S   UNL     1       4.292  26.096  49.087  1.00  0.00    -0.127 SA
BRANCH  17  18
HETATM   18  C   UNL     1       3.731  26.744  47.469  1.00  0.00     0.106 C 
BRANCH  18  19
HETATM   19  C   UNL     1       2.335  26.273  47.061  1.00  0.00     0.177 C 
BRANCH  19  20
HETATM   20  O   UNL     1       1.342  27.188  47.522  1.00  0.00    -0.395 OA
HETATM   21  C   UNL     1       0.381  27.476  46.516  1.00  0.00     0.201 C 
ENDBRANCH  19  20
ENDBRANCH  18  19
ENDBRANCH  17  18
ENDBRANCH  12  17
ENDBRANCH   8  11
ENDBRANCH   1   7
BRANCH   2  22
HETATM   22  C   UNL     1       6.799  26.238  55.636  1.00  0.00     0.254 C 
HETATM   23  N   UNL     1       7.666  26.806  56.540  1.00  0.00    -0.354 N 
HETATM   24  H   UNL     1       8.609  26.912  56.173  1.00  0.00     0.162 HD
HETATM   25  O   UNL     1       5.591  26.434  55.580  1.00  0.00    -0.268 OA
BRANCH  23  26
HETATM   26  C   UNL     1       7.230  27.862  57.436  1.00  0.00     0.155 C 
BRANCH  26  27
HETATM   27  C   UNL     1       8.090  29.116  57.279  1.00  0.00     0.139 C 
HETATM   28  O   UNL     1       8.096  29.899  58.487  1.00  0.00    -0.384 OA
HETATM   29  C   UNL     1       9.408  30.456  58.655  1.00  0.00     0.168 C 
HETATM   30  C   UNL     1      10.218  30.084  57.430  1.00  0.00     0.029 C 
HETATM   31  C   UNL     1       9.549  28.810  56.981  1.00  0.00     0.035 C 
ENDBRANCH  26  27
ENDBRANCH  23  26
ENDBRANCH   2  22
TORSDOF 9
ENDMDL
