MODEL 1
REMARK VINA RESULT:     -11.3      0.000      0.000
REMARK  6 active torsions:
REMARK  status: ('A' for Active; 'I' for Inactive)
REMARK    1  A    between atoms: C_5  and  N_6 
REMARK       I    between atoms: N_6  and  C_7 
REMARK    2  A    between atoms: C_7  and  C_8 
REMARK    3  A    between atoms: C_8  and  S_9 
REMARK    4  A    between atoms: S_9  and  C_10 
REMARK    5  A    between atoms: N_15  and  C_17 
REMARK    6  A    between atoms: C_17  and  C_18 
ROOT
HETATM    1  C   UNL     1       7.693  28.722  57.816  1.00  0.00     0.169 A 
HETATM    2  N   UNL     1       8.376  29.243  58.774  1.00  0.00    -0.228 NA
HETATM    3  C   UNL     1       7.959  30.443  59.281  1.00  0.00     0.052 A 
HETATM    4  C   UNL     1       6.848  31.071  58.870  1.00  0.00     0.060 A 
HETATM    5  C   UNL     1       6.327  32.328  59.468  1.00  0.00     0.281 C 
HETATM    6  N   UNL     1       6.992  32.633  60.806  1.00  0.00    -0.063 N 
HETATM    7  H   UNL     1       6.667  31.905  61.455  1.00  0.00     0.280 HD
HETATM    8  C   UNL     1       8.493  32.486  60.698  1.00  0.00     0.241 C 
HETATM    9  C   UNL     1       8.842  31.035  60.354  1.00  0.00     0.088 C 
HETATM   10  C   UNL     1       6.071  30.456  57.779  1.00  0.00     0.257 A 
HETATM   11  O   UNL     1       5.055  30.992  57.358  1.00  0.00    -0.267 OA
HETATM   12  N   UNL     1       6.568  29.283  57.299  1.00  0.00    -0.302 N 
HETATM   13  H   UNL     1       6.072  28.815  56.554  1.00  0.00     0.171 HD
ENDROOT
BRANCH   1  14
HETATM   14  S   UNL     1       8.124  27.225  57.056  1.00  0.00    -0.083 SA
BRANCH  14  15
HETATM   15  C   UNL     1       6.650  26.936  56.015  1.00  0.00     0.185 C 
BRANCH  15  16
HETATM   16  C   UNL     1       6.541  25.475  55.590  1.00  0.00     0.231 C 
HETATM   17  N   UNL     1       7.749  24.801  55.692  1.00  0.00    -0.326 N 
HETATM   18  H   UNL     1       8.433  25.261  56.284  1.00  0.00     0.169 HD
HETATM   19  O   UNL     1       5.468  25.004  55.224  1.00  0.00    -0.272 OA
BRANCH  17  20
HETATM   20  C   UNL     1       7.967  23.420  55.476  1.00  0.00     0.041 C 
HETATM   21  C   UNL     1       7.980  22.770  54.224  1.00  0.00    -0.029 C 
HETATM   22  C   UNL     1       8.067  21.353  54.190  1.00  0.00    -0.054 C 
HETATM   23  C   UNL     1       7.979  23.522  52.917  1.00  0.00     0.051 C 
HETATM   24  C   UNL     1       8.024  20.582  52.895  1.00  0.00     0.049 C 
HETATM   25  C   UNL     1       8.266  20.634  55.378  1.00  0.00     0.007 C 
HETATM   26  C   UNL     1       8.357  21.293  56.596  1.00  0.00     0.003 C 
HETATM   27  C   UNL     1       8.208  22.676  56.643  1.00  0.00     0.030 C 
ENDBRANCH  17  20
ENDBRANCH  15  16
ENDBRANCH  14  15
ENDBRANCH   1  14
BRANCH   6  28
HETATM   28  C   UNL     1       6.558  33.949  61.404  1.00  0.00     0.273 C 
BRANCH  28  29
HETATM   29  C   UNL     1       6.283  33.840  62.883  1.00  0.00    -0.030 A 
HETATM   30  C   UNL     1       5.006  34.140  63.389  1.00  0.00     0.048 A 
HETATM   31  C   UNL     1       4.829  34.130  64.757  1.00  0.00     0.105 A 
HETATM   32  C   UNL     1       5.847  33.811  65.618  1.00  0.00     0.105 A 
HETATM   33  O   UNL     1       3.676  34.444  65.404  1.00  0.00    -0.323 OA
HETATM   34  O   UNL     1       5.463  33.877  66.920  1.00  0.00    -0.323 OA
HETATM   35  C   UNL     1       7.102  33.474  65.161  1.00  0.00     0.040 A 
HETATM   36  C   UNL     1       4.089  34.295  66.782  1.00  0.00     0.352 A 
HETATM   37  C   UNL     1       7.322  33.493  63.780  1.00  0.00     0.012 A 
ENDBRANCH  28  29
ENDBRANCH   6  28
TORSDOF 6
ENDMDL
MODEL 2
REMARK VINA RESULT:     -11.3      2.566     11.944
REMARK  6 active torsions:
REMARK  status: ('A' for Active; 'I' for Inactive)
REMARK    1  A    between atoms: C_5  and  N_6 
REMARK       I    between atoms: N_6  and  C_7 
REMARK    2  A    between atoms: C_7  and  C_8 
REMARK    3  A    between atoms: C_8  and  S_9 
REMARK    4  A    between atoms: S_9  and  C_10 
REMARK    5  A    between atoms: N_15  and  C_17 
REMARK    6  A    between atoms: C_17  and  C_18 
ROOT
HETATM    1  C   UNL     1       9.054  29.905  57.796  1.00  0.00     0.169 A 
HETATM    2  N   UNL     1       8.105  29.074  58.053  1.00  0.00    -0.228 NA
HETATM    3  C   UNL     1       7.648  28.288  57.032  1.00  0.00     0.052 A 
HETATM    4  C   UNL     1       8.174  28.299  55.798  1.00  0.00     0.060 A 
HETATM    5  C   UNL     1       7.754  27.390  54.700  1.00  0.00     0.281 C 
HETATM    6  N   UNL     1       6.916  26.228  55.220  1.00  0.00    -0.063 N 
HETATM    7  H   UNL     1       7.553  25.648  55.781  1.00  0.00     0.280 HD
HETATM    8  C   UNL     1       5.838  26.729  56.157  1.00  0.00     0.241 C 
HETATM    9  C   UNL     1       6.487  27.385  57.379  1.00  0.00     0.088 C 
HETATM   10  C   UNL     1       9.267  29.249  55.523  1.00  0.00     0.257 A 
HETATM   11  O   UNL     1       9.776  29.309  54.413  1.00  0.00    -0.267 OA
HETATM   12  N   UNL     1       9.642  30.026  56.576  1.00  0.00    -0.302 N 
HETATM   13  H   UNL     1      10.391  30.691  56.445  1.00  0.00     0.171 HD
ENDROOT
BRANCH   1  14
HETATM   14  S   UNL     1       9.708  30.986  58.983  1.00  0.00    -0.083 SA
BRANCH  14  15
HETATM   15  C   UNL     1       8.712  30.526  60.445  1.00  0.00     0.185 C 
BRANCH  15  16
HETATM   16  C   UNL     1       8.064  31.748  61.088  1.00  0.00     0.231 C 
HETATM   17  N   UNL     1       7.438  31.446  62.289  1.00  0.00    -0.326 N 
HETATM   18  H   UNL     1       7.733  30.568  62.703  1.00  0.00     0.169 HD
HETATM   19  O   UNL     1       8.139  32.853  60.559  1.00  0.00    -0.272 OA
BRANCH  17  20
HETATM   20  C   UNL     1       6.835  32.363  63.181  1.00  0.00     0.041 C 
HETATM   21  C   UNL     1       5.480  32.759  63.172  1.00  0.00    -0.029 C 
HETATM   22  C   UNL     1       5.066  33.801  64.044  1.00  0.00    -0.054 C 
HETATM   23  C   UNL     1       4.438  32.071  62.327  1.00  0.00     0.051 C 
HETATM   24  C   UNL     1       3.652  34.322  64.049  1.00  0.00     0.049 C 
HETATM   25  C   UNL     1       5.966  34.330  64.982  1.00  0.00     0.007 C 
HETATM   26  C   UNL     1       7.270  33.859  65.053  1.00  0.00     0.003 C 
HETATM   27  C   UNL     1       7.699  32.883  64.158  1.00  0.00     0.030 C 
ENDBRANCH  17  20
ENDBRANCH  15  16
ENDBRANCH  14  15
ENDBRANCH   1  14
BRANCH   6  28
HETATM   28  C   UNL     1       6.391  25.331  54.126  1.00  0.00     0.273 C 
BRANCH  28  29
HETATM   29  C   UNL     1       6.974  23.942  54.199  1.00  0.00    -0.030 A 
HETATM   30  C   UNL     1       7.233  23.348  55.448  1.00  0.00     0.048 A 
HETATM   31  C   UNL     1       7.864  22.122  55.467  1.00  0.00     0.105 A 
HETATM   32  C   UNL     1       8.213  21.467  54.314  1.00  0.00     0.105 A 
HETATM   33  O   UNL     1       8.229  21.442  56.585  1.00  0.00    -0.323 OA
HETATM   34  O   UNL     1       8.837  20.286  54.559  1.00  0.00    -0.323 OA
HETATM   35  C   UNL     1       7.943  21.997  53.072  1.00  0.00     0.040 A 
HETATM   36  C   UNL     1       8.861  20.279  56.002  1.00  0.00     0.352 A 
HETATM   37  C   UNL     1       7.321  23.249  53.015  1.00  0.00     0.012 A 
ENDBRANCH  28  29
ENDBRANCH   6  28
TORSDOF 6
ENDMDL
MODEL 3
REMARK VINA RESULT:     -10.9      2.493     11.896
REMARK  6 active torsions:
REMARK  status: ('A' for Active; 'I' for Inactive)
REMARK    1  A    between atoms: C_5  and  N_6 
REMARK       I    between atoms: N_6  and  C_7 
REMARK    2  A    between atoms: C_7  and  C_8 
REMARK    3  A    between atoms: C_8  and  S_9 
REMARK    4  A    between atoms: S_9  and  C_10 
REMARK    5  A    between atoms: N_15  and  C_17 
REMARK    6  A    between atoms: C_17  and  C_18 
ROOT
HETATM    1  C   UNL     1       9.013  29.997  57.893  1.00  0.00     0.169 A 
HETATM    2  N   UNL     1       8.003  29.230  58.111  1.00  0.00    -0.228 NA
HETATM    3  C   UNL     1       7.544  28.464  57.075  1.00  0.00     0.052 A 
HETATM    4  C   UNL     1       8.126  28.431  55.867  1.00  0.00     0.060 A 
HETATM    5  C   UNL     1       7.700  27.540  54.757  1.00  0.00     0.281 C 
HETATM    6  N   UNL     1       6.767  26.437  55.245  1.00  0.00    -0.063 N 
HETATM    7  H   UNL     1       7.339  25.824  55.839  1.00  0.00     0.280 HD
HETATM    8  C   UNL     1       5.681  27.014  56.127  1.00  0.00     0.241 C 
HETATM    9  C   UNL     1       6.314  27.639  57.374  1.00  0.00     0.088 C 
HETATM   10  C   UNL     1       9.288  29.308  55.637  1.00  0.00     0.257 A 
HETATM   11  O   UNL     1       9.851  29.325  54.551  1.00  0.00    -0.267 OA
HETATM   12  N   UNL     1       9.663  30.069  56.701  1.00  0.00    -0.302 N 
HETATM   13  H   UNL     1      10.458  30.684  56.601  1.00  0.00     0.171 HD
ENDROOT
BRANCH   1  14
HETATM   14  S   UNL     1       9.678  31.046  59.102  1.00  0.00    -0.083 SA
BRANCH  14  15
HETATM   15  C   UNL     1       8.655  30.591  60.546  1.00  0.00     0.185 C 
BRANCH  15  16
HETATM   16  C   UNL     1       7.666  31.697  60.903  1.00  0.00     0.231 C 
HETATM   17  N   UNL     1       6.922  31.399  62.035  1.00  0.00    -0.326 N 
HETATM   18  H   UNL     1       7.320  30.666  62.613  1.00  0.00     0.169 HD
HETATM   19  O   UNL     1       7.598  32.722  60.230  1.00  0.00    -0.272 OA
BRANCH  17  20
HETATM   20  C   UNL     1       5.999  32.249  62.687  1.00  0.00     0.041 C 
HETATM   21  C   UNL     1       6.231  32.962  63.883  1.00  0.00    -0.029 C 
HETATM   22  C   UNL     1       5.149  33.657  64.486  1.00  0.00    -0.054 C 
HETATM   23  C   UNL     1       7.598  33.079  64.508  1.00  0.00     0.051 C 
HETATM   24  C   UNL     1       5.301  34.390  65.794  1.00  0.00     0.049 C 
HETATM   25  C   UNL     1       3.911  33.732  63.829  1.00  0.00     0.007 C 
HETATM   26  C   UNL     1       3.724  33.114  62.601  1.00  0.00     0.003 C 
HETATM   27  C   UNL     1       4.761  32.378  62.036  1.00  0.00     0.030 C 
ENDBRANCH  17  20
ENDBRANCH  15  16
ENDBRANCH  14  15
ENDBRANCH   1  14
BRANCH   6  28
HETATM   28  C   UNL     1       6.237  25.565  54.134  1.00  0.00     0.273 C 
BRANCH  28  29
HETATM   29  C   UNL     1       6.870  24.196  54.133  1.00  0.00    -0.030 A 
HETATM   30  C   UNL     1       7.070  23.508  55.343  1.00  0.00     0.048 A 
HETATM   31  C   UNL     1       7.749  22.308  55.306  1.00  0.00     0.105 A 
HETATM   32  C   UNL     1       8.199  21.765  54.130  1.00  0.00     0.105 A 
HETATM   33  O   UNL     1       8.066  21.549  56.387  1.00  0.00    -0.323 OA
HETATM   34  O   UNL     1       8.853  20.590  54.320  1.00  0.00    -0.323 OA
HETATM   35  C   UNL     1       7.990  22.389  52.919  1.00  0.00     0.040 A 
HETATM   36  C   UNL     1       8.782  20.462  55.755  1.00  0.00     0.352 A 
HETATM   37  C   UNL     1       7.322  23.618  52.923  1.00  0.00     0.012 A 
ENDBRANCH  28  29
ENDBRANCH   6  28
TORSDOF 6
ENDMDL
MODEL 4
REMARK VINA RESULT:     -10.8      1.661      2.583
REMARK  6 active torsions:
REMARK  status: ('A' for Active; 'I' for Inactive)
REMARK    1  A    between atoms: C_5  and  N_6 
REMARK       I    between atoms: N_6  and  C_7 
REMARK    2  A    between atoms: C_7  and  C_8 
REMARK    3  A    between atoms: C_8  and  S_9 
REMARK    4  A    between atoms: S_9  and  C_10 
REMARK    5  A    between atoms: N_15  and  C_17 
REMARK    6  A    between atoms: C_17  and  C_18 
ROOT
HETATM    1  C   UNL     1       5.530  29.702  55.870  1.00  0.00     0.169 A 
HETATM    2  N   UNL     1       6.412  29.153  56.631  1.00  0.00    -0.228 NA
HETATM    3  C   UNL     1       6.927  29.899  57.655  1.00  0.00     0.052 A 
HETATM    4  C   UNL     1       6.521  31.145  57.938  1.00  0.00     0.060 A 
HETATM    5  C   UNL     1       7.001  31.939  59.099  1.00  0.00     0.281 C 
HETATM    6  N   UNL     1       7.732  31.067  60.114  1.00  0.00    -0.063 N 
HETATM    7  H   UNL     1       7.019  30.450  60.523  1.00  0.00     0.280 HD
HETATM    8  C   UNL     1       8.738  30.175  59.420  1.00  0.00     0.241 C 
HETATM    9  C   UNL     1       8.007  29.224  58.468  1.00  0.00     0.088 C 
HETATM   10  C   UNL     1       5.503  31.754  57.063  1.00  0.00     0.257 A 
HETATM   11  O   UNL     1       5.105  32.893  57.269  1.00  0.00    -0.267 OA
HETATM   12  N   UNL     1       5.066  30.968  56.042  1.00  0.00    -0.302 N 
HETATM   13  H   UNL     1       4.364  31.333  55.414  1.00  0.00     0.171 HD
ENDROOT
BRANCH   1  14
HETATM   14  S   UNL     1       4.818  28.888  54.515  1.00  0.00    -0.083 SA
BRANCH  14  15
HETATM   15  C   UNL     1       6.282  28.048  53.816  1.00  0.00     0.185 C 
BRANCH  15  16
HETATM   16  C   UNL     1       6.152  26.530  53.903  1.00  0.00     0.231 C 
HETATM   17  N   UNL     1       7.384  25.892  53.926  1.00  0.00    -0.326 N 
HETATM   18  H   UNL     1       8.161  26.497  54.169  1.00  0.00     0.169 HD
HETATM   19  O   UNL     1       5.048  25.995  53.961  1.00  0.00    -0.272 OA
BRANCH  17  20
HETATM   20  C   UNL     1       7.615  24.508  54.104  1.00  0.00     0.041 C 
HETATM   21  C   UNL     1       7.766  23.846  55.340  1.00  0.00    -0.029 C 
HETATM   22  C   UNL     1       8.140  22.476  55.341  1.00  0.00    -0.054 C 
HETATM   23  C   UNL     1       7.475  24.513  56.661  1.00  0.00     0.051 C 
HETATM   24  C   UNL     1       8.381  21.716  56.621  1.00  0.00     0.049 C 
HETATM   25  C   UNL     1       8.229  21.772  54.131  1.00  0.00     0.007 C 
HETATM   26  C   UNL     1       7.975  22.408  52.924  1.00  0.00     0.003 C 
HETATM   27  C   UNL     1       7.671  23.766  52.912  1.00  0.00     0.030 C 
ENDBRANCH  17  20
ENDBRANCH  15  16
ENDBRANCH  14  15
ENDBRANCH   1  14
BRANCH   6  28
HETATM   28  C   UNL     1       8.316  31.848  61.265  1.00  0.00     0.273 C 
BRANCH  28  29
HETATM   29  C   UNL     1       7.263  32.277  62.255  1.00  0.00    -0.030 A 
HETATM   30  C   UNL     1       7.631  32.967  63.425  1.00  0.00     0.048 A 
HETATM   31  C   UNL     1       6.649  33.245  64.352  1.00  0.00     0.105 A 
HETATM   32  C   UNL     1       5.338  32.896  64.149  1.00  0.00     0.105 A 
HETATM   33  O   UNL     1       6.847  33.856  65.549  1.00  0.00    -0.323 OA
HETATM   34  O   UNL     1       4.542  33.249  65.191  1.00  0.00    -0.323 OA
HETATM   35  C   UNL     1       4.931  32.254  63.001  1.00  0.00     0.040 A 
HETATM   36  C   UNL     1       5.504  33.844  66.087  1.00  0.00     0.352 A 
HETATM   37  C   UNL     1       5.905  31.938  62.047  1.00  0.00     0.012 A 
ENDBRANCH  28  29
ENDBRANCH   6  28
TORSDOF 6
ENDMDL
MODEL 5
REMARK VINA RESULT:     -10.6      2.492     11.898
REMARK  6 active torsions:
REMARK  status: ('A' for Active; 'I' for Inactive)
REMARK    1  A    between atoms: C_5  and  N_6 
REMARK       I    between atoms: N_6  and  C_7 
REMARK    2  A    between atoms: C_7  and  C_8 
REMARK    3  A    between atoms: C_8  and  S_9 
REMARK    4  A    between atoms: S_9  and  C_10 
REMARK    5  A    between atoms: N_15  and  C_17 
REMARK    6  A    between atoms: C_17  and  C_18 
ROOT
HETATM    1  C   UNL     1       8.827  31.121  59.011  1.00  0.00     0.169 A 
HETATM    2  N   UNL     1       7.705  30.519  58.822  1.00  0.00    -0.228 NA
HETATM    3  C   UNL     1       7.614  29.647  57.772  1.00  0.00     0.052 A 
HETATM    4  C   UNL     1       8.647  29.348  56.969  1.00  0.00     0.060 A 
HETATM    5  C   UNL     1       8.596  28.337  55.881  1.00  0.00     0.281 C 
HETATM    6  N   UNL     1       7.366  27.443  56.000  1.00  0.00    -0.063 N 
HETATM    7  H   UNL     1       7.508  26.878  56.846  1.00  0.00     0.280 HD
HETATM    8  C   UNL     1       6.125  28.277  56.232  1.00  0.00     0.241 C 
HETATM    9  C   UNL     1       6.253  29.027  57.561  1.00  0.00     0.088 C 
HETATM   10  C   UNL     1       9.927  30.038  57.207  1.00  0.00     0.257 A 
HETATM   11  O   UNL     1      10.898  29.811  56.498  1.00  0.00    -0.267 OA
HETATM   12  N   UNL     1       9.931  30.920  58.243  1.00  0.00    -0.302 N 
HETATM   13  H   UNL     1      10.784  31.418  58.454  1.00  0.00     0.171 HD
ENDROOT
BRANCH   1  14
HETATM   14  S   UNL     1       9.074  32.276  60.280  1.00  0.00    -0.083 SA
BRANCH  14  15
HETATM   15  C   UNL     1       8.932  31.201  61.750  1.00  0.00     0.185 C 
BRANCH  15  16
HETATM   16  C   UNL     1       7.753  31.606  62.629  1.00  0.00     0.231 C 
HETATM   17  N   UNL     1       7.896  32.882  63.155  1.00  0.00    -0.326 N 
HETATM   18  H   UNL     1       8.582  33.455  62.674  1.00  0.00     0.169 HD
HETATM   19  O   UNL     1       6.802  30.848  62.797  1.00  0.00    -0.272 OA
BRANCH  17  20
HETATM   20  C   UNL     1       6.943  33.593  63.920  1.00  0.00     0.041 C 
HETATM   21  C   UNL     1       5.922  34.422  63.409  1.00  0.00    -0.029 C 
HETATM   22  C   UNL     1       5.139  35.182  64.318  1.00  0.00    -0.054 C 
HETATM   23  C   UNL     1       5.579  34.479  61.942  1.00  0.00     0.051 C 
HETATM   24  C   UNL     1       4.071  36.136  63.847  1.00  0.00     0.049 C 
HETATM   25  C   UNL     1       5.301  35.006  65.701  1.00  0.00     0.007 C 
HETATM   26  C   UNL     1       6.238  34.108  66.194  1.00  0.00     0.003 C 
HETATM   27  C   UNL     1       7.052  33.408  65.309  1.00  0.00     0.030 C 
ENDBRANCH  17  20
ENDBRANCH  15  16
ENDBRANCH  14  15
ENDBRANCH   1  14
BRANCH   6  28
HETATM   28  C   UNL     1       7.227  26.462  54.862  1.00  0.00     0.273 C 
BRANCH  28  29
HETATM   29  C   UNL     1       7.606  25.060  55.269  1.00  0.00    -0.030 A 
HETATM   30  C   UNL     1       7.500  24.003  54.347  1.00  0.00     0.048 A 
HETATM   31  C   UNL     1       7.754  22.723  54.792  1.00  0.00     0.105 A 
HETATM   32  C   UNL     1       8.131  22.466  56.086  1.00  0.00     0.105 A 
HETATM   33  O   UNL     1       7.648  21.593  54.045  1.00  0.00    -0.323 OA
HETATM   34  O   UNL     1       8.316  21.140  56.316  1.00  0.00    -0.323 OA
HETATM   35  C   UNL     1       8.282  23.476  57.009  1.00  0.00     0.040 A 
HETATM   36  C   UNL     1       7.993  20.586  55.024  1.00  0.00     0.352 A 
HETATM   37  C   UNL     1       8.013  24.786  56.596  1.00  0.00     0.012 A 
ENDBRANCH  28  29
ENDBRANCH   6  28
TORSDOF 6
ENDMDL
MODEL 6
REMARK VINA RESULT:     -10.5      1.790      2.747
REMARK  6 active torsions:
REMARK  status: ('A' for Active; 'I' for Inactive)
REMARK    1  A    between atoms: C_5  and  N_6 
REMARK       I    between atoms: N_6  and  C_7 
REMARK    2  A    between atoms: C_7  and  C_8 
REMARK    3  A    between atoms: C_8  and  S_9 
REMARK    4  A    between atoms: S_9  and  C_10 
REMARK    5  A    between atoms: N_15  and  C_17 
REMARK    6  A    between atoms: C_17  and  C_18 
ROOT
HETATM    1  C   UNL     1       5.927  28.763  55.581  1.00  0.00     0.169 A 
HETATM    2  N   UNL     1       5.589  29.956  55.926  1.00  0.00    -0.228 NA
HETATM    3  C   UNL     1       6.106  30.458  57.088  1.00  0.00     0.052 A 
HETATM    4  C   UNL     1       6.986  29.795  57.852  1.00  0.00     0.060 A 
HETATM    5  C   UNL     1       7.630  30.356  59.069  1.00  0.00     0.281 C 
HETATM    6  N   UNL     1       7.448  31.867  59.156  1.00  0.00    -0.063 N 
HETATM    7  H   UNL     1       8.001  32.264  58.387  1.00  0.00     0.280 HD
HETATM    8  C   UNL     1       6.005  32.243  58.898  1.00  0.00     0.241 C 
HETATM    9  C   UNL     1       5.617  31.835  57.473  1.00  0.00     0.088 C 
HETATM   10  C   UNL     1       7.370  28.433  57.437  1.00  0.00     0.257 A 
HETATM   11  O   UNL     1       8.162  27.779  58.102  1.00  0.00    -0.267 OA
HETATM   12  N   UNL     1       6.786  27.986  56.292  1.00  0.00    -0.302 N 
HETATM   13  H   UNL     1       7.018  27.061  55.958  1.00  0.00     0.171 HD
ENDROOT
BRANCH   1  14
HETATM   14  S   UNL     1       5.322  27.988  54.153  1.00  0.00    -0.083 SA
BRANCH  14  15
HETATM   15  C   UNL     1       6.799  27.050  53.626  1.00  0.00     0.185 C 
BRANCH  15  16
HETATM   16  C   UNL     1       6.569  25.545  53.717  1.00  0.00     0.231 C 
HETATM   17  N   UNL     1       7.749  24.836  53.889  1.00  0.00    -0.326 N 
HETATM   18  H   UNL     1       8.529  25.400  54.212  1.00  0.00     0.169 HD
HETATM   19  O   UNL     1       5.435  25.075  53.657  1.00  0.00    -0.272 OA
BRANCH  17  20
HETATM   20  C   UNL     1       7.876  23.445  54.111  1.00  0.00     0.041 C 
HETATM   21  C   UNL     1       8.113  22.823  55.354  1.00  0.00    -0.029 C 
HETATM   22  C   UNL     1       8.361  21.425  55.383  1.00  0.00    -0.054 C 
HETATM   23  C   UNL     1       8.042  23.568  56.663  1.00  0.00     0.051 C 
HETATM   24  C   UNL     1       8.684  20.698  56.664  1.00  0.00     0.049 C 
HETATM   25  C   UNL     1       8.242  20.667  54.208  1.00  0.00     0.007 C 
HETATM   26  C   UNL     1       7.904  21.274  53.007  1.00  0.00     0.003 C 
HETATM   27  C   UNL     1       7.723  22.653  52.960  1.00  0.00     0.030 C 
ENDBRANCH  17  20
ENDBRANCH  15  16
ENDBRANCH  14  15
ENDBRANCH   1  14
BRANCH   6  28
HETATM   28  C   UNL     1       8.006  32.465  60.424  1.00  0.00     0.273 C 
BRANCH  28  29
HETATM   29  C   UNL     1       6.946  32.658  61.478  1.00  0.00    -0.030 A 
HETATM   30  C   UNL     1       6.486  33.950  61.792  1.00  0.00     0.048 A 
HETATM   31  C   UNL     1       5.596  34.089  62.835  1.00  0.00     0.105 A 
HETATM   32  C   UNL     1       5.133  33.009  63.543  1.00  0.00     0.105 A 
HETATM   33  O   UNL     1       5.097  35.266  63.294  1.00  0.00    -0.323 OA
HETATM   34  O   UNL     1       4.279  33.370  64.536  1.00  0.00    -0.323 OA
HETATM   35  C   UNL     1       5.530  31.725  63.244  1.00  0.00     0.040 A 
HETATM   36  C   UNL     1       4.269  34.805  64.386  1.00  0.00     0.352 A 
HETATM   37  C   UNL     1       6.449  31.549  62.203  1.00  0.00     0.012 A 
ENDBRANCH  28  29
ENDBRANCH   6  28
TORSDOF 6
ENDMDL
MODEL 7
REMARK VINA RESULT:     -10.5      2.638     11.499
REMARK  6 active torsions:
REMARK  status: ('A' for Active; 'I' for Inactive)
REMARK    1  A    between atoms: C_5  and  N_6 
REMARK       I    between atoms: N_6  and  C_7 
REMARK    2  A    between atoms: C_7  and  C_8 
REMARK    3  A    between atoms: C_8  and  S_9 
REMARK    4  A    between atoms: S_9  and  C_10 
REMARK    5  A    between atoms: N_15  and  C_17 
REMARK    6  A    between atoms: C_17  and  C_18 
ROOT
HETATM    1  C   UNL     1       4.718  29.599  57.178  1.00  0.00     0.169 A 
HETATM    2  N   UNL     1       4.476  29.247  55.964  1.00  0.00    -0.228 NA
HETATM    3  C   UNL     1       5.404  28.472  55.324  1.00  0.00     0.052 A 
HETATM    4  C   UNL     1       6.519  28.016  55.914  1.00  0.00     0.060 A 
HETATM    5  C   UNL     1       7.493  27.100  55.268  1.00  0.00     0.281 C 
HETATM    6  N   UNL     1       6.919  26.466  54.005  1.00  0.00    -0.063 N 
HETATM    7  H   UNL     1       6.170  25.837  54.320  1.00  0.00     0.280 HD
HETATM    8  C   UNL     1       6.272  27.518  53.132  1.00  0.00     0.241 C 
HETATM    9  C   UNL     1       5.095  28.151  53.881  1.00  0.00     0.088 C 
HETATM   10  C   UNL     1       6.776  28.420  57.308  1.00  0.00     0.257 A 
HETATM   11  O   UNL     1       7.783  28.042  57.891  1.00  0.00    -0.267 OA
HETATM   12  N   UNL     1       5.829  29.223  57.866  1.00  0.00    -0.302 N 
HETATM   13  H   UNL     1       5.952  29.526  58.822  1.00  0.00     0.171 HD
ENDROOT
BRANCH   1  14
HETATM   14  S   UNL     1       3.650  30.607  58.098  1.00  0.00    -0.083 SA
BRANCH  14  15
HETATM   15  C   UNL     1       4.390  32.250  57.797  1.00  0.00     0.185 C 
BRANCH  15  16
HETATM   16  C   UNL     1       5.050  32.807  59.054  1.00  0.00     0.231 C 
HETATM   17  N   UNL     1       5.779  31.847  59.741  1.00  0.00    -0.326 N 
HETATM   18  H   UNL     1       6.009  31.026  59.190  1.00  0.00     0.169 HD
HETATM   19  O   UNL     1       4.926  33.990  59.360  1.00  0.00    -0.272 OA
BRANCH  17  20
HETATM   20  C   UNL     1       6.589  32.056  60.881  1.00  0.00     0.041 C 
HETATM   21  C   UNL     1       6.133  32.425  62.165  1.00  0.00    -0.029 C 
HETATM   22  C   UNL     1       7.091  32.739  63.166  1.00  0.00    -0.054 C 
HETATM   23  C   UNL     1       4.673  32.428  62.539  1.00  0.00     0.051 C 
HETATM   24  C   UNL     1       6.683  33.201  64.542  1.00  0.00     0.049 C 
HETATM   25  C   UNL     1       8.458  32.558  62.910  1.00  0.00     0.007 C 
HETATM   26  C   UNL     1       8.891  32.094  61.676  1.00  0.00     0.003 C 
HETATM   27  C   UNL     1       7.962  31.845  60.670  1.00  0.00     0.030 C 
ENDBRANCH  17  20
ENDBRANCH  15  16
ENDBRANCH  14  15
ENDBRANCH   1  14
BRANCH   6  28
HETATM   28  C   UNL     1       7.909  25.599  53.267  1.00  0.00     0.273 C 
BRANCH  28  29
HETATM   29  C   UNL     1       7.862  24.164  53.726  1.00  0.00    -0.030 A 
HETATM   30  C   UNL     1       7.984  23.853  55.092  1.00  0.00     0.048 A 
HETATM   31  C   UNL     1       8.043  22.525  55.456  1.00  0.00     0.105 A 
HETATM   32  C   UNL     1       7.959  21.515  54.532  1.00  0.00     0.105 A 
HETATM   33  O   UNL     1       8.209  22.061  56.722  1.00  0.00    -0.323 OA
HETATM   34  O   UNL     1       8.054  20.285  55.100  1.00  0.00    -0.323 OA
HETATM   35  C   UNL     1       7.801  21.776  53.188  1.00  0.00     0.040 A 
HETATM   36  C   UNL     1       8.229  20.634  56.489  1.00  0.00     0.352 A 
HETATM   37  C   UNL     1       7.757  23.114  52.782  1.00  0.00     0.012 A 
ENDBRANCH  28  29
ENDBRANCH   6  28
TORSDOF 6
ENDMDL
MODEL 8
REMARK VINA RESULT:     -10.5      1.867      2.457
REMARK  6 active torsions:
REMARK  status: ('A' for Active; 'I' for Inactive)
REMARK    1  A    between atoms: C_5  and  N_6 
REMARK       I    between atoms: N_6  and  C_7 
REMARK    2  A    between atoms: C_7  and  C_8 
REMARK    3  A    between atoms: C_8  and  S_9 
REMARK    4  A    between atoms: S_9  and  C_10 
REMARK    5  A    between atoms: N_15  and  C_17 
REMARK    6  A    between atoms: C_17  and  C_18 
ROOT
HETATM    1  C   UNL     1       5.100  29.540  56.034  1.00  0.00     0.169 A 
HETATM    2  N   UNL     1       6.000  29.032  56.801  1.00  0.00    -0.228 NA
HETATM    3  C   UNL     1       6.626  29.860  57.691  1.00  0.00     0.052 A 
HETATM    4  C   UNL     1       6.311  31.156  57.842  1.00  0.00     0.060 A 
HETATM    5  C   UNL     1       6.914  32.050  58.864  1.00  0.00     0.281 C 
HETATM    6  N   UNL     1       7.664  31.262  59.932  1.00  0.00    -0.063 N 
HETATM    7  H   UNL     1       6.948  30.745  60.457  1.00  0.00     0.280 HD
HETATM    8  C   UNL     1       8.568  30.231  59.292  1.00  0.00     0.241 C 
HETATM    9  C   UNL     1       7.721  29.220  58.513  1.00  0.00     0.088 C 
HETATM   10  C   UNL     1       5.270  31.719  56.963  1.00  0.00     0.257 A 
HETATM   11  O   UNL     1       4.951  32.896  57.050  1.00  0.00    -0.267 OA
HETATM   12  N   UNL     1       4.720  30.844  56.076  1.00  0.00    -0.302 N 
HETATM   13  H   UNL     1       3.998  31.176  55.453  1.00  0.00     0.171 HD
ENDROOT
BRANCH   1  14
HETATM   14  S   UNL     1       4.251  28.617  54.837  1.00  0.00    -0.083 SA
BRANCH  14  15
HETATM   15  C   UNL     1       5.514  28.528  53.519  1.00  0.00     0.185 C 
BRANCH  15  16
HETATM   16  C   UNL     1       6.708  27.679  53.943  1.00  0.00     0.231 C 
HETATM   17  N   UNL     1       6.329  26.446  54.451  1.00  0.00    -0.326 N 
HETATM   18  H   UNL     1       5.383  26.170  54.211  1.00  0.00     0.169 HD
HETATM   19  O   UNL     1       7.856  28.094  53.806  1.00  0.00    -0.272 OA
BRANCH  17  20
HETATM   20  C   UNL     1       7.188  25.390  54.835  1.00  0.00     0.041 C 
HETATM   21  C   UNL     1       7.619  24.331  54.009  1.00  0.00    -0.029 C 
HETATM   22  C   UNL     1       8.364  23.269  54.589  1.00  0.00    -0.054 C 
HETATM   23  C   UNL     1       7.386  24.315  52.519  1.00  0.00     0.051 C 
HETATM   24  C   UNL     1       8.807  22.073  53.786  1.00  0.00     0.049 C 
HETATM   25  C   UNL     1       8.766  23.347  55.931  1.00  0.00     0.007 C 
HETATM   26  C   UNL     1       8.425  24.445  56.708  1.00  0.00     0.003 C 
HETATM   27  C   UNL     1       7.641  25.458  56.163  1.00  0.00     0.030 C 
ENDBRANCH  17  20
ENDBRANCH  15  16
ENDBRANCH  14  15
ENDBRANCH   1  14
BRANCH   6  28
HETATM   28  C   UNL     1       8.369  32.137  60.938  1.00  0.00     0.273 C 
BRANCH  28  29
HETATM   29  C   UNL     1       7.493  32.465  62.121  1.00  0.00    -0.030 A 
HETATM   30  C   UNL     1       6.118  32.700  61.939  1.00  0.00     0.048 A 
HETATM   31  C   UNL     1       5.377  33.101  63.030  1.00  0.00     0.105 A 
HETATM   32  C   UNL     1       5.935  33.246  64.275  1.00  0.00     0.105 A 
HETATM   33  O   UNL     1       4.055  33.414  63.012  1.00  0.00    -0.323 OA
HETATM   34  O   UNL     1       5.034  33.663  65.201  1.00  0.00    -0.323 OA
HETATM   35  C   UNL     1       7.270  32.990  64.502  1.00  0.00     0.040 A 
HETATM   36  C   UNL     1       3.844  33.785  64.394  1.00  0.00     0.352 A 
HETATM   37  C   UNL     1       8.056  32.600  63.412  1.00  0.00     0.012 A 
ENDBRANCH  28  29
ENDBRANCH   6  28
TORSDOF 6
ENDMDL
MODEL 9
REMARK VINA RESULT:     -10.2      3.251      4.903
REMARK  6 active torsions:
REMARK  status: ('A' for Active; 'I' for Inactive)
REMARK    1  A    between atoms: C_5  and  N_6 
REMARK       I    between atoms: N_6  and  C_7 
REMARK    2  A    between atoms: C_7  and  C_8 
REMARK    3  A    between atoms: C_8  and  S_9 
REMARK    4  A    between atoms: S_9  and  C_10 
REMARK    5  A    between atoms: N_15  and  C_17 
REMARK    6  A    between atoms: C_17  and  C_18 
ROOT
HETATM    1  C   UNL     1       4.734  27.933  53.433  1.00  0.00     0.169 A 
HETATM    2  N   UNL     1       4.348  29.161  53.449  1.00  0.00    -0.228 NA
HETATM    3  C   UNL     1       4.081  29.734  54.662  1.00  0.00     0.052 A 
HETATM    4  C   UNL     1       4.255  29.101  55.832  1.00  0.00     0.060 A 
HETATM    5  C   UNL     1       4.059  29.732  57.163  1.00  0.00     0.281 C 
HETATM    6  N   UNL     1       3.977  31.251  57.059  1.00  0.00    -0.063 N 
HETATM    7  H   UNL     1       4.914  31.567  56.779  1.00  0.00     0.280 HD
HETATM    8  C   UNL     1       3.029  31.657  55.952  1.00  0.00     0.241 C 
HETATM    9  C   UNL     1       3.565  31.153  54.609  1.00  0.00     0.088 C 
HETATM   10  C   UNL     1       4.708  27.698  55.796  1.00  0.00     0.257 A 
HETATM   11  O   UNL     1       4.873  27.071  56.833  1.00  0.00    -0.267 OA
HETATM   12  N   UNL     1       4.915  27.184  54.553  1.00  0.00    -0.302 N 
HETATM   13  H   UNL     1       5.232  26.229  54.471  1.00  0.00     0.171 HD
ENDROOT
BRANCH   1  14
HETATM   14  S   UNL     1       5.074  27.071  51.969  1.00  0.00    -0.083 SA
BRANCH  14  15
HETATM   15  C   UNL     1       6.662  26.277  52.403  1.00  0.00     0.185 C 
BRANCH  15  16
HETATM   16  C   UNL     1       6.457  24.849  52.900  1.00  0.00     0.231 C 
HETATM   17  N   UNL     1       7.655  24.210  53.186  1.00  0.00    -0.326 N 
HETATM   18  H   UNL     1       8.443  24.837  53.304  1.00  0.00     0.169 HD
HETATM   19  O   UNL     1       5.329  24.383  53.029  1.00  0.00    -0.272 OA
BRANCH  17  20
HETATM   20  C   UNL     1       7.812  22.926  53.758  1.00  0.00     0.041 C 
HETATM   21  C   UNL     1       7.902  22.639  55.136  1.00  0.00    -0.029 C 
HETATM   22  C   UNL     1       8.206  21.311  55.540  1.00  0.00    -0.054 C 
HETATM   23  C   UNL     1       7.617  23.667  56.202  1.00  0.00     0.051 C 
HETATM   24  C   UNL     1       8.381  20.939  56.990  1.00  0.00     0.049 C 
HETATM   25  C   UNL     1       8.285  20.288  54.583  1.00  0.00     0.007 C 
HETATM   26  C   UNL     1       8.089  20.563  53.237  1.00  0.00     0.003 C 
HETATM   27  C   UNL     1       7.855  21.873  52.829  1.00  0.00     0.030 C 
ENDBRANCH  17  20
ENDBRANCH  15  16
ENDBRANCH  14  15
ENDBRANCH   1  14
BRANCH   6  28
HETATM   28  C   UNL     1       3.685  31.927  58.376  1.00  0.00     0.273 C 
BRANCH  28  29
HETATM   29  C   UNL     1       4.935  32.151  59.190  1.00  0.00    -0.030 A 
HETATM   30  C   UNL     1       6.202  32.008  58.596  1.00  0.00     0.048 A 
HETATM   31  C   UNL     1       7.315  32.118  59.402  1.00  0.00     0.105 A 
HETATM   32  C   UNL     1       7.217  32.387  60.743  1.00  0.00     0.105 A 
HETATM   33  O   UNL     1       8.601  31.957  58.994  1.00  0.00    -0.323 OA
HETATM   34  O   UNL     1       8.431  32.437  61.351  1.00  0.00    -0.323 OA
HETATM   35  C   UNL     1       5.997  32.571  61.356  1.00  0.00     0.040 A 
HETATM   36  C   UNL     1       9.308  32.148  60.242  1.00  0.00     0.352 A 
HETATM   37  C   UNL     1       4.845  32.447  60.571  1.00  0.00     0.012 A 
ENDBRANCH  28  29
ENDBRANCH   6  28
TORSDOF 6
ENDMDL
MODEL 10
REMARK VINA RESULT:     -10.1      2.694     11.289
REMARK  6 active torsions:
REMARK  status: ('A' for Active; 'I' for Inactive)
REMARK    1  A    between atoms: C_5  and  N_6 
REMARK       I    between atoms: N_6  and  C_7 
REMARK    2  A    between atoms: C_7  and  C_8 
REMARK    3  A    between atoms: C_8  and  S_9 
REMARK    4  A    between atoms: S_9  and  C_10 
REMARK    5  A    between atoms: N_15  and  C_17 
REMARK    6  A    between atoms: C_17  and  C_18 
ROOT
HETATM    1  C   UNL     1       9.016  31.034  59.200  1.00  0.00     0.169 A 
HETATM    2  N   UNL     1       7.860  30.554  58.898  1.00  0.00    -0.228 NA
HETATM    3  C   UNL     1       7.737  29.873  57.719  1.00  0.00     0.052 A 
HETATM    4  C   UNL     1       8.767  29.634  56.893  1.00  0.00     0.060 A 
HETATM    5  C   UNL     1       8.674  28.819  55.654  1.00  0.00     0.281 C 
HETATM    6  N   UNL     1       7.383  28.010  55.606  1.00  0.00    -0.063 N 
HETATM    7  H   UNL     1       7.463  27.306  56.351  1.00  0.00     0.280 HD
HETATM    8  C   UNL     1       6.197  28.883  55.953  1.00  0.00     0.241 C 
HETATM    9  C   UNL     1       6.342  29.396  57.389  1.00  0.00     0.088 C 
HETATM   10  C   UNL     1      10.085  30.181  57.259  1.00  0.00     0.257 A 
HETATM   11  O   UNL     1      11.057  30.002  56.537  1.00  0.00    -0.267 OA
HETATM   12  N   UNL     1      10.123  30.880  58.426  1.00  0.00    -0.302 N 
HETATM   13  H   UNL     1      11.003  31.273  58.728  1.00  0.00     0.171 HD
ENDROOT
BRANCH   1  14
HETATM   14  S   UNL     1       9.309  31.947  60.644  1.00  0.00    -0.083 SA
BRANCH  14  15
HETATM   15  C   UNL     1       8.261  31.042  61.837  1.00  0.00     0.185 C 
BRANCH  15  16
HETATM   16  C   UNL     1       6.905  31.716  62.016  1.00  0.00     0.231 C 
HETATM   17  N   UNL     1       6.640  32.648  61.023  1.00  0.00    -0.326 N 
HETATM   18  H   UNL     1       7.216  32.547  60.194  1.00  0.00     0.169 HD
HETATM   19  O   UNL     1       6.167  31.411  62.949  1.00  0.00    -0.272 OA
BRANCH  17  20
HETATM   20  C   UNL     1       5.438  33.370  60.840  1.00  0.00     0.041 C 
HETATM   21  C   UNL     1       5.015  34.481  61.600  1.00  0.00    -0.029 C 
HETATM   22  C   UNL     1       3.711  35.001  61.383  1.00  0.00    -0.054 C 
HETATM   23  C   UNL     1       5.917  35.186  62.581  1.00  0.00     0.051 C 
HETATM   24  C   UNL     1       3.164  36.146  62.197  1.00  0.00     0.049 C 
HETATM   25  C   UNL     1       2.917  34.494  60.343  1.00  0.00     0.007 C 
HETATM   26  C   UNL     1       3.385  33.469  59.533  1.00  0.00     0.003 C 
HETATM   27  C   UNL     1       4.636  32.912  59.781  1.00  0.00     0.030 C 
ENDBRANCH  17  20
ENDBRANCH  15  16
ENDBRANCH  14  15
ENDBRANCH   1  14
BRANCH   6  28
HETATM   28  C   UNL     1       7.206  27.239  54.321  1.00  0.00     0.273 C 
BRANCH  28  29
HETATM   29  C   UNL     1       7.413  25.758  54.512  1.00  0.00    -0.030 A 
HETATM   30  C   UNL     1       7.614  25.232  55.800  1.00  0.00     0.048 A 
HETATM   31  C   UNL     1       7.906  23.889  55.917  1.00  0.00     0.105 A 
HETATM   32  C   UNL     1       7.974  23.063  54.825  1.00  0.00     0.105 A 
HETATM   33  O   UNL     1       8.174  23.240  57.080  1.00  0.00    -0.323 OA
HETATM   34  O   UNL     1       8.289  21.785  55.161  1.00  0.00    -0.323 OA
HETATM   35  C   UNL     1       7.747  23.532  53.549  1.00  0.00     0.040 A 
HETATM   36  C   UNL     1       8.432  21.903  56.592  1.00  0.00     0.352 A 
HETATM   37  C   UNL     1       7.468  24.894  53.392  1.00  0.00     0.012 A 
ENDBRANCH  28  29
ENDBRANCH   6  28
TORSDOF 6
ENDMDL
