MODEL 1
REMARK VINA RESULT:     -10.2      0.000      0.000
REMARK  7 active torsions:
REMARK  status: ('A' for Active; 'I' for Inactive)
REMARK    1  A    between atoms: O_2  and  C_3 
REMARK    2  A    between atoms: C_4  and  O_5 
REMARK    3  A    between atoms: C_7  and  C_8 
REMARK       I    between atoms: C_8  and  N_9 
REMARK    4  A    between atoms: N_9  and  C_10 
REMARK    5  A    between atoms: C_10  and  C_11 
REMARK    6  A    between atoms: C_11  and  N_12 
REMARK    7  A    between atoms: C_11  and  C_18 
ROOT
HETATM    1  C   UNL     1       7.432  25.329  54.509  1.00  0.00     0.239 C 
ENDROOT
BRANCH   1   2
HETATM    2  C   UNL     1       6.868  26.362  55.538  1.00  0.00     0.161 C 
BRANCH   2   3
HETATM    3  N   UNL     1       7.798  27.420  55.917  1.00  0.00    -0.354 N 
HETATM    4  C   UNL     1       8.098  27.731  57.220  1.00  0.00     0.254 C 
HETATM    5  O   UNL     1       7.690  27.030  58.141  1.00  0.00    -0.268 OA
HETATM    6  H   UNL     1       8.173  28.027  55.190  1.00  0.00     0.162 HD
BRANCH   4   7
HETATM    7  C   UNL     1       8.969  28.917  57.489  1.00  0.00     0.068 A 
HETATM    8  C   UNL     1       8.577  30.038  58.250  1.00  0.00     0.117 A 
HETATM    9  C   UNL     1       9.444  31.152  58.345  1.00  0.00     0.102 A 
HETATM   10  C   UNL     1      10.716  31.088  57.764  1.00  0.00     0.040 A 
HETATM   11  C   UNL     1      11.119  29.958  57.054  1.00  0.00     0.004 A 
HETATM   12  C   UNL     1      10.244  28.886  56.904  1.00  0.00     0.020 A 
BRANCH   8  13
HETATM   13  O   UNL     1       7.311  30.023  58.796  1.00  0.00    -0.352 OA
HETATM   14  C   UNL     1       6.312  30.695  58.022  1.00  0.00     0.210 C 
ENDBRANCH   8  13
BRANCH   9  15
HETATM   15  O   UNL     1       8.966  32.264  58.989  1.00  0.00    -0.353 OA
HETATM   16  C   UNL     1       9.205  32.383  60.388  1.00  0.00     0.210 C 
ENDBRANCH   9  15
ENDBRANCH   4   7
ENDBRANCH   2   3
ENDBRANCH   1   2
BRANCH   1  17
HETATM   17  N   UNL     1       6.464  25.130  53.327  1.00  0.00    -0.061 N 
HETATM   18  H   UNL     1       6.480  24.122  53.125  1.00  0.00     0.280 HD
HETATM   19  C   UNL     1       6.802  25.918  52.080  1.00  0.00     0.236 C 
HETATM   20  C   UNL     1       5.979  27.178  52.222  1.00  0.00     0.029 C 
HETATM   21  C   UNL     1       4.657  26.651  52.732  1.00  0.00     0.029 C 
HETATM   22  C   UNL     1       5.016  25.493  53.652  1.00  0.00     0.236 C 
ENDBRANCH   1  17
BRANCH   1  23
HETATM   23  C   UNL     1       7.804  24.037  55.243  1.00  0.00    -0.015 A 
HETATM   24  C   UNL     1       7.991  22.799  54.544  1.00  0.00    -0.018 A 
HETATM   25  C   UNL     1       8.318  21.641  55.299  1.00  0.00    -0.025 A 
HETATM   26  C   UNL     1       7.876  22.631  53.139  1.00  0.00     0.013 A 
HETATM   27  C   UNL     1       8.497  20.401  54.665  1.00  0.00     0.012 A 
HETATM   28  C   UNL     1       8.474  21.722  56.688  1.00  0.00     0.012 A 
HETATM   29  C   UNL     1       8.364  20.273  53.285  1.00  0.00     0.001 A 
HETATM   30  C   UNL     1       8.058  21.388  52.522  1.00  0.00     0.001 A 
HETATM   31  C   UNL     1       8.315  22.929  57.357  1.00  0.00     0.002 A 
HETATM   32  C   UNL     1       7.984  24.073  56.644  1.00  0.00     0.010 A 
ENDBRANCH   1  23
TORSDOF 7
ENDMDL
MODEL 2
REMARK VINA RESULT:      -9.9      2.145      3.649
REMARK  7 active torsions:
REMARK  status: ('A' for Active; 'I' for Inactive)
REMARK    1  A    between atoms: O_2  and  C_3 
REMARK    2  A    between atoms: C_4  and  O_5 
REMARK    3  A    between atoms: C_7  and  C_8 
REMARK       I    between atoms: C_8  and  N_9 
REMARK    4  A    between atoms: N_9  and  C_10 
REMARK    5  A    between atoms: C_10  and  C_11 
REMARK    6  A    between atoms: C_11  and  N_12 
REMARK    7  A    between atoms: C_11  and  C_18 
ROOT
HETATM    1  C   UNL     1       7.669  27.987  56.045  1.00  0.00     0.239 C 
ENDROOT
BRANCH   1   2
HETATM    2  C   UNL     1       8.805  28.643  56.897  1.00  0.00     0.161 C 
BRANCH   2   3
HETATM    3  N   UNL     1       8.349  29.350  58.087  1.00  0.00    -0.354 N 
HETATM    4  C   UNL     1       9.046  30.381  58.668  1.00  0.00     0.254 C 
HETATM    5  O   UNL     1      10.041  30.849  58.123  1.00  0.00    -0.268 OA
HETATM    6  H   UNL     1       7.523  29.007  58.575  1.00  0.00     0.162 HD
BRANCH   4   7
HETATM    7  C   UNL     1       8.543  30.947  59.957  1.00  0.00     0.068 A 
HETATM    8  C   UNL     1       7.514  31.907  60.059  1.00  0.00     0.117 A 
HETATM    9  C   UNL     1       7.196  32.455  61.324  1.00  0.00     0.102 A 
HETATM   10  C   UNL     1       7.839  31.967  62.469  1.00  0.00     0.040 A 
HETATM   11  C   UNL     1       8.820  30.982  62.369  1.00  0.00     0.004 A 
HETATM   12  C   UNL     1       9.181  30.487  61.120  1.00  0.00     0.020 A 
BRANCH   8  13
HETATM   13  O   UNL     1       6.926  32.332  58.887  1.00  0.00    -0.352 OA
HETATM   14  C   UNL     1       5.613  31.815  58.649  1.00  0.00     0.210 C 
ENDBRANCH   8  13
BRANCH   9  15
HETATM   15  O   UNL     1       6.279  33.473  61.352  1.00  0.00    -0.353 OA
HETATM   16  C   UNL     1       5.115  33.304  62.153  1.00  0.00     0.210 C 
ENDBRANCH   9  15
ENDBRANCH   4   7
ENDBRANCH   2   3
ENDBRANCH   1   2
BRANCH   1  17
HETATM   17  N   UNL     1       6.280  28.484  56.487  1.00  0.00    -0.061 N 
HETATM   18  H   UNL     1       6.373  28.708  57.487  1.00  0.00     0.280 HD
HETATM   19  C   UNL     1       5.148  27.502  56.276  1.00  0.00     0.236 C 
HETATM   20  C   UNL     1       4.586  27.893  54.929  1.00  0.00     0.029 C 
HETATM   21  C   UNL     1       4.586  29.404  54.999  1.00  0.00     0.029 C 
HETATM   22  C   UNL     1       5.835  29.768  55.788  1.00  0.00     0.236 C 
ENDBRANCH   1  17
BRANCH   1  23
HETATM   23  C   UNL     1       7.832  26.465  56.072  1.00  0.00    -0.015 A 
HETATM   24  C   UNL     1       7.771  25.677  54.876  1.00  0.00    -0.018 A 
HETATM   25  C   UNL     1       7.915  24.269  54.987  1.00  0.00    -0.025 A 
HETATM   26  C   UNL     1       7.578  26.196  53.568  1.00  0.00     0.013 A 
HETATM   27  C   UNL     1       7.848  23.451  53.847  1.00  0.00     0.012 A 
HETATM   28  C   UNL     1       8.133  23.675  56.237  1.00  0.00     0.012 A 
HETATM   29  C   UNL     1       7.645  23.995  52.582  1.00  0.00     0.001 A 
HETATM   30  C   UNL     1       7.514  25.367  52.443  1.00  0.00     0.001 A 
HETATM   31  C   UNL     1       8.215  24.445  57.390  1.00  0.00     0.002 A 
HETATM   32  C   UNL     1       8.066  25.824  57.309  1.00  0.00     0.010 A 
ENDBRANCH   1  23
TORSDOF 7
ENDMDL
MODEL 3
REMARK VINA RESULT:      -9.6      2.367      8.256
REMARK  7 active torsions:
REMARK  status: ('A' for Active; 'I' for Inactive)
REMARK    1  A    between atoms: O_2  and  C_3 
REMARK    2  A    between atoms: C_4  and  O_5 
REMARK    3  A    between atoms: C_7  and  C_8 
REMARK       I    between atoms: C_8  and  N_9 
REMARK    4  A    between atoms: N_9  and  C_10 
REMARK    5  A    between atoms: C_10  and  C_11 
REMARK    6  A    between atoms: C_11  and  N_12 
REMARK    7  A    between atoms: C_11  and  C_18 
ROOT
HETATM    1  C   UNL     1       6.939  28.386  57.595  1.00  0.00     0.239 C 
ENDROOT
BRANCH   1   2
HETATM    2  C   UNL     1       7.209  26.868  57.858  1.00  0.00     0.161 C 
BRANCH   2   3
HETATM    3  N   UNL     1       7.162  26.023  56.671  1.00  0.00    -0.354 N 
HETATM    4  C   UNL     1       8.117  25.080  56.377  1.00  0.00     0.254 C 
HETATM    5  O   UNL     1       9.000  24.810  57.184  1.00  0.00    -0.268 OA
HETATM    6  H   UNL     1       6.444  26.199  55.971  1.00  0.00     0.162 HD
BRANCH   4   7
HETATM    7  C   UNL     1       8.030  24.360  55.069  1.00  0.00     0.068 A 
HETATM    8  C   UNL     1       8.525  23.059  54.840  1.00  0.00     0.117 A 
HETATM    9  C   UNL     1       8.489  22.519  53.533  1.00  0.00     0.102 A 
HETATM   10  C   UNL     1       7.875  23.245  52.505  1.00  0.00     0.040 A 
HETATM   11  C   UNL     1       7.342  24.510  52.745  1.00  0.00     0.004 A 
HETATM   12  C   UNL     1       7.434  25.071  54.016  1.00  0.00     0.020 A 
BRANCH   8  13
HETATM   13  O   UNL     1       9.110  22.407  55.906  1.00  0.00    -0.352 OA
HETATM   14  C   UNL     1       8.286  21.420  56.535  1.00  0.00     0.210 C 
ENDBRANCH   8  13
BRANCH   9  15
HETATM   15  O   UNL     1       9.095  21.306  53.340  1.00  0.00    -0.353 OA
HETATM   16  C   UNL     1       8.286  20.211  52.925  1.00  0.00     0.210 C 
ENDBRANCH   9  15
ENDBRANCH   4   7
ENDBRANCH   2   3
ENDBRANCH   1   2
BRANCH   1  17
HETATM   17  N   UNL     1       6.140  28.596  56.295  1.00  0.00    -0.061 N 
HETATM   18  H   UNL     1       6.576  27.975  55.601  1.00  0.00     0.280 HD
HETATM   19  C   UNL     1       6.114  30.018  55.778  1.00  0.00     0.236 C 
HETATM   20  C   UNL     1       4.840  30.584  56.361  1.00  0.00     0.029 C 
HETATM   21  C   UNL     1       3.861  29.447  56.177  1.00  0.00     0.029 C 
HETATM   22  C   UNL     1       4.674  28.179  56.401  1.00  0.00     0.236 C 
ENDBRANCH   1  17
BRANCH   1  23
HETATM   23  C   UNL     1       8.265  29.151  57.650  1.00  0.00    -0.015 A 
HETATM   24  C   UNL     1       8.459  30.260  58.538  1.00  0.00    -0.018 A 
HETATM   25  C   UNL     1       9.713  30.928  58.518  1.00  0.00    -0.025 A 
HETATM   26  C   UNL     1       7.490  30.753  59.451  1.00  0.00     0.013 A 
HETATM   27  C   UNL     1       9.949  32.030  59.357  1.00  0.00     0.012 A 
HETATM   28  C   UNL     1      10.734  30.493  57.664  1.00  0.00     0.012 A 
HETATM   29  C   UNL     1       8.970  32.492  60.231  1.00  0.00     0.001 A 
HETATM   30  C   UNL     1       7.742  31.851  60.281  1.00  0.00     0.001 A 
HETATM   31  C   UNL     1      10.548  29.404  56.823  1.00  0.00     0.002 A 
HETATM   32  C   UNL     1       9.328  28.740  56.816  1.00  0.00     0.010 A 
ENDBRANCH   1  23
TORSDOF 7
ENDMDL
MODEL 4
REMARK VINA RESULT:      -9.5      2.389      7.937
REMARK  7 active torsions:
REMARK  status: ('A' for Active; 'I' for Inactive)
REMARK    1  A    between atoms: O_2  and  C_3 
REMARK    2  A    between atoms: C_4  and  O_5 
REMARK    3  A    between atoms: C_7  and  C_8 
REMARK       I    between atoms: C_8  and  N_9 
REMARK    4  A    between atoms: N_9  and  C_10 
REMARK    5  A    between atoms: C_10  and  C_11 
REMARK    6  A    between atoms: C_11  and  N_12 
REMARK    7  A    between atoms: C_11  and  C_18 
ROOT
HETATM    1  C   UNL     1       7.141  28.274  57.775  1.00  0.00     0.239 C 
ENDROOT
BRANCH   1   2
HETATM    2  C   UNL     1       7.500  26.768  57.992  1.00  0.00     0.161 C 
BRANCH   2   3
HETATM    3  N   UNL     1       7.332  25.920  56.818  1.00  0.00    -0.354 N 
HETATM    4  C   UNL     1       8.239  24.961  56.441  1.00  0.00     0.254 C 
HETATM    5  O   UNL     1       9.188  24.678  57.165  1.00  0.00    -0.268 OA
HETATM    6  H   UNL     1       6.555  26.107  56.186  1.00  0.00     0.162 HD
BRANCH   4   7
HETATM    7  C   UNL     1       8.021  24.240  55.150  1.00  0.00     0.068 A 
HETATM    8  C   UNL     1       7.340  24.780  54.039  1.00  0.00     0.117 A 
HETATM    9  C   UNL     1       7.094  23.965  52.908  1.00  0.00     0.102 A 
HETATM   10  C   UNL     1       7.614  22.665  52.869  1.00  0.00     0.040 A 
HETATM   11  C   UNL     1       8.329  22.152  53.949  1.00  0.00     0.004 A 
HETATM   12  C   UNL     1       8.517  22.928  55.089  1.00  0.00     0.020 A 
BRANCH   8  13
HETATM   13  O   UNL     1       6.864  26.069  54.153  1.00  0.00    -0.352 OA
HETATM   14  C   UNL     1       7.662  27.066  53.509  1.00  0.00     0.210 C 
ENDBRANCH   8  13
BRANCH   9  15
HETATM   15  O   UNL     1       6.321  24.497  51.910  1.00  0.00    -0.353 OA
HETATM   16  C   UNL     1       4.938  24.711  52.175  1.00  0.00     0.210 C 
ENDBRANCH   9  15
ENDBRANCH   4   7
ENDBRANCH   2   3
ENDBRANCH   1   2
BRANCH   1  17
HETATM   17  N   UNL     1       6.270  28.465  56.518  1.00  0.00    -0.061 N 
HETATM   18  H   UNL     1       6.581  27.744  55.855  1.00  0.00     0.280 HD
HETATM   19  C   UNL     1       6.355  29.834  55.878  1.00  0.00     0.236 C 
HETATM   20  C   UNL     1       5.198  30.586  56.494  1.00  0.00     0.029 C 
HETATM   21  C   UNL     1       4.092  29.555  56.480  1.00  0.00     0.029 C 
HETATM   22  C   UNL     1       4.780  28.227  56.762  1.00  0.00     0.236 C 
ENDBRANCH   1  17
BRANCH   1  23
HETATM   23  C   UNL     1       8.426  29.107  57.783  1.00  0.00    -0.015 A 
HETATM   24  C   UNL     1       8.587  30.237  58.651  1.00  0.00    -0.018 A 
HETATM   25  C   UNL     1       9.803  30.968  58.587  1.00  0.00    -0.025 A 
HETATM   26  C   UNL     1       7.618  30.692  59.584  1.00  0.00     0.013 A 
HETATM   27  C   UNL     1      10.005  32.092  59.404  1.00  0.00     0.012 A 
HETATM   28  C   UNL     1      10.822  30.574  57.711  1.00  0.00     0.012 A 
HETATM   29  C   UNL     1       9.027  32.516  60.299  1.00  0.00     0.001 A 
HETATM   30  C   UNL     1       7.836  31.814  60.391  1.00  0.00     0.001 A 
HETATM   31  C   UNL     1      10.670  29.464  56.890  1.00  0.00     0.002 A 
HETATM   32  C   UNL     1       9.486  28.738  56.925  1.00  0.00     0.010 A 
ENDBRANCH   1  23
TORSDOF 7
ENDMDL
MODEL 5
REMARK VINA RESULT:      -9.4      1.707      2.680
REMARK  7 active torsions:
REMARK  status: ('A' for Active; 'I' for Inactive)
REMARK    1  A    between atoms: O_2  and  C_3 
REMARK    2  A    between atoms: C_4  and  O_5 
REMARK    3  A    between atoms: C_7  and  C_8 
REMARK       I    between atoms: C_8  and  N_9 
REMARK    4  A    between atoms: N_9  and  C_10 
REMARK    5  A    between atoms: C_10  and  C_11 
REMARK    6  A    between atoms: C_11  and  N_12 
REMARK    7  A    between atoms: C_11  and  C_18 
ROOT
HETATM    1  C   UNL     1       7.536  27.383  54.048  1.00  0.00     0.239 C 
ENDROOT
BRANCH   1   2
HETATM    2  C   UNL     1       8.633  28.399  54.508  1.00  0.00     0.161 C 
BRANCH   2   3
HETATM    3  N   UNL     1       8.211  29.328  55.549  1.00  0.00    -0.354 N 
HETATM    4  C   UNL     1       8.862  29.465  56.750  1.00  0.00     0.254 C 
HETATM    5  O   UNL     1       9.930  28.894  56.951  1.00  0.00    -0.268 OA
HETATM    6  H   UNL     1       7.335  29.835  55.428  1.00  0.00     0.162 HD
BRANCH   4   7
HETATM    7  C   UNL     1       8.265  30.359  57.789  1.00  0.00     0.068 A 
HETATM    8  C   UNL     1       6.892  30.671  57.880  1.00  0.00     0.117 A 
HETATM    9  C   UNL     1       6.455  31.617  58.836  1.00  0.00     0.102 A 
HETATM   10  C   UNL     1       7.376  32.160  59.741  1.00  0.00     0.040 A 
HETATM   11  C   UNL     1       8.724  31.812  59.680  1.00  0.00     0.004 A 
HETATM   12  C   UNL     1       9.168  30.930  58.699  1.00  0.00     0.020 A 
BRANCH   8  13
HETATM   13  O   UNL     1       6.048  30.091  56.957  1.00  0.00    -0.352 OA
HETATM   14  C   UNL     1       5.257  29.009  57.457  1.00  0.00     0.210 C 
ENDBRANCH   8  13
BRANCH   9  15
HETATM   15  O   UNL     1       5.133  31.978  58.800  1.00  0.00    -0.353 OA
HETATM   16  C   UNL     1       4.820  33.364  58.705  1.00  0.00     0.210 C 
ENDBRANCH   9  15
ENDBRANCH   4   7
ENDBRANCH   2   3
ENDBRANCH   1   2
BRANCH   1  17
HETATM   17  N   UNL     1       6.157  28.060  53.937  1.00  0.00    -0.061 N 
HETATM   18  H   UNL     1       6.195  28.867  54.573  1.00  0.00     0.280 HD
HETATM   19  C   UNL     1       4.977  27.178  54.284  1.00  0.00     0.236 C 
HETATM   20  C   UNL     1       4.541  26.628  52.945  1.00  0.00     0.029 C 
HETATM   21  C   UNL     1       4.640  27.838  52.044  1.00  0.00     0.029 C 
HETATM   22  C   UNL     1       5.853  28.610  52.544  1.00  0.00     0.236 C 
ENDBRANCH   1  17
BRANCH   1  23
HETATM   23  C   UNL     1       7.565  26.159  54.968  1.00  0.00    -0.015 A 
HETATM   24  C   UNL     1       7.657  24.826  54.448  1.00  0.00    -0.018 A 
HETATM   25  C   UNL     1       7.662  23.743  55.367  1.00  0.00    -0.025 A 
HETATM   26  C   UNL     1       7.748  24.493  53.071  1.00  0.00     0.013 A 
HETATM   27  C   UNL     1       7.735  22.417  54.908  1.00  0.00     0.012 A 
HETATM   28  C   UNL     1       7.599  23.982  56.745  1.00  0.00     0.012 A 
HETATM   29  C   UNL     1       7.811  22.129  53.548  1.00  0.00     0.001 A 
HETATM   30  C   UNL     1       7.821  23.167  52.630  1.00  0.00     0.001 A 
HETATM   31  C   UNL     1       7.533  25.276  57.244  1.00  0.00     0.002 A 
HETATM   32  C   UNL     1       7.517  26.353  56.367  1.00  0.00     0.010 A 
ENDBRANCH   1  23
TORSDOF 7
ENDMDL
MODEL 6
REMARK VINA RESULT:      -9.3      1.276      2.294
REMARK  7 active torsions:
REMARK  status: ('A' for Active; 'I' for Inactive)
REMARK    1  A    between atoms: O_2  and  C_3 
REMARK    2  A    between atoms: C_4  and  O_5 
REMARK    3  A    between atoms: C_7  and  C_8 
REMARK       I    between atoms: C_8  and  N_9 
REMARK    4  A    between atoms: N_9  and  C_10 
REMARK    5  A    between atoms: C_10  and  C_11 
REMARK    6  A    between atoms: C_11  and  N_12 
REMARK    7  A    between atoms: C_11  and  C_18 
ROOT
HETATM    1  C   UNL     1       7.023  24.874  55.061  1.00  0.00     0.239 C 
ENDROOT
BRANCH   1   2
HETATM    2  C   UNL     1       5.874  25.345  56.013  1.00  0.00     0.161 C 
BRANCH   2   3
HETATM    3  N   UNL     1       6.165  26.553  56.775  1.00  0.00    -0.354 N 
HETATM    4  C   UNL     1       5.580  27.768  56.519  1.00  0.00     0.254 C 
HETATM    5  O   UNL     1       4.668  27.864  55.704  1.00  0.00    -0.268 OA
HETATM    6  H   UNL     1       6.909  26.526  57.471  1.00  0.00     0.162 HD
BRANCH   4   7
HETATM    7  C   UNL     1       6.049  28.963  57.286  1.00  0.00     0.068 A 
HETATM    8  C   UNL     1       7.305  29.061  57.921  1.00  0.00     0.117 A 
HETATM    9  C   UNL     1       7.598  30.195  58.714  1.00  0.00     0.102 A 
HETATM   10  C   UNL     1       6.676  31.248  58.780  1.00  0.00     0.040 A 
HETATM   11  C   UNL     1       5.456  31.169  58.110  1.00  0.00     0.004 A 
HETATM   12  C   UNL     1       5.138  30.026  57.382  1.00  0.00     0.020 A 
BRANCH   8  13
HETATM   13  O   UNL     1       8.160  27.986  57.804  1.00  0.00    -0.352 OA
HETATM   14  C   UNL     1       9.257  28.182  56.907  1.00  0.00     0.210 C 
ENDBRANCH   8  13
BRANCH   9  15
HETATM   15  O   UNL     1       8.779  30.184  59.409  1.00  0.00    -0.353 OA
HETATM   16  C   UNL     1       9.606  31.341  59.342  1.00  0.00     0.210 C 
ENDBRANCH   9  15
ENDBRANCH   4   7
ENDBRANCH   2   3
ENDBRANCH   1   2
BRANCH   1  17
HETATM   17  N   UNL     1       6.554  24.835  53.595  1.00  0.00    -0.061 N 
HETATM   18  H   UNL     1       6.742  23.877  53.271  1.00  0.00     0.280 HD
HETATM   19  C   UNL     1       7.224  25.836  52.678  1.00  0.00     0.236 C 
HETATM   20  C   UNL     1       6.279  27.015  52.691  1.00  0.00     0.029 C 
HETATM   21  C   UNL     1       4.923  26.351  52.608  1.00  0.00     0.029 C 
HETATM   22  C   UNL     1       5.055  25.072  53.423  1.00  0.00     0.236 C 
ENDBRANCH   1  17
BRANCH   1  23
HETATM   23  C   UNL     1       7.595  23.550  55.576  1.00  0.00    -0.015 A 
HETATM   24  C   UNL     1       7.881  22.457  54.693  1.00  0.00    -0.018 A 
HETATM   25  C   UNL     1       8.394  21.256  55.251  1.00  0.00    -0.025 A 
HETATM   26  C   UNL     1       7.692  22.476  53.286  1.00  0.00     0.013 A 
HETATM   27  C   UNL     1       8.676  20.151  54.432  1.00  0.00     0.012 A 
HETATM   28  C   UNL     1       8.632  21.159  56.628  1.00  0.00     0.012 A 
HETATM   29  C   UNL     1       8.466  20.203  53.057  1.00  0.00     0.001 A 
HETATM   30  C   UNL     1       7.979  21.366  52.484  1.00  0.00     0.001 A 
HETATM   31  C   UNL     1       8.376  22.229  57.475  1.00  0.00     0.002 A 
HETATM   32  C   UNL     1       7.864  23.411  56.956  1.00  0.00     0.010 A 
ENDBRANCH   1  23
TORSDOF 7
ENDMDL
MODEL 7
REMARK VINA RESULT:      -9.2      2.394      8.062
REMARK  7 active torsions:
REMARK  status: ('A' for Active; 'I' for Inactive)
REMARK    1  A    between atoms: O_2  and  C_3 
REMARK    2  A    between atoms: C_4  and  O_5 
REMARK    3  A    between atoms: C_7  and  C_8 
REMARK       I    between atoms: C_8  and  N_9 
REMARK    4  A    between atoms: N_9  and  C_10 
REMARK    5  A    between atoms: C_10  and  C_11 
REMARK    6  A    between atoms: C_11  and  N_12 
REMARK    7  A    between atoms: C_11  and  C_18 
ROOT
HETATM    1  C   UNL     1       7.172  28.834  56.661  1.00  0.00     0.239 C 
ENDROOT
BRANCH   1   2
HETATM    2  C   UNL     1       7.299  28.404  55.163  1.00  0.00     0.161 C 
BRANCH   2   3
HETATM    3  N   UNL     1       7.616  26.997  54.954  1.00  0.00    -0.354 N 
HETATM    4  C   UNL     1       6.749  26.104  54.374  1.00  0.00     0.254 C 
HETATM    5  O   UNL     1       5.696  26.489  53.875  1.00  0.00    -0.268 OA
HETATM    6  H   UNL     1       8.483  26.626  55.340  1.00  0.00     0.162 HD
BRANCH   4   7
HETATM    7  C   UNL     1       7.135  24.661  54.325  1.00  0.00     0.068 A 
HETATM    8  C   UNL     1       7.337  23.849  55.461  1.00  0.00     0.117 A 
HETATM    9  C   UNL     1       7.811  22.527  55.298  1.00  0.00     0.102 A 
HETATM   10  C   UNL     1       7.981  22.010  54.007  1.00  0.00     0.040 A 
HETATM   11  C   UNL     1       7.733  22.798  52.885  1.00  0.00     0.004 A 
HETATM   12  C   UNL     1       7.329  24.121  53.044  1.00  0.00     0.020 A 
BRANCH   8  13
HETATM   13  O   UNL     1       7.143  24.430  56.697  1.00  0.00    -0.352 OA
HETATM   14  C   UNL     1       8.341  24.818  57.376  1.00  0.00     0.210 C 
ENDBRANCH   8  13
BRANCH   9  15
HETATM   15  O   UNL     1       8.110  21.824  56.436  1.00  0.00    -0.353 OA
HETATM   16  C   UNL     1       8.240  20.410  56.335  1.00  0.00     0.210 C 
ENDBRANCH   9  15
ENDBRANCH   4   7
ENDBRANCH   2   3
ENDBRANCH   1   2
BRANCH   1  17
HETATM   17  N   UNL     1       5.888  29.650  56.902  1.00  0.00    -0.061 N 
HETATM   18  H   UNL     1       6.111  30.293  57.673  1.00  0.00     0.280 HD
HETATM   19  C   UNL     1       4.661  28.832  57.244  1.00  0.00     0.236 C 
HETATM   20  C   UNL     1       3.987  28.629  55.906  1.00  0.00     0.029 C 
HETATM   21  C   UNL     1       4.120  29.990  55.261  1.00  0.00     0.029 C 
HETATM   22  C   UNL     1       5.477  30.514  55.711  1.00  0.00     0.236 C 
ENDBRANCH   1  17
BRANCH   1  23
HETATM   23  C   UNL     1       8.459  29.543  57.094  1.00  0.00    -0.015 A 
HETATM   24  C   UNL     1       8.479  30.472  58.186  1.00  0.00    -0.018 A 
HETATM   25  C   UNL     1       9.710  31.100  58.514  1.00  0.00    -0.025 A 
HETATM   26  C   UNL     1       7.354  30.821  58.979  1.00  0.00     0.013 A 
HETATM   27  C   UNL     1       9.779  32.030  59.565  1.00  0.00     0.012 A 
HETATM   28  C   UNL     1      10.874  30.796  57.798  1.00  0.00     0.012 A 
HETATM   29  C   UNL     1       8.652  32.356  60.313  1.00  0.00     0.001 A 
HETATM   30  C   UNL     1       7.441  31.748  60.023  1.00  0.00     0.001 A 
HETATM   31  C   UNL     1      10.854  29.878  56.757  1.00  0.00     0.002 A 
HETATM   32  C   UNL     1       9.661  29.258  56.408  1.00  0.00     0.010 A 
ENDBRANCH   1  23
TORSDOF 7
ENDMDL
MODEL 8
REMARK VINA RESULT:      -8.9      2.321      7.561
REMARK  7 active torsions:
REMARK  status: ('A' for Active; 'I' for Inactive)
REMARK    1  A    between atoms: O_2  and  C_3 
REMARK    2  A    between atoms: C_4  and  O_5 
REMARK    3  A    between atoms: C_7  and  C_8 
REMARK       I    between atoms: C_8  and  N_9 
REMARK    4  A    between atoms: N_9  and  C_10 
REMARK    5  A    between atoms: C_10  and  C_11 
REMARK    6  A    between atoms: C_11  and  N_12 
REMARK    7  A    between atoms: C_11  and  C_18 
ROOT
HETATM    1  C   UNL     1       7.991  28.444  56.056  1.00  0.00     0.239 C 
ENDROOT
BRANCH   1   2
HETATM    2  C   UNL     1       8.269  27.321  57.108  1.00  0.00     0.161 C 
BRANCH   2   3
HETATM    3  N   UNL     1       8.429  25.983  56.550  1.00  0.00    -0.354 N 
HETATM    4  C   UNL     1       7.527  24.967  56.752  1.00  0.00     0.254 C 
HETATM    5  O   UNL     1       6.458  25.182  57.314  1.00  0.00    -0.268 OA
HETATM    6  H   UNL     1       9.295  25.754  56.067  1.00  0.00     0.162 HD
BRANCH   4   7
HETATM    7  C   UNL     1       7.859  23.604  56.235  1.00  0.00     0.068 A 
HETATM    8  C   UNL     1       7.863  23.248  54.870  1.00  0.00     0.117 A 
HETATM    9  C   UNL     1       8.083  21.900  54.502  1.00  0.00     0.102 A 
HETATM   10  C   UNL     1       8.389  20.957  55.491  1.00  0.00     0.040 A 
HETATM   11  C   UNL     1       8.434  21.323  56.835  1.00  0.00     0.004 A 
HETATM   12  C   UNL     1       8.154  22.634  57.206  1.00  0.00     0.020 A 
BRANCH   8  13
HETATM   13  O   UNL     1       7.558  24.235  53.956  1.00  0.00    -0.352 OA
HETATM   14  C   UNL     1       6.174  24.324  53.604  1.00  0.00     0.210 C 
ENDBRANCH   8  13
BRANCH   9  15
HETATM   15  O   UNL     1       7.952  21.584  53.175  1.00  0.00    -0.353 OA
HETATM   16  C   UNL     1       8.360  20.287  52.752  1.00  0.00     0.210 C 
ENDBRANCH   9  15
ENDBRANCH   4   7
ENDBRANCH   2   3
ENDBRANCH   1   2
BRANCH   1  17
HETATM   17  N   UNL     1       8.734  29.744  56.417  1.00  0.00    -0.061 N 
HETATM   18  H   UNL     1       8.124  30.508  56.096  1.00  0.00     0.280 HD
HETATM   19  C   UNL     1      10.112  29.888  55.808  1.00  0.00     0.236 C 
HETATM   20  C   UNL     1      11.031  29.356  56.884  1.00  0.00     0.029 C 
HETATM   21  C   UNL     1      10.440  29.946  58.144  1.00  0.00     0.029 C 
HETATM   22  C   UNL     1       8.934  29.941  57.919  1.00  0.00     0.236 C 
ENDBRANCH   1  17
BRANCH   1  23
HETATM   23  C   UNL     1       6.479  28.609  55.880  1.00  0.00    -0.015 A 
HETATM   24  C   UNL     1       5.837  28.383  54.619  1.00  0.00    -0.018 A 
HETATM   25  C   UNL     1       4.432  28.574  54.534  1.00  0.00    -0.025 A 
HETATM   26  C   UNL     1       6.497  27.976  53.429  1.00  0.00     0.013 A 
HETATM   27  C   UNL     1       3.756  28.380  53.318  1.00  0.00     0.012 A 
HETATM   28  C   UNL     1       3.698  28.952  55.665  1.00  0.00     0.012 A 
HETATM   29  C   UNL     1       4.440  27.992  52.169  1.00  0.00     0.001 A 
HETATM   30  C   UNL     1       5.809  27.786  52.226  1.00  0.00     0.001 A 
HETATM   31  C   UNL     1       4.322  29.148  56.890  1.00  0.00     0.002 A 
HETATM   32  C   UNL     1       5.697  28.978  56.997  1.00  0.00     0.010 A 
ENDBRANCH   1  23
TORSDOF 7
ENDMDL
MODEL 9
REMARK VINA RESULT:      -8.9      2.131      3.679
REMARK  7 active torsions:
REMARK  status: ('A' for Active; 'I' for Inactive)
REMARK    1  A    between atoms: O_2  and  C_3 
REMARK    2  A    between atoms: C_4  and  O_5 
REMARK    3  A    between atoms: C_7  and  C_8 
REMARK       I    between atoms: C_8  and  N_9 
REMARK    4  A    between atoms: N_9  and  C_10 
REMARK    5  A    between atoms: C_10  and  C_11 
REMARK    6  A    between atoms: C_11  and  N_12 
REMARK    7  A    between atoms: C_11  and  C_18 
ROOT
HETATM    1  C   UNL     1       7.376  27.897  55.612  1.00  0.00     0.239 C 
ENDROOT
BRANCH   1   2
HETATM    2  C   UNL     1       8.293  28.690  56.601  1.00  0.00     0.161 C 
BRANCH   2   3
HETATM    3  N   UNL     1       7.584  29.572  57.521  1.00  0.00    -0.354 N 
HETATM    4  C   UNL     1       8.209  30.525  58.287  1.00  0.00     0.254 C 
HETATM    5  O   UNL     1       9.401  30.772  58.130  1.00  0.00    -0.268 OA
HETATM    6  H   UNL     1       6.591  29.416  57.683  1.00  0.00     0.162 HD
BRANCH   4   7
HETATM    7  C   UNL     1       7.396  31.285  59.285  1.00  0.00     0.068 A 
HETATM    8  C   UNL     1       7.663  31.324  60.670  1.00  0.00     0.117 A 
HETATM    9  C   UNL     1       6.761  31.985  61.536  1.00  0.00     0.102 A 
HETATM   10  C   UNL     1       5.667  32.673  60.997  1.00  0.00     0.040 A 
HETATM   11  C   UNL     1       5.433  32.674  59.623  1.00  0.00     0.004 A 
HETATM   12  C   UNL     1       6.283  31.971  58.774  1.00  0.00     0.020 A 
BRANCH   8  13
HETATM   13  O   UNL     1       8.763  30.626  61.122  1.00  0.00    -0.352 OA
HETATM   14  C   UNL     1       9.870  31.439  61.524  1.00  0.00     0.210 C 
ENDBRANCH   8  13
BRANCH   9  15
HETATM   15  O   UNL     1       6.999  31.885  62.882  1.00  0.00    -0.353 OA
HETATM   16  C   UNL     1       7.170  33.089  63.622  1.00  0.00     0.210 C 
ENDBRANCH   9  15
ENDBRANCH   4   7
ENDBRANCH   2   3
ENDBRANCH   1   2
BRANCH   1  17
HETATM   17  N   UNL     1       5.902  28.317  55.757  1.00  0.00    -0.061 N 
HETATM   18  H   UNL     1       5.807  28.663  56.721  1.00  0.00     0.280 HD
HETATM   19  C   UNL     1       4.891  27.221  55.495  1.00  0.00     0.236 C 
HETATM   20  C   UNL     1       4.543  27.402  54.035  1.00  0.00     0.029 C 
HETATM   21  C   UNL     1       4.428  28.905  53.909  1.00  0.00     0.029 C 
HETATM   22  C   UNL     1       5.497  29.467  54.835  1.00  0.00     0.236 C 
ENDBRANCH   1  17
BRANCH   1  23
HETATM   23  C   UNL     1       7.624  26.396  55.787  1.00  0.00    -0.015 A 
HETATM   24  C   UNL     1       7.716  25.511  54.664  1.00  0.00    -0.018 A 
HETATM   25  C   UNL     1       7.931  24.128  54.911  1.00  0.00    -0.025 A 
HETATM   26  C   UNL     1       7.611  25.906  53.304  1.00  0.00     0.013 A 
HETATM   27  C   UNL     1       8.014  23.217  53.845  1.00  0.00     0.012 A 
HETATM   28  C   UNL     1       8.070  23.656  56.221  1.00  0.00     0.012 A 
HETATM   29  C   UNL     1       7.893  23.640  52.525  1.00  0.00     0.001 A 
HETATM   30  C   UNL     1       7.696  24.985  52.255  1.00  0.00     0.001 A 
HETATM   31  C   UNL     1       8.004  24.522  57.305  1.00  0.00     0.002 A 
HETATM   32  C   UNL     1       7.784  25.877  57.091  1.00  0.00     0.010 A 
ENDBRANCH   1  23
TORSDOF 7
ENDMDL
MODEL 10
REMARK VINA RESULT:      -8.9      3.617      6.532
REMARK  7 active torsions:
REMARK  status: ('A' for Active; 'I' for Inactive)
REMARK    1  A    between atoms: O_2  and  C_3 
REMARK    2  A    between atoms: C_4  and  O_5 
REMARK    3  A    between atoms: C_7  and  C_8 
REMARK       I    between atoms: C_8  and  N_9 
REMARK    4  A    between atoms: N_9  and  C_10 
REMARK    5  A    between atoms: C_10  and  C_11 
REMARK    6  A    between atoms: C_11  and  N_12 
REMARK    7  A    between atoms: C_11  and  C_18 
ROOT
HETATM    1  C   UNL     1       6.533  26.989  55.061  1.00  0.00     0.239 C 
ENDROOT
BRANCH   1   2
HETATM    2  C   UNL     1       7.429  27.821  54.085  1.00  0.00     0.161 C 
BRANCH   2   3
HETATM    3  N   UNL     1       6.877  28.001  52.748  1.00  0.00    -0.354 N 
HETATM    4  C   UNL     1       5.739  27.370  52.309  1.00  0.00     0.254 C 
HETATM    5  O   UNL     1       5.047  26.716  53.083  1.00  0.00    -0.268 OA
HETATM    6  H   UNL     1       7.407  28.542  52.067  1.00  0.00     0.162 HD
BRANCH   4   7
HETATM    7  C   UNL     1       5.338  27.535  50.878  1.00  0.00     0.068 A 
HETATM    8  C   UNL     1       5.348  28.762  50.182  1.00  0.00     0.117 A 
HETATM    9  C   UNL     1       4.841  28.819  48.863  1.00  0.00     0.102 A 
HETATM   10  C   UNL     1       4.426  27.639  48.232  1.00  0.00     0.040 A 
HETATM   11  C   UNL     1       4.464  26.420  48.905  1.00  0.00     0.004 A 
HETATM   12  C   UNL     1       4.902  26.371  50.226  1.00  0.00     0.020 A 
BRANCH   8  13
HETATM   13  O   UNL     1       5.777  29.877  50.870  1.00  0.00    -0.352 OA
HETATM   14  C   UNL     1       4.735  30.655  51.469  1.00  0.00     0.210 C 
ENDBRANCH   8  13
BRANCH   9  15
HETATM   15  O   UNL     1       4.757  30.056  48.278  1.00  0.00    -0.353 OA
HETATM   16  C   UNL     1       4.517  30.118  46.876  1.00  0.00     0.210 C 
ENDBRANCH   9  15
ENDBRANCH   4   7
ENDBRANCH   2   3
ENDBRANCH   1   2
BRANCH   1  17
HETATM   17  N   UNL     1       5.860  27.893  56.110  1.00  0.00    -0.061 N 
HETATM   18  H   UNL     1       6.072  27.465  57.020  1.00  0.00     0.280 HD
HETATM   19  C   UNL     1       4.364  28.062  55.949  1.00  0.00     0.236 C 
HETATM   20  C   UNL     1       4.236  29.329  55.135  1.00  0.00     0.029 C 
HETATM   21  C   UNL     1       5.270  30.232  55.767  1.00  0.00     0.029 C 
HETATM   22  C   UNL     1       6.423  29.314  56.149  1.00  0.00     0.236 C 
ENDBRANCH   1  17
BRANCH   1  23
HETATM   23  C   UNL     1       7.360  25.844  55.653  1.00  0.00    -0.015 A 
HETATM   24  C   UNL     1       7.695  24.680  54.887  1.00  0.00    -0.018 A 
HETATM   25  C   UNL     1       8.451  23.654  55.514  1.00  0.00    -0.025 A 
HETATM   26  C   UNL     1       7.330  24.464  53.532  1.00  0.00     0.013 A 
HETATM   27  C   UNL     1       8.792  22.486  54.812  1.00  0.00     0.012 A 
HETATM   28  C   UNL     1       8.873  23.795  56.841  1.00  0.00     0.012 A 
HETATM   29  C   UNL     1       8.405  22.305  53.487  1.00  0.00     0.001 A 
HETATM   30  C   UNL     1       7.678  23.295  52.846  1.00  0.00     0.001 A 
HETATM   31  C   UNL     1       8.566  24.936  57.572  1.00  0.00     0.002 A 
HETATM   32  C   UNL     1       7.818  25.949  56.986  1.00  0.00     0.010 A 
ENDBRANCH   1  23
TORSDOF 7
ENDMDL
