MODEL 1
REMARK VINA RESULT:     -10.5      0.000      0.000
REMARK  6 active torsions:
REMARK  status: ('A' for Active; 'I' for Inactive)
REMARK    1  A    between atoms: C_7  and  C_8 
REMARK    2  A    between atoms: C_12  and  S_13 
REMARK    3  A    between atoms: S_13  and  C_14 
REMARK    4  A    between atoms: C_14  and  C_15 
REMARK       I    between atoms: C_15  and  N_16 
REMARK    5  A    between atoms: N_16  and  C_17 
REMARK    6  A    between atoms: C_25  and  C_26 
REMARK       I    between atoms: C_26  and  N_27 
ROOT
HETATM    1  C   UNL     1       8.005  30.922  58.557  1.00  0.00     0.232 C 
HETATM    2  N   UNL     1       7.107  30.864  59.605  1.00  0.00    -0.320 N 
HETATM    3  O   UNL     1       8.989  31.657  58.487  1.00  0.00    -0.272 OA
HETATM    4  H   UNL     1       6.367  30.174  59.522  1.00  0.00     0.169 HD
ENDROOT
BRANCH   1   5
HETATM    5  C   UNL     1       7.769  29.920  57.427  1.00  0.00     0.185 C 
BRANCH   5   6
HETATM    6  S   UNL     1       6.040  29.646  56.928  1.00  0.00    -0.081 SA
BRANCH   6   7
HETATM    7  C   UNL     1       6.029  27.940  56.723  1.00  0.00     0.185 A 
HETATM    8  N   UNL     1       4.980  27.169  57.100  1.00  0.00    -0.253 N 
HETATM    9  N   UNL     1       5.172  25.893  56.734  1.00  0.00    -0.152 NA
HETATM   10  H   UNL     1       4.123  27.439  57.567  1.00  0.00     0.191 HD
HETATM   11  C   UNL     1       6.386  25.935  56.161  1.00  0.00     0.183 A 
HETATM   12  N   UNL     1       6.934  27.205  56.134  1.00  0.00    -0.201 NA
BRANCH  11  13
HETATM   13  C   UNL     1       7.063  24.807  55.522  1.00  0.00     0.035 A 
HETATM   14  C   UNL     1       8.140  24.102  56.085  1.00  0.00     0.049 A 
HETATM   15  C   UNL     1       8.710  23.013  55.407  1.00  0.00     0.048 A 
HETATM   16 CL   UNL     1       8.885  24.521  57.592  1.00  0.00    -0.083 Cl
HETATM   17  C   UNL     1       8.220  22.628  54.163  1.00  0.00     0.035 A 
HETATM   18  C   UNL     1       7.166  23.320  53.579  1.00  0.00     0.025 A 
HETATM   19 CL   UNL     1       8.926  21.293  53.340  1.00  0.00    -0.084 Cl
HETATM   20  C   UNL     1       6.594  24.402  54.254  1.00  0.00     0.019 A 
ENDBRANCH  11  13
ENDBRANCH   6   7
ENDBRANCH   5   6
ENDBRANCH   1   5
BRANCH   2  21
HETATM   21  C   UNL     1       6.975  31.748  60.667  1.00  0.00     0.093 A 
HETATM   22  S   UNL     1       5.713  32.884  60.712  1.00  0.00    -0.075 SA
HETATM   23  C   UNL     1       6.139  33.407  62.265  1.00  0.00    -0.008 A 
HETATM   24  C   UNL     1       7.236  32.735  62.767  1.00  0.00    -0.026 A 
HETATM   25  C   UNL     1       5.358  34.462  62.986  1.00  0.00     0.047 C 
HETATM   26  C   UNL     1       7.788  33.044  64.133  1.00  0.00     0.041 C 
HETATM   27  C   UNL     1       7.774  31.798  61.805  1.00  0.00     0.072 A 
HETATM   28  C   UNL     1       6.802  33.862  64.984  1.00  0.00     0.005 C 
HETATM   29  C   UNL     1       6.162  35.000  64.179  1.00  0.00     0.005 C 
BRANCH  27  30
HETATM   30  C   UNL     1       8.975  30.989  62.014  1.00  0.00     0.252 C 
HETATM   31  N   UNL     1       8.771  29.772  62.612  1.00  0.00    -0.366 N 
HETATM   32  H   UNL     1       7.856  29.346  62.530  1.00  0.00     0.159 HD
HETATM   33  H   UNL     1       9.566  29.147  62.550  1.00  0.00     0.159 HD
HETATM   34  O   UNL     1      10.096  31.309  61.640  1.00  0.00    -0.268 OA
ENDBRANCH  27  30
ENDBRANCH   2  21
TORSDOF 6
ENDMDL
MODEL 2
REMARK VINA RESULT:     -10.4      1.461      1.636
REMARK  6 active torsions:
REMARK  status: ('A' for Active; 'I' for Inactive)
REMARK    1  A    between atoms: C_7  and  C_8 
REMARK    2  A    between atoms: C_12  and  S_13 
REMARK    3  A    between atoms: S_13  and  C_14 
REMARK    4  A    between atoms: C_14  and  C_15 
REMARK       I    between atoms: C_15  and  N_16 
REMARK    5  A    between atoms: N_16  and  C_17 
REMARK    6  A    between atoms: C_25  and  C_26 
REMARK       I    between atoms: C_26  and  N_27 
ROOT
HETATM    1  C   UNL     1       6.540  31.224  58.307  1.00  0.00     0.232 C 
HETATM    2  N   UNL     1       6.935  30.966  59.605  1.00  0.00    -0.320 N 
HETATM    3  O   UNL     1       6.218  32.321  57.852  1.00  0.00    -0.272 OA
HETATM    4  H   UNL     1       7.203  30.008  59.809  1.00  0.00     0.169 HD
ENDROOT
BRANCH   1   5
HETATM    5  C   UNL     1       6.586  30.031  57.352  1.00  0.00     0.185 C 
BRANCH   5   6
HETATM    6  S   UNL     1       7.735  28.687  57.783  1.00  0.00    -0.081 SA
BRANCH   6   7
HETATM    7  C   UNL     1       7.164  27.432  56.755  1.00  0.00     0.185 A 
HETATM    8  N   UNL     1       5.994  27.525  56.076  1.00  0.00    -0.253 N 
HETATM    9  N   UNL     1       5.830  26.468  55.267  1.00  0.00    -0.152 NA
HETATM   10  H   UNL     1       5.300  28.262  56.095  1.00  0.00     0.191 HD
HETATM   11  C   UNL     1       6.927  25.736  55.520  1.00  0.00     0.183 A 
HETATM   12  N   UNL     1       7.778  26.325  56.439  1.00  0.00    -0.201 NA
BRANCH  11  13
HETATM   13  C   UNL     1       7.289  24.488  54.848  1.00  0.00     0.035 A 
HETATM   14  C   UNL     1       7.636  24.387  53.490  1.00  0.00     0.049 A 
HETATM   15  C   UNL     1       7.995  23.148  52.938  1.00  0.00     0.048 A 
HETATM   16 CL   UNL     1       7.605  25.721  52.384  1.00  0.00    -0.083 Cl
HETATM   17  C   UNL     1       8.000  22.003  53.729  1.00  0.00     0.035 A 
HETATM   18  C   UNL     1       7.645  22.075  55.070  1.00  0.00     0.025 A 
HETATM   19 CL   UNL     1       8.440  20.489  53.041  1.00  0.00    -0.084 Cl
HETATM   20  C   UNL     1       7.291  23.309  55.624  1.00  0.00     0.019 A 
ENDBRANCH  11  13
ENDBRANCH   6   7
ENDBRANCH   5   6
ENDBRANCH   1   5
BRANCH   2  21
HETATM   21  C   UNL     1       6.835  31.801  60.710  1.00  0.00     0.093 A 
HETATM   22  S   UNL     1       5.493  32.820  60.923  1.00  0.00    -0.075 SA
HETATM   23  C   UNL     1       6.027  33.328  62.447  1.00  0.00    -0.008 A 
HETATM   24  C   UNL     1       7.220  32.739  62.814  1.00  0.00    -0.026 A 
HETATM   25  C   UNL     1       5.236  34.286  63.283  1.00  0.00     0.047 C 
HETATM   26  C   UNL     1       7.878  33.050  64.131  1.00  0.00     0.041 C 
HETATM   27  C   UNL     1       7.736  31.883  61.767  1.00  0.00     0.072 A 
HETATM   28  C   UNL     1       6.917  33.751  65.106  1.00  0.00     0.005 C 
HETATM   29  C   UNL     1       6.106  34.854  64.414  1.00  0.00     0.005 C 
BRANCH  27  30
HETATM   30  C   UNL     1       9.016  31.176  61.825  1.00  0.00     0.252 C 
HETATM   31  N   UNL     1       8.969  29.914  62.358  1.00  0.00    -0.366 N 
HETATM   32  H   UNL     1       8.090  29.412  62.322  1.00  0.00     0.159 HD
HETATM   33  H   UNL     1       9.807  29.368  62.192  1.00  0.00     0.159 HD
HETATM   34  O   UNL     1      10.070  31.618  61.384  1.00  0.00    -0.268 OA
ENDBRANCH  27  30
ENDBRANCH   2  21
TORSDOF 6
ENDMDL
MODEL 3
REMARK VINA RESULT:     -10.2      4.129     10.726
REMARK  6 active torsions:
REMARK  status: ('A' for Active; 'I' for Inactive)
REMARK    1  A    between atoms: C_7  and  C_8 
REMARK    2  A    between atoms: C_12  and  S_13 
REMARK    3  A    between atoms: S_13  and  C_14 
REMARK    4  A    between atoms: C_14  and  C_15 
REMARK       I    between atoms: C_15  and  N_16 
REMARK    5  A    between atoms: N_16  and  C_17 
REMARK    6  A    between atoms: C_25  and  C_26 
REMARK       I    between atoms: C_26  and  N_27 
ROOT
HETATM    1  C   UNL     1       5.922  26.259  56.517  1.00  0.00     0.232 C 
HETATM    2  N   UNL     1       7.120  25.883  55.942  1.00  0.00    -0.320 N 
HETATM    3  O   UNL     1       5.068  25.499  56.974  1.00  0.00    -0.272 OA
HETATM    4  H   UNL     1       7.731  26.639  55.647  1.00  0.00     0.169 HD
ENDROOT
BRANCH   1   5
HETATM    5  C   UNL     1       5.694  27.765  56.650  1.00  0.00     0.185 C 
BRANCH   5   6
HETATM    6  S   UNL     1       6.885  28.846  55.799  1.00  0.00    -0.081 SA
BRANCH   6   7
HETATM    7  C   UNL     1       7.696  29.553  57.140  1.00  0.00     0.185 A 
HETATM    8  N   UNL     1       9.021  29.836  57.121  1.00  0.00    -0.253 N 
HETATM    9  N   UNL     1       9.386  30.477  58.240  1.00  0.00    -0.152 NA
HETATM   10  H   UNL     1       9.705  29.651  56.396  1.00  0.00     0.191 HD
HETATM   11  C   UNL     1       8.236  30.531  58.932  1.00  0.00     0.183 A 
HETATM   12  N   UNL     1       7.167  29.968  58.258  1.00  0.00    -0.201 NA
BRANCH  11  13
HETATM   13  C   UNL     1       8.052  31.194  60.222  1.00  0.00     0.035 A 
HETATM   14  C   UNL     1       7.070  32.164  60.486  1.00  0.00     0.049 A 
HETATM   15  C   UNL     1       6.951  32.727  61.766  1.00  0.00     0.048 A 
HETATM   16 CL   UNL     1       5.980  32.783  59.289  1.00  0.00    -0.083 Cl
HETATM   17  C   UNL     1       7.813  32.338  62.785  1.00  0.00     0.035 A 
HETATM   18  C   UNL     1       8.803  31.392  62.545  1.00  0.00     0.025 A 
HETATM   19 CL   UNL     1       7.660  33.036  64.350  1.00  0.00    -0.084 Cl
HETATM   20  C   UNL     1       8.920  30.826  61.273  1.00  0.00     0.019 A 
ENDBRANCH  11  13
ENDBRANCH   6   7
ENDBRANCH   5   6
ENDBRANCH   1   5
BRANCH   2  21
HETATM   21  C   UNL     1       7.517  24.614  55.545  1.00  0.00     0.093 A 
HETATM   22  S   UNL     1       7.970  23.439  56.685  1.00  0.00    -0.075 SA
HETATM   23  C   UNL     1       8.139  22.244  55.498  1.00  0.00    -0.008 A 
HETATM   24  C   UNL     1       7.857  22.714  54.230  1.00  0.00    -0.026 A 
HETATM   25  C   UNL     1       8.519  20.837  55.840  1.00  0.00     0.047 C 
HETATM   26  C   UNL     1       7.945  21.820  53.023  1.00  0.00     0.041 C 
HETATM   27  C   UNL     1       7.549  24.128  54.242  1.00  0.00     0.072 A 
HETATM   28  C   UNL     1       8.000  20.332  53.409  1.00  0.00     0.005 C 
HETATM   29  C   UNL     1       8.959  20.080  54.578  1.00  0.00     0.005 C 
BRANCH  27  30
HETATM   30  C   UNL     1       7.278  24.930  53.049  1.00  0.00     0.252 C 
HETATM   31  N   UNL     1       5.953  25.143  52.769  1.00  0.00    -0.366 N 
HETATM   32  H   UNL     1       5.289  25.091  53.531  1.00  0.00     0.159 HD
HETATM   33  H   UNL     1       5.791  25.868  52.080  1.00  0.00     0.159 HD
HETATM   34  O   UNL     1       8.143  25.448  52.354  1.00  0.00    -0.268 OA
ENDBRANCH  27  30
ENDBRANCH   2  21
TORSDOF 6
ENDMDL
MODEL 4
REMARK VINA RESULT:     -10.2      1.762      2.537
REMARK  6 active torsions:
REMARK  status: ('A' for Active; 'I' for Inactive)
REMARK    1  A    between atoms: C_7  and  C_8 
REMARK    2  A    between atoms: C_12  and  S_13 
REMARK    3  A    between atoms: S_13  and  C_14 
REMARK    4  A    between atoms: C_14  and  C_15 
REMARK       I    between atoms: C_15  and  N_16 
REMARK    5  A    between atoms: N_16  and  C_17 
REMARK    6  A    between atoms: C_25  and  C_26 
REMARK       I    between atoms: C_26  and  N_27 
ROOT
HETATM    1  C   UNL     1       8.939  30.768  58.739  1.00  0.00     0.232 C 
HETATM    2  N   UNL     1       8.119  30.451  59.804  1.00  0.00    -0.320 N 
HETATM    3  O   UNL     1       9.607  31.795  58.620  1.00  0.00    -0.272 OA
HETATM    4  H   UNL     1       7.663  29.544  59.763  1.00  0.00     0.169 HD
ENDROOT
BRANCH   1   5
HETATM    5  C   UNL     1       9.064  29.696  57.657  1.00  0.00     0.185 C 
BRANCH   5   6
HETATM    6  S   UNL     1       7.568  29.344  56.682  1.00  0.00    -0.081 SA
BRANCH   6   7
HETATM    7  C   UNL     1       7.597  27.625  56.654  1.00  0.00     0.185 A 
HETATM    8  N   UNL     1       7.286  26.876  57.740  1.00  0.00    -0.253 N 
HETATM    9  N   UNL     1       7.279  25.571  57.430  1.00  0.00    -0.152 NA
HETATM   10  H   UNL     1       7.052  27.175  58.679  1.00  0.00     0.191 HD
HETATM   11  C   UNL     1       7.631  25.579  56.133  1.00  0.00     0.183 A 
HETATM   12  N   UNL     1       7.824  26.852  55.627  1.00  0.00    -0.201 NA
BRANCH  11  13
HETATM   13  C   UNL     1       7.715  24.402  55.269  1.00  0.00     0.035 A 
HETATM   14  C   UNL     1       7.795  24.448  53.867  1.00  0.00     0.049 A 
HETATM   15  C   UNL     1       7.900  23.264  53.121  1.00  0.00     0.048 A 
HETATM   16 CL   UNL     1       7.723  25.913  52.944  1.00  0.00    -0.083 Cl
HETATM   17  C   UNL     1       7.913  22.030  53.763  1.00  0.00     0.035 A 
HETATM   18  C   UNL     1       7.818  21.958  55.147  1.00  0.00     0.025 A 
HETATM   19 CL   UNL     1       8.040  20.585  52.839  1.00  0.00    -0.084 Cl
HETATM   20  C   UNL     1       7.718  23.136  55.893  1.00  0.00     0.019 A 
ENDBRANCH  11  13
ENDBRANCH   6   7
ENDBRANCH   5   6
ENDBRANCH   1   5
BRANCH   2  21
HETATM   21  C   UNL     1       7.690  31.282  60.829  1.00  0.00     0.093 A 
HETATM   22  S   UNL     1       8.495  31.321  62.325  1.00  0.00    -0.075 SA
HETATM   23  C   UNL     1       7.529  32.587  62.897  1.00  0.00    -0.008 A 
HETATM   24  C   UNL     1       6.589  32.996  61.972  1.00  0.00    -0.026 A 
HETATM   25  C   UNL     1       7.735  33.188  64.253  1.00  0.00     0.047 C 
HETATM   26  C   UNL     1       5.622  34.109  62.274  1.00  0.00     0.041 C 
HETATM   27  C   UNL     1       6.636  32.189  60.772  1.00  0.00     0.072 A 
HETATM   28  C   UNL     1       6.051  34.930  63.502  1.00  0.00     0.005 C 
HETATM   29  C   UNL     1       6.516  34.032  64.655  1.00  0.00     0.005 C 
BRANCH  27  30
HETATM   30  C   UNL     1       5.721  32.329  59.640  1.00  0.00     0.252 C 
HETATM   31  N   UNL     1       4.434  31.913  59.865  1.00  0.00    -0.366 N 
HETATM   32  H   UNL     1       4.094  31.903  60.819  1.00  0.00     0.159 HD
HETATM   33  H   UNL     1       3.776  32.214  59.156  1.00  0.00     0.159 HD
HETATM   34  O   UNL     1       6.023  32.835  58.566  1.00  0.00    -0.268 OA
ENDBRANCH  27  30
ENDBRANCH   2  21
TORSDOF 6
ENDMDL
MODEL 5
REMARK VINA RESULT:      -9.9      2.164      2.969
REMARK  6 active torsions:
REMARK  status: ('A' for Active; 'I' for Inactive)
REMARK    1  A    between atoms: C_7  and  C_8 
REMARK    2  A    between atoms: C_12  and  S_13 
REMARK    3  A    between atoms: S_13  and  C_14 
REMARK    4  A    between atoms: C_14  and  C_15 
REMARK       I    between atoms: C_15  and  N_16 
REMARK    5  A    between atoms: N_16  and  C_17 
REMARK    6  A    between atoms: C_25  and  C_26 
REMARK       I    between atoms: C_26  and  N_27 
ROOT
HETATM    1  C   UNL     1       7.934  31.670  59.795  1.00  0.00     0.232 C 
HETATM    2  N   UNL     1       7.174  31.199  60.847  1.00  0.00    -0.320 N 
HETATM    3  O   UNL     1       8.603  32.703  59.790  1.00  0.00    -0.272 OA
HETATM    4  H   UNL     1       6.710  30.307  60.700  1.00  0.00     0.169 HD
ENDROOT
BRANCH   1   5
HETATM    5  C   UNL     1       7.990  30.767  58.562  1.00  0.00     0.185 C 
BRANCH   5   6
HETATM    6  S   UNL     1       6.422  30.496  57.680  1.00  0.00    -0.081 SA
BRANCH   6   7
HETATM    7  C   UNL     1       6.806  29.093  56.763  1.00  0.00     0.185 A 
HETATM    8  N   UNL     1       7.246  29.159  55.483  1.00  0.00    -0.253 N 
HETATM    9  N   UNL     1       7.577  27.941  55.031  1.00  0.00    -0.152 NA
HETATM   10  H   UNL     1       7.368  29.971  54.889  1.00  0.00     0.191 HD
HETATM   11  C   UNL     1       7.282  27.153  56.078  1.00  0.00     0.183 A 
HETATM   12  N   UNL     1       6.809  27.854  57.173  1.00  0.00    -0.201 NA
BRANCH  11  13
HETATM   13  C   UNL     1       7.514  25.711  56.147  1.00  0.00     0.035 A 
HETATM   14  C   UNL     1       6.904  24.765  55.305  1.00  0.00     0.049 A 
HETATM   15  C   UNL     1       7.209  23.401  55.429  1.00  0.00     0.048 A 
HETATM   16 CL   UNL     1       5.716  25.163  54.108  1.00  0.00    -0.083 Cl
HETATM   17  C   UNL     1       8.111  22.969  56.395  1.00  0.00     0.035 A 
HETATM   18  C   UNL     1       8.715  23.883  57.250  1.00  0.00     0.025 A 
HETATM   19 CL   UNL     1       8.477  21.295  56.540  1.00  0.00    -0.084 Cl
HETATM   20  C   UNL     1       8.416  25.243  57.126  1.00  0.00     0.019 A 
ENDBRANCH  11  13
ENDBRANCH   6   7
ENDBRANCH   5   6
ENDBRANCH   1   5
BRANCH   2  21
HETATM   21  C   UNL     1       6.809  31.870  62.006  1.00  0.00     0.093 A 
HETATM   22  S   UNL     1       7.951  32.224  63.213  1.00  0.00    -0.075 SA
HETATM   23  C   UNL     1       6.829  33.111  64.119  1.00  0.00    -0.008 A 
HETATM   24  C   UNL     1       5.583  33.151  63.526  1.00  0.00    -0.026 A 
HETATM   25  C   UNL     1       7.207  33.789  65.399  1.00  0.00     0.047 C 
HETATM   26  C   UNL     1       4.433  33.884  64.163  1.00  0.00     0.041 C 
HETATM   27  C   UNL     1       5.546  32.368  62.310  1.00  0.00     0.072 A 
HETATM   28  C   UNL     1       4.901  34.841  65.273  1.00  0.00     0.005 C 
HETATM   29  C   UNL     1       5.949  34.189  66.184  1.00  0.00     0.005 C 
BRANCH  27  30
HETATM   30  C   UNL     1       4.351  32.157  61.493  1.00  0.00     0.252 C 
HETATM   31  N   UNL     1       3.493  31.185  61.941  1.00  0.00    -0.366 N 
HETATM   32  H   UNL     1       3.507  30.952  62.926  1.00  0.00     0.159 HD
HETATM   33  H   UNL     1       2.584  31.203  61.495  1.00  0.00     0.159 HD
HETATM   34  O   UNL     1       4.063  32.821  60.505  1.00  0.00    -0.268 OA
ENDBRANCH  27  30
ENDBRANCH   2  21
TORSDOF 6
ENDMDL
MODEL 6
REMARK VINA RESULT:      -9.8      3.557     10.584
REMARK  6 active torsions:
REMARK  status: ('A' for Active; 'I' for Inactive)
REMARK    1  A    between atoms: C_7  and  C_8 
REMARK    2  A    between atoms: C_12  and  S_13 
REMARK    3  A    between atoms: S_13  and  C_14 
REMARK    4  A    between atoms: C_14  and  C_15 
REMARK       I    between atoms: C_15  and  N_16 
REMARK    5  A    between atoms: N_16  and  C_17 
REMARK    6  A    between atoms: C_25  and  C_26 
REMARK       I    between atoms: C_26  and  N_27 
ROOT
HETATM    1  C   UNL     1       5.986  27.882  55.655  1.00  0.00     0.232 C 
HETATM    2  N   UNL     1       5.570  26.566  55.617  1.00  0.00    -0.320 N 
HETATM    3  O   UNL     1       7.051  28.318  55.217  1.00  0.00    -0.272 OA
HETATM    4  H   UNL     1       4.644  26.378  55.991  1.00  0.00     0.169 HD
ENDROOT
BRANCH   1   5
HETATM    5  C   UNL     1       4.981  28.878  56.234  1.00  0.00     0.185 C 
BRANCH   5   6
HETATM    6  S   UNL     1       5.467  30.631  56.212  1.00  0.00    -0.081 SA
BRANCH   6   7
HETATM    7  C   UNL     1       6.384  30.731  57.662  1.00  0.00     0.185 A 
HETATM    8  N   UNL     1       7.632  30.212  57.771  1.00  0.00    -0.253 N 
HETATM    9  N   UNL     1       8.171  30.516  58.961  1.00  0.00    -0.152 NA
HETATM   10  H   UNL     1       8.166  29.684  57.092  1.00  0.00     0.191 HD
HETATM   11  C   UNL     1       7.183  31.201  59.560  1.00  0.00     0.183 A 
HETATM   12  N   UNL     1       6.063  31.356  58.763  1.00  0.00    -0.201 NA
BRANCH  11  13
HETATM   13  C   UNL     1       7.265  31.832  60.877  1.00  0.00     0.035 A 
HETATM   14  C   UNL     1       8.230  31.519  61.851  1.00  0.00     0.049 A 
HETATM   15  C   UNL     1       8.246  32.197  63.079  1.00  0.00     0.048 A 
HETATM   16 CL   UNL     1       9.420  30.274  61.665  1.00  0.00    -0.083 Cl
HETATM   17  C   UNL     1       7.299  33.180  63.350  1.00  0.00     0.035 A 
HETATM   18  C   UNL     1       6.326  33.495  62.410  1.00  0.00     0.025 A 
HETATM   19 CL   UNL     1       7.327  34.003  64.860  1.00  0.00    -0.084 Cl
HETATM   20  C   UNL     1       6.310  32.824  61.184  1.00  0.00     0.019 A 
ENDBRANCH  11  13
ENDBRANCH   6   7
ENDBRANCH   5   6
ENDBRANCH   1   5
BRANCH   2  21
HETATM   21  C   UNL     1       6.321  25.440  55.308  1.00  0.00     0.093 A 
HETATM   22  S   UNL     1       7.123  24.559  56.519  1.00  0.00    -0.075 SA
HETATM   23  C   UNL     1       7.621  23.366  55.425  1.00  0.00    -0.008 A 
HETATM   24  C   UNL     1       7.192  23.617  54.137  1.00  0.00    -0.026 A 
HETATM   25  C   UNL     1       8.410  22.171  55.864  1.00  0.00     0.047 C 
HETATM   26  C   UNL     1       7.524  22.685  53.003  1.00  0.00     0.041 C 
HETATM   27  C   UNL     1       6.477  24.872  54.048  1.00  0.00     0.072 A 
HETATM   28  C   UNL     1       8.027  21.320  53.505  1.00  0.00     0.005 C 
HETATM   29  C   UNL     1       9.036  21.469  54.650  1.00  0.00     0.005 C 
BRANCH  27  30
HETATM   30  C   UNL     1       5.960  25.447  52.806  1.00  0.00     0.252 C 
HETATM   31  N   UNL     1       4.629  25.227  52.562  1.00  0.00    -0.366 N 
HETATM   32  H   UNL     1       4.022  25.044  53.351  1.00  0.00     0.159 HD
HETATM   33  H   UNL     1       4.246  25.806  51.824  1.00  0.00     0.159 HD
HETATM   34  O   UNL     1       6.619  26.139  52.039  1.00  0.00    -0.268 OA
ENDBRANCH  27  30
ENDBRANCH   2  21
TORSDOF 6
ENDMDL
MODEL 7
REMARK VINA RESULT:      -9.7      4.929      9.781
REMARK  6 active torsions:
REMARK  status: ('A' for Active; 'I' for Inactive)
REMARK    1  A    between atoms: C_7  and  C_8 
REMARK    2  A    between atoms: C_12  and  S_13 
REMARK    3  A    between atoms: S_13  and  C_14 
REMARK    4  A    between atoms: C_14  and  C_15 
REMARK       I    between atoms: C_15  and  N_16 
REMARK    5  A    between atoms: N_16  and  C_17 
REMARK    6  A    between atoms: C_25  and  C_26 
REMARK       I    between atoms: C_26  and  N_27 
ROOT
HETATM    1  C   UNL     1       5.360  25.948  53.024  1.00  0.00     0.232 C 
HETATM    2  N   UNL     1       6.567  25.635  53.618  1.00  0.00    -0.320 N 
HETATM    3  O   UNL     1       4.381  25.207  52.939  1.00  0.00    -0.272 OA
HETATM    4  H   UNL     1       7.262  26.375  53.635  1.00  0.00     0.169 HD
ENDROOT
BRANCH   1   5
HETATM    5  C   UNL     1       5.232  27.377  52.497  1.00  0.00     0.185 C 
BRANCH   5   6
HETATM    6  S   UNL     1       3.991  28.435  53.304  1.00  0.00    -0.081 SA
BRANCH   6   7
HETATM    7  C   UNL     1       4.659  28.573  54.881  1.00  0.00     0.185 A 
HETATM    8  N   UNL     1       4.503  27.611  55.824  1.00  0.00    -0.253 N 
HETATM    9  N   UNL     1       5.207  27.907  56.926  1.00  0.00    -0.152 NA
HETATM   10  H   UNL     1       3.973  26.749  55.777  1.00  0.00     0.191 HD
HETATM   11  C   UNL     1       5.755  29.092  56.610  1.00  0.00     0.183 A 
HETATM   12  N   UNL     1       5.434  29.521  55.334  1.00  0.00    -0.201 NA
BRANCH  11  13
HETATM   13  C   UNL     1       6.686  29.847  57.449  1.00  0.00     0.035 A 
HETATM   14  C   UNL     1       6.326  30.945  58.249  1.00  0.00     0.049 A 
HETATM   15  C   UNL     1       7.285  31.592  59.043  1.00  0.00     0.048 A 
HETATM   16 CL   UNL     1       4.731  31.622  58.298  1.00  0.00    -0.083 Cl
HETATM   17  C   UNL     1       8.607  31.160  59.036  1.00  0.00     0.035 A 
HETATM   18  C   UNL     1       8.991  30.088  58.240  1.00  0.00     0.025 A 
HETATM   19 CL   UNL     1       9.776  31.962  60.010  1.00  0.00    -0.084 Cl
HETATM   20  C   UNL     1       8.037  29.438  57.452  1.00  0.00     0.019 A 
ENDBRANCH  11  13
ENDBRANCH   6   7
ENDBRANCH   5   6
ENDBRANCH   1   5
BRANCH   2  21
HETATM   21  C   UNL     1       7.021  24.388  54.026  1.00  0.00     0.093 A 
HETATM   22  S   UNL     1       7.562  23.238  52.899  1.00  0.00    -0.075 SA
HETATM   23  C   UNL     1       8.045  22.163  54.115  1.00  0.00    -0.008 A 
HETATM   24  C   UNL     1       7.803  22.655  55.382  1.00  0.00    -0.026 A 
HETATM   25  C   UNL     1       8.690  20.850  53.798  1.00  0.00     0.047 C 
HETATM   26  C   UNL     1       8.153  21.862  56.612  1.00  0.00     0.041 C 
HETATM   27  C   UNL     1       7.141  23.941  55.338  1.00  0.00     0.072 A 
HETATM   28  C   UNL     1       9.104  20.695  56.296  1.00  0.00     0.005 C 
HETATM   29  C   UNL     1       8.678  19.937  55.033  1.00  0.00     0.005 C 
BRANCH  27  30
HETATM   30  C   UNL     1       6.691  24.685  56.514  1.00  0.00     0.252 C 
HETATM   31  N   UNL     1       7.639  25.471  57.115  1.00  0.00    -0.366 N 
HETATM   32  H   UNL     1       8.419  25.793  56.555  1.00  0.00     0.159 HD
HETATM   33  H   UNL     1       7.260  26.134  57.782  1.00  0.00     0.159 HD
HETATM   34  O   UNL     1       5.539  24.685  56.931  1.00  0.00    -0.268 OA
ENDBRANCH  27  30
ENDBRANCH   2  21
TORSDOF 6
ENDMDL
MODEL 8
REMARK VINA RESULT:      -9.6      6.903     10.031
REMARK  6 active torsions:
REMARK  status: ('A' for Active; 'I' for Inactive)
REMARK    1  A    between atoms: C_7  and  C_8 
REMARK    2  A    between atoms: C_12  and  S_13 
REMARK    3  A    between atoms: S_13  and  C_14 
REMARK    4  A    between atoms: C_14  and  C_15 
REMARK       I    between atoms: C_15  and  N_16 
REMARK    5  A    between atoms: N_16  and  C_17 
REMARK    6  A    between atoms: C_25  and  C_26 
REMARK       I    between atoms: C_26  and  N_27 
ROOT
HETATM    1  C   UNL     1       5.261  27.918  54.858  1.00  0.00     0.232 C 
HETATM    2  N   UNL     1       5.027  26.557  54.851  1.00  0.00    -0.320 N 
HETATM    3  O   UNL     1       6.324  28.471  54.577  1.00  0.00    -0.272 OA
HETATM    4  H   UNL     1       4.081  26.264  55.073  1.00  0.00     0.169 HD
ENDROOT
BRANCH   1   5
HETATM    5  C   UNL     1       4.052  28.795  55.179  1.00  0.00     0.185 C 
BRANCH   5   6
HETATM    6  S   UNL     1       3.956  30.397  54.320  1.00  0.00    -0.081 SA
BRANCH   6   7
HETATM    7  C   UNL     1       4.203  29.904  52.691  1.00  0.00     0.185 A 
HETATM    8  N   UNL     1       5.305  30.255  51.985  1.00  0.00    -0.253 N 
HETATM    9  N   UNL     1       5.310  29.658  50.784  1.00  0.00    -0.152 NA
HETATM   10  H   UNL     1       6.077  30.852  52.258  1.00  0.00     0.191 HD
HETATM   11  C   UNL     1       4.155  28.973  50.796  1.00  0.00     0.183 A 
HETATM   12  N   UNL     1       3.454  29.105  51.982  1.00  0.00    -0.201 NA
BRANCH  11  13
HETATM   13  C   UNL     1       3.685  28.081  49.737  1.00  0.00     0.035 A 
HETATM   14  C   UNL     1       2.436  28.186  49.102  1.00  0.00     0.049 A 
HETATM   15  C   UNL     1       2.082  27.298  48.074  1.00  0.00     0.048 A 
HETATM   16 CL   UNL     1       1.225  29.345  49.543  1.00  0.00    -0.083 Cl
HETATM   17  C   UNL     1       2.963  26.296  47.681  1.00  0.00     0.035 A 
HETATM   18  C   UNL     1       4.197  26.162  48.304  1.00  0.00     0.025 A 
HETATM   19 CL   UNL     1       2.519  25.212  46.421  1.00  0.00    -0.084 Cl
HETATM   20  C   UNL     1       4.554  27.047  49.324  1.00  0.00     0.019 A 
ENDBRANCH  11  13
ENDBRANCH   6   7
ENDBRANCH   5   6
ENDBRANCH   1   5
BRANCH   2  21
HETATM   21  C   UNL     1       5.958  25.530  54.762  1.00  0.00     0.093 A 
HETATM   22  S   UNL     1       6.790  24.978  56.136  1.00  0.00    -0.075 SA
HETATM   23  C   UNL     1       7.538  23.728  55.272  1.00  0.00    -0.008 A 
HETATM   24  C   UNL     1       7.172  23.712  53.941  1.00  0.00    -0.026 A 
HETATM   25  C   UNL     1       8.461  22.752  55.934  1.00  0.00     0.047 C 
HETATM   26  C   UNL     1       7.721  22.684  52.988  1.00  0.00     0.041 C 
HETATM   27  C   UNL     1       6.288  24.811  53.618  1.00  0.00     0.072 A 
HETATM   28  C   UNL     1       8.381  21.507  53.725  1.00  0.00     0.005 C 
HETATM   29  C   UNL     1       9.271  21.983  54.880  1.00  0.00     0.005 C 
BRANCH  27  30
HETATM   30  C   UNL     1       5.783  25.105  52.276  1.00  0.00     0.252 C 
HETATM   31  N   UNL     1       6.697  25.639  51.405  1.00  0.00    -0.366 N 
HETATM   32  H   UNL     1       7.680  25.457  51.571  1.00  0.00     0.159 HD
HETATM   33  H   UNL     1       6.395  25.632  50.438  1.00  0.00     0.159 HD
HETATM   34  O   UNL     1       4.648  24.850  51.894  1.00  0.00    -0.268 OA
ENDBRANCH  27  30
ENDBRANCH   2  21
TORSDOF 6
ENDMDL
MODEL 9
REMARK VINA RESULT:      -9.6      3.099      4.358
REMARK  6 active torsions:
REMARK  status: ('A' for Active; 'I' for Inactive)
REMARK    1  A    between atoms: C_7  and  C_8 
REMARK    2  A    between atoms: C_12  and  S_13 
REMARK    3  A    between atoms: S_13  and  C_14 
REMARK    4  A    between atoms: C_14  and  C_15 
REMARK       I    between atoms: C_15  and  N_16 
REMARK    5  A    between atoms: N_16  and  C_17 
REMARK    6  A    between atoms: C_25  and  C_26 
REMARK       I    between atoms: C_26  and  N_27 
ROOT
HETATM    1  C   UNL     1       4.635  29.075  55.521  1.00  0.00     0.232 C 
HETATM    2  N   UNL     1       5.359  30.239  55.682  1.00  0.00    -0.320 N 
HETATM    3  O   UNL     1       4.409  28.235  56.393  1.00  0.00    -0.272 OA
HETATM    4  H   UNL     1       5.421  30.844  54.869  1.00  0.00     0.169 HD
ENDROOT
BRANCH   1   5
HETATM    5  C   UNL     1       4.007  28.871  54.142  1.00  0.00     0.185 C 
BRANCH   5   6
HETATM    6  S   UNL     1       5.154  28.553  52.765  1.00  0.00    -0.081 SA
BRANCH   6   7
HETATM    7  C   UNL     1       5.393  26.859  52.928  1.00  0.00     0.185 A 
HETATM    8  N   UNL     1       4.773  25.957  52.129  1.00  0.00    -0.253 N 
HETATM    9  N   UNL     1       5.209  24.715  52.387  1.00  0.00    -0.152 NA
HETATM   10  H   UNL     1       4.089  26.113  51.398  1.00  0.00     0.191 HD
HETATM   11  C   UNL     1       6.080  24.916  53.389  1.00  0.00     0.183 A 
HETATM   12  N   UNL     1       6.218  26.248  53.735  1.00  0.00    -0.201 NA
BRANCH  11  13
HETATM   13  C   UNL     1       6.904  23.883  54.017  1.00  0.00     0.035 A 
HETATM   14  C   UNL     1       6.998  23.673  55.403  1.00  0.00     0.049 A 
HETATM   15  C   UNL     1       7.796  22.638  55.914  1.00  0.00     0.048 A 
HETATM   16 CL   UNL     1       6.210  24.666  56.585  1.00  0.00    -0.083 Cl
HETATM   17  C   UNL     1       8.513  21.815  55.051  1.00  0.00     0.035 A 
HETATM   18  C   UNL     1       8.450  22.014  53.678  1.00  0.00     0.025 A 
HETATM   19 CL   UNL     1       9.490  20.551  55.688  1.00  0.00    -0.084 Cl
HETATM   20  C   UNL     1       7.652  23.041  53.166  1.00  0.00     0.019 A 
ENDBRANCH  11  13
ENDBRANCH   6   7
ENDBRANCH   5   6
ENDBRANCH   1   5
BRANCH   2  21
HETATM   21  C   UNL     1       6.166  30.602  56.752  1.00  0.00     0.093 A 
HETATM   22  S   UNL     1       5.628  31.708  57.924  1.00  0.00    -0.075 SA
HETATM   23  C   UNL     1       7.016  31.495  58.870  1.00  0.00    -0.008 A 
HETATM   24  C   UNL     1       7.901  30.592  58.315  1.00  0.00    -0.026 A 
HETATM   25  C   UNL     1       7.200  32.206  60.175  1.00  0.00     0.047 C 
HETATM   26  C   UNL     1       9.203  30.254  58.989  1.00  0.00     0.041 C 
HETATM   27  C   UNL     1       7.436  30.107  57.034  1.00  0.00     0.072 A 
HETATM   28  C   UNL     1       9.231  30.712  60.457  1.00  0.00     0.005 C 
HETATM   29  C   UNL     1       8.667  32.128  60.624  1.00  0.00     0.005 C 
BRANCH  27  30
HETATM   30  C   UNL     1       8.183  29.196  56.168  1.00  0.00     0.252 C 
HETATM   31  N   UNL     1       7.709  27.910  56.114  1.00  0.00    -0.366 N 
HETATM   32  H   UNL     1       6.732  27.751  56.329  1.00  0.00     0.159 HD
HETATM   33  H   UNL     1       8.099  27.361  55.357  1.00  0.00     0.159 HD
HETATM   34  O   UNL     1       9.135  29.528  55.473  1.00  0.00    -0.268 OA
ENDBRANCH  27  30
ENDBRANCH   2  21
TORSDOF 6
ENDMDL
MODEL 10
REMARK VINA RESULT:      -9.5      4.388     10.520
REMARK  6 active torsions:
REMARK  status: ('A' for Active; 'I' for Inactive)
REMARK    1  A    between atoms: C_7  and  C_8 
REMARK    2  A    between atoms: C_12  and  S_13 
REMARK    3  A    between atoms: S_13  and  C_14 
REMARK    4  A    between atoms: C_14  and  C_15 
REMARK       I    between atoms: C_15  and  N_16 
REMARK    5  A    between atoms: N_16  and  C_17 
REMARK    6  A    between atoms: C_25  and  C_26 
REMARK       I    between atoms: C_26  and  N_27 
ROOT
HETATM    1  C   UNL     1       5.445  27.768  55.573  1.00  0.00     0.232 C 
HETATM    2  N   UNL     1       5.264  26.410  55.750  1.00  0.00    -0.320 N 
HETATM    3  O   UNL     1       6.318  28.298  54.887  1.00  0.00    -0.272 OA
HETATM    4  H   UNL     1       4.470  26.135  56.321  1.00  0.00     0.169 HD
ENDROOT
BRANCH   1   5
HETATM    5  C   UNL     1       4.407  28.667  56.245  1.00  0.00     0.185 C 
BRANCH   5   6
HETATM    6  S   UNL     1       4.083  30.271  55.450  1.00  0.00    -0.081 SA
BRANCH   6   7
HETATM    7  C   UNL     1       4.824  31.343  56.570  1.00  0.00     0.185 A 
HETATM    8  N   UNL     1       4.923  32.676  56.344  1.00  0.00    -0.253 N 
HETATM    9  N   UNL     1       5.441  33.302  57.411  1.00  0.00    -0.152 NA
HETATM   10  H   UNL     1       4.644  33.210  55.530  1.00  0.00     0.191 HD
HETATM   11  C   UNL     1       5.676  32.285  58.258  1.00  0.00     0.183 A 
HETATM   12  N   UNL     1       5.288  31.056  57.756  1.00  0.00    -0.201 NA
BRANCH  11  13
HETATM   13  C   UNL     1       6.189  32.417  59.621  1.00  0.00     0.035 A 
HETATM   14  C   UNL     1       5.409  32.775  60.734  1.00  0.00     0.049 A 
HETATM   15  C   UNL     1       5.985  32.850  62.012  1.00  0.00     0.048 A 
HETATM   16 CL   UNL     1       3.732  33.198  60.641  1.00  0.00    -0.083 Cl
HETATM   17  C   UNL     1       7.339  32.581  62.187  1.00  0.00     0.035 A 
HETATM   18  C   UNL     1       8.133  32.241  61.100  1.00  0.00     0.025 A 
HETATM   19 CL   UNL     1       8.035  32.678  63.757  1.00  0.00    -0.084 Cl
HETATM   20  C   UNL     1       7.562  32.161  59.827  1.00  0.00     0.019 A 
ENDBRANCH  11  13
ENDBRANCH   6   7
ENDBRANCH   5   6
ENDBRANCH   1   5
BRANCH   2  21
HETATM   21  C   UNL     1       6.129  25.380  55.405  1.00  0.00     0.093 A 
HETATM   22  S   UNL     1       7.134  24.652  56.565  1.00  0.00    -0.075 SA
HETATM   23  C   UNL     1       7.695  23.496  55.463  1.00  0.00    -0.008 A 
HETATM   24  C   UNL     1       7.135  23.644  54.210  1.00  0.00    -0.026 A 
HETATM   25  C   UNL     1       8.666  22.429  55.862  1.00  0.00     0.047 C 
HETATM   26  C   UNL     1       7.494  22.724  53.075  1.00  0.00     0.041 C 
HETATM   27  C   UNL     1       6.256  24.793  54.151  1.00  0.00     0.072 A 
HETATM   28  C   UNL     1       8.210  21.454  53.565  1.00  0.00     0.005 C 
HETATM   29  C   UNL     1       9.279  21.771  54.617  1.00  0.00     0.005 C 
BRANCH  27  30
HETATM   30  C   UNL     1       5.570  25.254  52.944  1.00  0.00     0.252 C 
HETATM   31  N   UNL     1       4.230  24.974  52.883  1.00  0.00    -0.366 N 
HETATM   32  H   UNL     1       3.730  24.834  53.752  1.00  0.00     0.159 HD
HETATM   33  H   UNL     1       3.738  25.482  52.157  1.00  0.00     0.159 HD
HETATM   34  O   UNL     1       6.103  25.903  52.052  1.00  0.00    -0.268 OA
ENDBRANCH  27  30
ENDBRANCH   2  21
TORSDOF 6
ENDMDL
