MODEL 1
REMARK VINA RESULT:      -8.7      0.000      0.000
REMARK  6 active torsions:
REMARK  status: ('A' for Active; 'I' for Inactive)
REMARK    1  A    between atoms: N_2  and  C_4 
REMARK    2  A    between atoms: N_2  and  C_14 
REMARK    3  A    between atoms: C_5  and  O_6 
REMARK    4  A    between atoms: C_14  and  C_15 
REMARK    5  A    between atoms: C_15  and  O_16 
REMARK    6  A    between atoms: C_15  and  C_17 
ROOT
HETATM    1  C   UNL     1       6.254  26.897  53.320  1.00  0.00     0.270 C 
HETATM    2  N   UNL     1       6.935  26.488  54.599  1.00  0.00    -0.065 N 
HETATM    3  H   UNL     1       6.214  26.244  55.299  1.00  0.00     0.280 HD
ENDROOT
BRANCH   2   4
HETATM    4  C   UNL     1       7.775  25.204  54.492  1.00  0.00     0.225 C 
HETATM    5  C   UNL     1       7.441  24.246  55.685  1.00  0.00     0.183 C 
HETATM    6  C   UNL     1       7.657  22.898  55.081  1.00  0.00    -0.021 A 
HETATM    7  C   UNL     1       7.667  22.976  53.685  1.00  0.00    -0.047 A 
HETATM    8  C   UNL     1       7.811  21.684  55.731  1.00  0.00     0.010 A 
HETATM    9  C   UNL     1       7.432  24.380  53.223  1.00  0.00     0.075 C 
HETATM   10  C   UNL     1       7.819  21.842  52.907  1.00  0.00     0.008 A 
HETATM   11  C   UNL     1       7.981  20.615  53.553  1.00  0.00     0.001 A 
HETATM   12  C   UNL     1       7.978  20.536  54.954  1.00  0.00     0.001 A 
BRANCH   5  13
HETATM   13  O   UNL     1       6.070  24.435  56.058  1.00  0.00    -0.389 OA
HETATM   14  H   UNL     1       5.600  24.756  55.262  1.00  0.00     0.210 HD
ENDBRANCH   5  13
ENDBRANCH   2   4
BRANCH   2  15
HETATM   15  C   UNL     1       7.746  27.647  55.210  1.00  0.00     0.271 C 
BRANCH  15  16
HETATM   16  C   UNL     1       7.968  27.481  56.735  1.00  0.00     0.177 C 
BRANCH  16  17
HETATM   17  O   UNL     1       6.725  27.244  57.394  1.00  0.00    -0.389 OA
HETATM   18  H   UNL     1       6.243  26.568  56.879  1.00  0.00     0.210 HD
ENDBRANCH  16  17
BRANCH  16  19
HETATM   19  C   UNL     1       8.628  28.706  57.329  1.00  0.00    -0.028 A 
HETATM   20  C   UNL     1       7.998  29.414  58.367  1.00  0.00     0.013 A 
HETATM   21  C   UNL     1       8.607  30.538  58.928  1.00  0.00     0.043 A 
HETATM   22  C   UNL     1       9.844  30.957  58.458  1.00  0.00     0.116 A 
HETATM   23  F   UNL     1      10.426  32.034  58.999  1.00  0.00    -0.206 F 
HETATM   24  C   UNL     1      10.487  30.274  57.433  1.00  0.00     0.043 A 
HETATM   25  C   UNL     1       9.883  29.149  56.868  1.00  0.00     0.013 A 
ENDBRANCH  16  19
ENDBRANCH  15  16
ENDBRANCH   2  15
TORSDOF 6
ENDMDL
MODEL 2
REMARK VINA RESULT:      -8.3      4.050      7.213
REMARK  6 active torsions:
REMARK  status: ('A' for Active; 'I' for Inactive)
REMARK    1  A    between atoms: N_2  and  C_4 
REMARK    2  A    between atoms: N_2  and  C_14 
REMARK    3  A    between atoms: C_5  and  O_6 
REMARK    4  A    between atoms: C_14  and  C_15 
REMARK    5  A    between atoms: C_15  and  O_16 
REMARK    6  A    between atoms: C_15  and  C_17 
ROOT
HETATM    1  C   UNL     1       5.830  27.789  55.294  1.00  0.00     0.270 C 
HETATM    2  N   UNL     1       6.122  26.527  54.526  1.00  0.00    -0.065 N 
HETATM    3  H   UNL     1       5.292  25.911  54.566  1.00  0.00     0.280 HD
ENDROOT
BRANCH   2   4
HETATM    4  C   UNL     1       6.339  26.733  53.018  1.00  0.00     0.225 C 
HETATM    5  C   UNL     1       5.361  25.816  52.208  1.00  0.00     0.183 C 
HETATM    6  C   UNL     1       5.122  26.620  50.972  1.00  0.00    -0.021 A 
HETATM    7  C   UNL     1       5.491  27.954  51.169  1.00  0.00    -0.047 A 
HETATM    8  C   UNL     1       4.590  26.196  49.765  1.00  0.00     0.010 A 
HETATM    9  C   UNL     1       5.988  28.175  52.563  1.00  0.00     0.075 C 
HETATM   10  C   UNL     1       5.326  28.896  50.169  1.00  0.00     0.008 A 
HETATM   11  C   UNL     1       4.798  28.476  48.947  1.00  0.00     0.001 A 
HETATM   12  C   UNL     1       4.433  27.137  48.746  1.00  0.00     0.001 A 
BRANCH   5  13
HETATM   13  O   UNL     1       4.154  25.650  52.961  1.00  0.00    -0.389 OA
HETATM   14  H   UNL     1       4.395  25.177  53.784  1.00  0.00     0.210 HD
ENDBRANCH   5  13
ENDBRANCH   2   4
BRANCH   2  15
HETATM   15  C   UNL     1       7.275  25.726  55.162  1.00  0.00     0.271 C 
BRANCH  15  16
HETATM   16  C   UNL     1       6.798  24.396  55.798  1.00  0.00     0.177 C 
BRANCH  16  17
HETATM   17  O   UNL     1       7.255  24.300  57.147  1.00  0.00    -0.389 OA
HETATM   18  H   UNL     1       6.631  24.806  57.705  1.00  0.00     0.210 HD
ENDBRANCH  16  17
BRANCH  16  19
HETATM   19  C   UNL     1       7.297  23.203  55.011  1.00  0.00    -0.028 A 
HETATM   20  C   UNL     1       7.559  21.987  55.665  1.00  0.00     0.013 A 
HETATM   21  C   UNL     1       8.007  20.879  54.942  1.00  0.00     0.043 A 
HETATM   22  C   UNL     1       8.193  20.981  53.570  1.00  0.00     0.116 A 
HETATM   23  F   UNL     1       8.621  19.916  52.882  1.00  0.00    -0.206 F 
HETATM   24  C   UNL     1       7.941  22.172  52.903  1.00  0.00     0.043 A 
HETATM   25  C   UNL     1       7.492  23.284  53.619  1.00  0.00     0.013 A 
ENDBRANCH  16  19
ENDBRANCH  15  16
ENDBRANCH   2  15
TORSDOF 6
ENDMDL
MODEL 3
REMARK VINA RESULT:      -8.3      3.182      7.725
REMARK  6 active torsions:
REMARK  status: ('A' for Active; 'I' for Inactive)
REMARK    1  A    between atoms: N_2  and  C_4 
REMARK    2  A    between atoms: N_2  and  C_14 
REMARK    3  A    between atoms: C_5  and  O_6 
REMARK    4  A    between atoms: C_14  and  C_15 
REMARK    5  A    between atoms: C_15  and  O_16 
REMARK    6  A    between atoms: C_15  and  C_17 
ROOT
HETATM    1  C   UNL     1       4.858  27.395  56.398  1.00  0.00     0.270 C 
HETATM    2  N   UNL     1       6.137  26.894  55.782  1.00  0.00    -0.065 N 
HETATM    3  H   UNL     1       6.251  27.326  54.849  1.00  0.00     0.280 HD
ENDROOT
BRANCH   2   4
HETATM    4  C   UNL     1       7.414  27.318  56.527  1.00  0.00     0.225 C 
HETATM    5  C   UNL     1       8.374  28.079  55.552  1.00  0.00     0.183 C 
HETATM    6  C   UNL     1       9.072  29.028  56.470  1.00  0.00    -0.021 A 
HETATM    7  C   UNL     1       8.371  29.163  57.671  1.00  0.00    -0.047 A 
HETATM    8  C   UNL     1      10.239  29.740  56.239  1.00  0.00     0.010 A 
HETATM    9  C   UNL     1       7.123  28.336  57.662  1.00  0.00     0.075 C 
HETATM   10  C   UNL     1       8.812  30.019  58.664  1.00  0.00     0.008 A 
HETATM   11  C   UNL     1       9.990  30.735  58.443  1.00  0.00     0.001 A 
HETATM   12  C   UNL     1      10.698  30.596  57.240  1.00  0.00     0.001 A 
BRANCH   5  13
HETATM   13  O   UNL     1       7.586  28.779  54.582  1.00  0.00    -0.389 OA
HETATM   14  H   UNL     1       6.744  29.021  55.019  1.00  0.00     0.210 HD
ENDBRANCH   5  13
ENDBRANCH   2   4
BRANCH   2  15
HETATM   15  C   UNL     1       6.098  25.372  55.542  1.00  0.00     0.271 C 
BRANCH  15  16
HETATM   16  C   UNL     1       6.753  24.963  54.199  1.00  0.00     0.177 C 
BRANCH  16  17
HETATM   17  O   UNL     1       5.817  25.101  53.129  1.00  0.00    -0.389 OA
HETATM   18  H   UNL     1       5.065  25.629  53.463  1.00  0.00     0.210 HD
ENDBRANCH  16  17
BRANCH  16  19
HETATM   19  C   UNL     1       7.255  23.536  54.247  1.00  0.00    -0.028 A 
HETATM   20  C   UNL     1       7.638  22.883  53.063  1.00  0.00     0.013 A 
HETATM   21  C   UNL     1       8.115  21.571  53.102  1.00  0.00     0.043 A 
HETATM   22  C   UNL     1       8.212  20.910  54.319  1.00  0.00     0.116 A 
HETATM   23  F   UNL     1       8.671  19.653  54.353  1.00  0.00    -0.206 F 
HETATM   24  C   UNL     1       7.840  21.535  55.502  1.00  0.00     0.043 A 
HETATM   25  C   UNL     1       7.363  22.847  55.470  1.00  0.00     0.013 A 
ENDBRANCH  16  19
ENDBRANCH  15  16
ENDBRANCH   2  15
TORSDOF 6
ENDMDL
MODEL 4
REMARK VINA RESULT:      -8.1      3.295      7.944
REMARK  6 active torsions:
REMARK  status: ('A' for Active; 'I' for Inactive)
REMARK    1  A    between atoms: N_2  and  C_4 
REMARK    2  A    between atoms: N_2  and  C_14 
REMARK    3  A    between atoms: C_5  and  O_6 
REMARK    4  A    between atoms: C_14  and  C_15 
REMARK    5  A    between atoms: C_15  and  O_16 
REMARK    6  A    between atoms: C_15  and  C_17 
ROOT
HETATM    1  C   UNL     1       6.306  26.845  54.523  1.00  0.00     0.270 C 
HETATM    2  N   UNL     1       6.793  26.395  55.874  1.00  0.00    -0.065 N 
HETATM    3  H   UNL     1       7.827  26.359  55.863  1.00  0.00     0.280 HD
ENDROOT
BRANCH   2   4
HETATM    4  C   UNL     1       6.484  27.370  57.023  1.00  0.00     0.225 C 
HETATM    5  C   UNL     1       7.817  27.839  57.698  1.00  0.00     0.183 C 
HETATM    6  C   UNL     1       7.474  29.218  58.156  1.00  0.00    -0.021 A 
HETATM    7  C   UNL     1       6.333  29.689  57.499  1.00  0.00    -0.047 A 
HETATM    8  C   UNL     1       8.146  30.006  59.077  1.00  0.00     0.010 A 
HETATM    9  C   UNL     1       5.821  28.680  56.520  1.00  0.00     0.075 C 
HETATM   10  C   UNL     1       5.845  30.961  57.738  1.00  0.00     0.008 A 
HETATM   11  C   UNL     1       6.512  31.760  58.669  1.00  0.00     0.001 A 
HETATM   12  C   UNL     1       7.652  31.286  59.335  1.00  0.00     0.001 A 
BRANCH   5  13
HETATM   13  O   UNL     1       8.853  27.863  56.708  1.00  0.00    -0.389 OA
HETATM   14  H   UNL     1       9.474  27.138  56.928  1.00  0.00     0.210 HD
ENDBRANCH   5  13
ENDBRANCH   2   4
BRANCH   2  15
HETATM   15  C   UNL     1       6.323  24.964  56.203  1.00  0.00     0.271 C 
BRANCH  15  16
HETATM   16  C   UNL     1       7.501  24.003  56.504  1.00  0.00     0.177 C 
BRANCH  16  17
HETATM   17  O   UNL     1       8.720  24.737  56.630  1.00  0.00    -0.389 OA
HETATM   18  H   UNL     1       8.930  25.111  55.752  1.00  0.00     0.210 HD
ENDBRANCH  16  17
BRANCH  16  19
HETATM   19  C   UNL     1       7.650  22.963  55.415  1.00  0.00    -0.028 A 
HETATM   20  C   UNL     1       7.676  23.353  54.065  1.00  0.00     0.013 A 
HETATM   21  C   UNL     1       7.826  22.399  53.056  1.00  0.00     0.043 A 
HETATM   22  C   UNL     1       7.953  21.058  53.391  1.00  0.00     0.116 A 
HETATM   23  F   UNL     1       8.097  20.147  52.421  1.00  0.00    -0.206 F 
HETATM   24  C   UNL     1       7.930  20.648  54.717  1.00  0.00     0.043 A 
HETATM   25  C   UNL     1       7.780  21.597  55.731  1.00  0.00     0.013 A 
ENDBRANCH  16  19
ENDBRANCH  15  16
ENDBRANCH   2  15
TORSDOF 6
ENDMDL
MODEL 5
REMARK VINA RESULT:      -8.1      4.290      6.566
REMARK  6 active torsions:
REMARK  status: ('A' for Active; 'I' for Inactive)
REMARK    1  A    between atoms: N_2  and  C_4 
REMARK    2  A    between atoms: N_2  and  C_14 
REMARK    3  A    between atoms: C_5  and  O_6 
REMARK    4  A    between atoms: C_14  and  C_15 
REMARK    5  A    between atoms: C_15  and  O_16 
REMARK    6  A    between atoms: C_15  and  C_17 
ROOT
HETATM    1  C   UNL     1       6.996  26.904  55.302  1.00  0.00     0.270 C 
HETATM    2  N   UNL     1       6.582  26.251  54.010  1.00  0.00    -0.065 N 
HETATM    3  H   UNL     1       7.349  26.352  53.323  1.00  0.00     0.280 HD
ENDROOT
BRANCH   2   4
HETATM    4  C   UNL     1       6.383  24.729  54.098  1.00  0.00     0.225 C 
HETATM    5  C   UNL     1       7.114  24.025  52.905  1.00  0.00     0.183 C 
HETATM    6  C   UNL     1       7.499  22.710  53.500  1.00  0.00    -0.021 A 
HETATM    7  C   UNL     1       7.442  22.761  54.896  1.00  0.00    -0.047 A 
HETATM    8  C   UNL     1       7.896  21.557  52.842  1.00  0.00     0.010 A 
HETATM    9  C   UNL     1       7.037  24.122  55.368  1.00  0.00     0.075 C 
HETATM   10  C   UNL     1       7.790  21.666  55.666  1.00  0.00     0.008 A 
HETATM   11  C   UNL     1       8.185  20.497  55.011  1.00  0.00     0.001 A 
HETATM   12  C   UNL     1       8.236  20.443  53.610  1.00  0.00     0.001 A 
BRANCH   5  13
HETATM   13  O   UNL     1       8.269  24.795  52.553  1.00  0.00    -0.389 OA
HETATM   14  H   UNL     1       8.386  25.470  53.252  1.00  0.00     0.210 HD
ENDBRANCH   5  13
ENDBRANCH   2   4
BRANCH   2  15
HETATM   15  C   UNL     1       5.358  26.948  53.385  1.00  0.00     0.271 C 
BRANCH  15  16
HETATM   16  C   UNL     1       5.742  27.902  52.226  1.00  0.00     0.177 C 
BRANCH  16  17
HETATM   17  O   UNL     1       5.583  29.262  52.629  1.00  0.00    -0.389 OA
HETATM   18  H   UNL     1       6.434  29.559  53.006  1.00  0.00     0.210 HD
ENDBRANCH  16  17
BRANCH  16  19
HETATM   19  C   UNL     1       4.897  27.639  50.998  1.00  0.00    -0.028 A 
HETATM   20  C   UNL     1       3.999  28.617  50.537  1.00  0.00     0.013 A 
HETATM   21  C   UNL     1       3.226  28.385  49.397  1.00  0.00     0.043 A 
HETATM   22  C   UNL     1       3.349  27.182  48.715  1.00  0.00     0.116 A 
HETATM   23  F   UNL     1       2.607  26.964  47.622  1.00  0.00    -0.206 F 
HETATM   24  C   UNL     1       4.230  26.201  49.151  1.00  0.00     0.043 A 
HETATM   25  C   UNL     1       5.005  26.427  50.290  1.00  0.00     0.013 A 
ENDBRANCH  16  19
ENDBRANCH  15  16
ENDBRANCH   2  15
TORSDOF 6
ENDMDL
MODEL 6
REMARK VINA RESULT:      -8.0      3.398      7.720
REMARK  6 active torsions:
REMARK  status: ('A' for Active; 'I' for Inactive)
REMARK    1  A    between atoms: N_2  and  C_4 
REMARK    2  A    between atoms: N_2  and  C_14 
REMARK    3  A    between atoms: C_5  and  O_6 
REMARK    4  A    between atoms: C_14  and  C_15 
REMARK    5  A    between atoms: C_15  and  O_16 
REMARK    6  A    between atoms: C_15  and  C_17 
ROOT
HETATM    1  C   UNL     1       5.896  24.860  56.809  1.00  0.00     0.270 C 
HETATM    2  N   UNL     1       5.663  25.827  55.679  1.00  0.00    -0.065 N 
HETATM    3  H   UNL     1       4.654  26.055  55.636  1.00  0.00     0.280 HD
ENDROOT
BRANCH   2   4
HETATM    4  C   UNL     1       6.329  27.201  55.866  1.00  0.00     0.225 C 
HETATM    5  C   UNL     1       5.233  28.305  56.051  1.00  0.00     0.183 C 
HETATM    6  C   UNL     1       5.921  29.290  56.938  1.00  0.00    -0.021 A 
HETATM    7  C   UNL     1       7.031  28.709  57.558  1.00  0.00    -0.047 A 
HETATM    8  C   UNL     1       5.567  30.606  57.192  1.00  0.00     0.010 A 
HETATM    9  C   UNL     1       7.177  27.273  57.164  1.00  0.00     0.075 C 
HETATM   10  C   UNL     1       7.806  29.424  58.453  1.00  0.00     0.008 A 
HETATM   11  C   UNL     1       7.461  30.753  58.711  1.00  0.00     0.001 A 
HETATM   12  C   UNL     1       6.351  31.339  58.084  1.00  0.00     0.001 A 
BRANCH   5  13
HETATM   13  O   UNL     1       4.098  27.724  56.703  1.00  0.00    -0.389 OA
HETATM   14  H   UNL     1       3.302  28.044  56.230  1.00  0.00     0.210 HD
ENDBRANCH   5  13
ENDBRANCH   2   4
BRANCH   2  15
HETATM   15  C   UNL     1       6.016  25.207  54.314  1.00  0.00     0.271 C 
BRANCH  15  16
HETATM   16  C   UNL     1       7.545  25.076  54.096  1.00  0.00     0.177 C 
BRANCH  16  17
HETATM   17  O   UNL     1       7.923  25.678  52.858  1.00  0.00    -0.389 OA
HETATM   18  H   UNL     1       8.841  25.997  52.954  1.00  0.00     0.210 HD
ENDBRANCH  16  17
BRANCH  16  19
HETATM   19  C   UNL     1       7.977  23.625  54.103  1.00  0.00    -0.028 A 
HETATM   20  C   UNL     1       7.614  22.776  53.043  1.00  0.00     0.013 A 
HETATM   21  C   UNL     1       8.020  21.440  53.037  1.00  0.00     0.043 A 
HETATM   22  C   UNL     1       8.787  20.949  54.084  1.00  0.00     0.116 A 
HETATM   23  F   UNL     1       9.175  19.668  54.074  1.00  0.00    -0.206 F 
HETATM   24  C   UNL     1       9.158  21.768  55.143  1.00  0.00     0.043 A 
HETATM   25  C   UNL     1       8.755  23.106  55.154  1.00  0.00     0.013 A 
ENDBRANCH  16  19
ENDBRANCH  15  16
ENDBRANCH   2  15
TORSDOF 6
ENDMDL
MODEL 7
REMARK VINA RESULT:      -8.0      1.565      2.263
REMARK  6 active torsions:
REMARK  status: ('A' for Active; 'I' for Inactive)
REMARK    1  A    between atoms: N_2  and  C_4 
REMARK    2  A    between atoms: N_2  and  C_14 
REMARK    3  A    between atoms: C_5  and  O_6 
REMARK    4  A    between atoms: C_14  and  C_15 
REMARK    5  A    between atoms: C_15  and  O_16 
REMARK    6  A    between atoms: C_15  and  C_17 
ROOT
HETATM    1  C   UNL     1       6.346  28.365  55.363  1.00  0.00     0.270 C 
HETATM    2  N   UNL     1       6.784  27.318  56.352  1.00  0.00    -0.065 N 
HETATM    3  H   UNL     1       5.947  26.830  56.716  1.00  0.00     0.280 HD
ENDROOT
BRANCH   2   4
HETATM    4  C   UNL     1       7.623  26.180  55.748  1.00  0.00     0.225 C 
HETATM    5  C   UNL     1       7.212  24.813  56.392  1.00  0.00     0.183 C 
HETATM    6  C   UNL     1       7.459  23.849  55.279  1.00  0.00    -0.021 A 
HETATM    7  C   UNL     1       7.554  24.519  54.055  1.00  0.00    -0.047 A 
HETATM    8  C   UNL     1       7.567  22.469  55.349  1.00  0.00     0.010 A 
HETATM    9  C   UNL     1       7.355  25.992  54.231  1.00  0.00     0.075 C 
HETATM   10  C   UNL     1       7.748  23.826  52.874  1.00  0.00     0.008 A 
HETATM   11  C   UNL     1       7.866  22.436  52.936  1.00  0.00     0.001 A 
HETATM   12  C   UNL     1       7.777  21.763  54.164  1.00  0.00     0.001 A 
BRANCH   5  13
HETATM   13  O   UNL     1       5.822  24.864  56.737  1.00  0.00    -0.389 OA
HETATM   14  H   UNL     1       5.696  24.268  57.503  1.00  0.00     0.210 HD
ENDBRANCH   5  13
ENDBRANCH   2   4
BRANCH   2  15
HETATM   15  C   UNL     1       7.476  27.945  57.578  1.00  0.00     0.271 C 
BRANCH  15  16
HETATM   16  C   UNL     1       8.398  29.132  57.201  1.00  0.00     0.177 C 
BRANCH  16  17
HETATM   17  O   UNL     1       9.749  28.689  57.074  1.00  0.00    -0.389 OA
HETATM   18  H   UNL     1      10.086  28.511  57.974  1.00  0.00     0.210 HD
ENDBRANCH  16  17
BRANCH  16  19
HETATM   19  C   UNL     1       8.323  30.233  58.237  1.00  0.00    -0.028 A 
HETATM   20  C   UNL     1       9.491  30.673  58.883  1.00  0.00     0.013 A 
HETATM   21  C   UNL     1       9.431  31.697  59.831  1.00  0.00     0.043 A 
HETATM   22  C   UNL     1       8.211  32.285  60.133  1.00  0.00     0.116 A 
HETATM   23  F   UNL     1       8.157  33.267  61.040  1.00  0.00    -0.206 F 
HETATM   24  C   UNL     1       7.043  31.867  59.507  1.00  0.00     0.043 A 
HETATM   25  C   UNL     1       7.097  30.844  58.558  1.00  0.00     0.013 A 
ENDBRANCH  16  19
ENDBRANCH  15  16
ENDBRANCH   2  15
TORSDOF 6
ENDMDL
MODEL 8
REMARK VINA RESULT:      -7.9      5.405      8.033
REMARK  6 active torsions:
REMARK  status: ('A' for Active; 'I' for Inactive)
REMARK    1  A    between atoms: N_2  and  C_4 
REMARK    2  A    between atoms: N_2  and  C_14 
REMARK    3  A    between atoms: C_5  and  O_6 
REMARK    4  A    between atoms: C_14  and  C_15 
REMARK    5  A    between atoms: C_15  and  O_16 
REMARK    6  A    between atoms: C_15  and  C_17 
ROOT
HETATM    1  C   UNL     1       5.873  27.946  53.477  1.00  0.00     0.270 C 
HETATM    2  N   UNL     1       5.815  26.914  52.382  1.00  0.00    -0.065 N 
HETATM    3  H   UNL     1       6.690  26.960  51.832  1.00  0.00     0.280 HD
ENDROOT
BRANCH   2   4
HETATM    4  C   UNL     1       5.784  25.458  52.878  1.00  0.00     0.225 C 
HETATM    5  C   UNL     1       6.846  24.608  52.103  1.00  0.00     0.183 C 
HETATM    6  C   UNL     1       7.239  23.587  53.120  1.00  0.00    -0.021 A 
HETATM    7  C   UNL     1       6.858  23.992  54.403  1.00  0.00    -0.047 A 
HETATM    8  C   UNL     1       7.910  22.391  52.917  1.00  0.00     0.010 A 
HETATM    9  C   UNL     1       6.198  25.335  54.369  1.00  0.00     0.075 C 
HETATM   10  C   UNL     1       7.149  23.219  55.512  1.00  0.00     0.008 A 
HETATM   11  C   UNL     1       7.819  22.010  55.317  1.00  0.00     0.001 A 
HETATM   12  C   UNL     1       8.196  21.599  54.030  1.00  0.00     0.001 A 
BRANCH   5  13
HETATM   13  O   UNL     1       7.952  25.451  51.760  1.00  0.00    -0.389 OA
HETATM   14  H   UNL     1       8.579  25.419  52.511  1.00  0.00     0.210 HD
ENDBRANCH   5  13
ENDBRANCH   2   4
BRANCH   2  15
HETATM   15  C   UNL     1       4.673  27.200  51.388  1.00  0.00     0.271 C 
BRANCH  15  16
HETATM   16  C   UNL     1       5.107  27.015  49.912  1.00  0.00     0.177 C 
BRANCH  16  17
HETATM   17  O   UNL     1       5.973  28.078  49.514  1.00  0.00    -0.389 OA
HETATM   18  H   UNL     1       6.173  28.609  50.310  1.00  0.00     0.210 HD
ENDBRANCH  16  17
BRANCH  16  19
HETATM   19  C   UNL     1       3.908  26.971  48.990  1.00  0.00    -0.028 A 
HETATM   20  C   UNL     1       3.812  25.971  48.006  1.00  0.00     0.013 A 
HETATM   21  C   UNL     1       2.701  25.916  47.161  1.00  0.00     0.043 A 
HETATM   22  C   UNL     1       1.687  26.854  47.296  1.00  0.00     0.116 A 
HETATM   23  F   UNL     1       0.624  26.797  46.485  1.00  0.00    -0.206 F 
HETATM   24  C   UNL     1       1.759  27.850  48.261  1.00  0.00     0.043 A 
HETATM   25  C   UNL     1       2.867  27.910  49.109  1.00  0.00     0.013 A 
ENDBRANCH  16  19
ENDBRANCH  15  16
ENDBRANCH   2  15
TORSDOF 6
ENDMDL
MODEL 9
REMARK VINA RESULT:      -7.9      4.030      5.922
REMARK  6 active torsions:
REMARK  status: ('A' for Active; 'I' for Inactive)
REMARK    1  A    between atoms: N_2  and  C_4 
REMARK    2  A    between atoms: N_2  and  C_14 
REMARK    3  A    between atoms: C_5  and  O_6 
REMARK    4  A    between atoms: C_14  and  C_15 
REMARK    5  A    between atoms: C_15  and  O_16 
REMARK    6  A    between atoms: C_15  and  C_17 
ROOT
HETATM    1  C   UNL     1       7.267  26.854  54.567  1.00  0.00     0.270 C 
HETATM    2  N   UNL     1       6.723  25.761  53.686  1.00  0.00    -0.065 N 
HETATM    3  H   UNL     1       7.398  25.578  52.924  1.00  0.00     0.280 HD
ENDROOT
BRANCH   2   4
HETATM    4  C   UNL     1       6.586  24.393  54.375  1.00  0.00     0.225 C 
HETATM    5  C   UNL     1       7.141  23.266  53.440  1.00  0.00     0.183 C 
HETATM    6  C   UNL     1       7.654  22.263  54.420  1.00  0.00    -0.021 A 
HETATM    7  C   UNL     1       7.815  22.841  55.683  1.00  0.00    -0.047 A 
HETATM    8  C   UNL     1       7.977  20.934  54.195  1.00  0.00     0.010 A 
HETATM    9  C   UNL     1       7.449  24.292  55.661  1.00  0.00     0.075 C 
HETATM   10  C   UNL     1       8.312  22.109  56.746  1.00  0.00     0.008 A 
HETATM   11  C   UNL     1       8.634  20.768  56.531  1.00  0.00     0.001 A 
HETATM   12  C   UNL     1       8.466  20.184  55.266  1.00  0.00     0.001 A 
BRANCH   5  13
HETATM   13  O   UNL     1       8.203  23.807  52.645  1.00  0.00    -0.389 OA
HETATM   14  H   UNL     1       8.105  23.433  51.746  1.00  0.00     0.210 HD
ENDBRANCH   5  13
ENDBRANCH   2   4
BRANCH   2  15
HETATM   15  C   UNL     1       5.411  26.183  52.997  1.00  0.00     0.271 C 
BRANCH  15  16
HETATM   16  C   UNL     1       5.497  26.107  51.451  1.00  0.00     0.177 C 
BRANCH  16  17
HETATM   17  O   UNL     1       6.752  25.557  51.051  1.00  0.00    -0.389 OA
HETATM   18  H   UNL     1       6.567  24.754  50.526  1.00  0.00     0.210 HD
ENDBRANCH  16  17
BRANCH  16  19
HETATM   19  C   UNL     1       5.323  27.473  50.825  1.00  0.00    -0.028 A 
HETATM   20  C   UNL     1       4.968  27.588  49.470  1.00  0.00     0.013 A 
HETATM   21  C   UNL     1       4.793  28.846  48.889  1.00  0.00     0.043 A 
HETATM   22  C   UNL     1       4.970  29.989  49.657  1.00  0.00     0.116 A 
HETATM   23  F   UNL     1       4.800  31.193  49.097  1.00  0.00    -0.206 F 
HETATM   24  C   UNL     1       5.320  29.901  50.998  1.00  0.00     0.043 A 
HETATM   25  C   UNL     1       5.496  28.646  51.584  1.00  0.00     0.013 A 
ENDBRANCH  16  19
ENDBRANCH  15  16
ENDBRANCH   2  15
TORSDOF 6
ENDMDL
MODEL 10
REMARK VINA RESULT:      -7.9      1.832      2.567
REMARK  6 active torsions:
REMARK  status: ('A' for Active; 'I' for Inactive)
REMARK    1  A    between atoms: N_2  and  C_4 
REMARK    2  A    between atoms: N_2  and  C_14 
REMARK    3  A    between atoms: C_5  and  O_6 
REMARK    4  A    between atoms: C_14  and  C_15 
REMARK    5  A    between atoms: C_15  and  O_16 
REMARK    6  A    between atoms: C_15  and  C_17 
ROOT
HETATM    1  C   UNL     1       7.610  27.339  53.951  1.00  0.00     0.270 C 
HETATM    2  N   UNL     1       6.333  26.546  54.016  1.00  0.00    -0.065 N 
HETATM    3  H   UNL     1       5.927  26.486  53.066  1.00  0.00     0.280 HD
ENDROOT
BRANCH   2   4
HETATM    4  C   UNL     1       6.515  25.072  54.416  1.00  0.00     0.225 C 
HETATM    5  C   UNL     1       6.572  24.173  53.135  1.00  0.00     0.183 C 
HETATM    6  C   UNL     1       7.469  23.060  53.567  1.00  0.00    -0.021 A 
HETATM    7  C   UNL     1       8.194  23.421  54.706  1.00  0.00    -0.047 A 
HETATM    8  C   UNL     1       7.643  21.821  52.970  1.00  0.00     0.010 A 
HETATM    9  C   UNL     1       7.870  24.819  55.130  1.00  0.00     0.075 C 
HETATM   10  C   UNL     1       9.117  22.557  55.269  1.00  0.00     0.008 A 
HETATM   11  C   UNL     1       9.294  21.305  54.679  1.00  0.00     0.001 A 
HETATM   12  C   UNL     1       8.562  20.939  53.539  1.00  0.00     0.001 A 
BRANCH   5  13
HETATM   13  O   UNL     1       7.158  24.929  52.067  1.00  0.00    -0.389 OA
HETATM   14  H   UNL     1       8.064  24.580  51.935  1.00  0.00     0.210 HD
ENDBRANCH   5  13
ENDBRANCH   2   4
BRANCH   2  15
HETATM   15  C   UNL     1       5.271  27.243  54.888  1.00  0.00     0.271 C 
BRANCH  15  16
HETATM   16  C   UNL     1       5.485  26.995  56.402  1.00  0.00     0.177 C 
BRANCH  16  17
HETATM   17  O   UNL     1       4.244  26.676  57.033  1.00  0.00    -0.389 OA
HETATM   18  H   UNL     1       4.450  26.203  57.863  1.00  0.00     0.210 HD
ENDBRANCH  16  17
BRANCH  16  19
HETATM   19  C   UNL     1       6.096  28.205  57.075  1.00  0.00    -0.028 A 
HETATM   20  C   UNL     1       7.384  28.128  57.631  1.00  0.00     0.013 A 
HETATM   21  C   UNL     1       7.958  29.245  58.242  1.00  0.00     0.043 A 
HETATM   22  C   UNL     1       7.252  30.439  58.296  1.00  0.00     0.116 A 
HETATM   23  F   UNL     1       7.807  31.507  58.881  1.00  0.00    -0.206 F 
HETATM   24  C   UNL     1       5.978  30.540  57.753  1.00  0.00     0.043 A 
HETATM   25  C   UNL     1       5.399  29.426  57.141  1.00  0.00     0.013 A 
ENDBRANCH  16  19
ENDBRANCH  15  16
ENDBRANCH   2  15
TORSDOF 6
ENDMDL
