MODEL 1
REMARK VINA RESULT:      -9.9      0.000      0.000
REMARK  7 active torsions:
REMARK  status: ('A' for Active; 'I' for Inactive)
REMARK    1  A    between atoms: S_2  and  C_3 
REMARK    2  A    between atoms: C_3  and  C_4 
REMARK    3  A    between atoms: C_4  and  C_5 
REMARK    4  A    between atoms: C_5  and  N_6 
REMARK    5  A    between atoms: C_5  and  C_26 
REMARK       I    between atoms: N_6  and  C_7 
REMARK    6  A    between atoms: C_7  and  C_8 
REMARK    7  A    between atoms: C_8  and  N_9 
ROOT
HETATM    1  N   UNL     1       8.028  27.250  56.361  1.00  0.00    -0.348 N 
HETATM    2  C   UNL     1       8.347  28.570  56.117  1.00  0.00     0.236 C 
HETATM    3  O   UNL     1       7.735  29.236  55.279  1.00  0.00    -0.272 OA
HETATM    4  H   UNL     1       8.787  26.633  56.641  1.00  0.00     0.163 HD
ENDROOT
BRANCH   2   5
HETATM    5  C   UNL     1       9.624  29.109  56.758  1.00  0.00     0.239 C 
BRANCH   5   6
HETATM    6  N   UNL     1       9.448  29.932  57.935  1.00  0.00    -0.259 N 
HETATM    7  C   UNL     1      10.083  31.112  58.138  1.00  0.00     0.326 A 
HETATM    8  O   UNL     1      11.005  31.557  57.474  1.00  0.00    -0.247 OA
HETATM    9  N   UNL     1       9.533  31.736  59.226  1.00  0.00    -0.320 N 
HETATM   10  C   UNL     1       8.445  30.979  59.815  1.00  0.00     0.144 A 
HETATM   11  H   UNL     1       9.793  32.677  59.487  1.00  0.00     0.165 HD
HETATM   12  C   UNL     1       7.145  31.772  59.747  1.00  0.00    -0.014 A 
HETATM   13  C   UNL     1       8.808  30.536  61.241  1.00  0.00     0.047 C 
HETATM   14  C   UNL     1       8.469  29.745  58.877  1.00  0.00     0.261 A 
HETATM   15  C   UNL     1       6.599  32.364  60.909  1.00  0.00    -0.049 A 
HETATM   16  C   UNL     1       6.476  31.966  58.522  1.00  0.00     0.011 A 
HETATM   17  C   UNL     1       5.397  33.087  60.825  1.00  0.00     0.007 A 
HETATM   18  C   UNL     1       7.227  32.186  62.270  1.00  0.00     0.039 C 
HETATM   19  C   UNL     1       4.744  33.247  59.606  1.00  0.00     0.001 A 
HETATM   20  C   UNL     1       5.285  32.690  58.454  1.00  0.00     0.001 A 
HETATM   21  C   UNL     1       8.670  31.701  62.218  1.00  0.00     0.008 C 
HETATM   22  O   UNL     1       7.718  28.781  58.940  1.00  0.00    -0.270 OA
ENDBRANCH   5   6
ENDBRANCH   2   5
BRANCH   1  23
HETATM   23  C   UNL     1       6.890  26.631  55.681  1.00  0.00     0.155 C 
BRANCH  23  24
HETATM   24  C   UNL     1       5.616  26.680  56.538  1.00  0.00     0.043 C 
BRANCH  24  25
HETATM   25  C   UNL     1       4.610  27.754  56.128  1.00  0.00     0.076 C 
BRANCH  25  26
HETATM   26  S   UNL     1       4.518  28.119  54.340  1.00  0.00    -0.173 SA
HETATM   27  C   UNL     1       4.319  29.919  54.389  1.00  0.00     0.089 C 
ENDBRANCH  25  26
ENDBRANCH  24  25
ENDBRANCH  23  24
BRANCH  23  28
HETATM   28  C   UNL     1       7.243  25.209  55.323  1.00  0.00     0.128 A 
HETATM   29  N   UNL     1       7.314  24.164  56.126  1.00  0.00    -0.231 NA
HETATM   30  C   UNL     1       7.542  23.083  55.309  1.00  0.00     0.085 A 
HETATM   31  C   UNL     1       7.653  23.478  53.980  1.00  0.00     0.062 A 
HETATM   32  C   UNL     1       7.654  21.723  55.630  1.00  0.00     0.034 A 
HETATM   33  N   UNL     1       7.460  24.834  54.016  1.00  0.00    -0.341 N 
HETATM   34  C   UNL     1       7.892  22.586  52.933  1.00  0.00     0.032 A 
HETATM   35  H   UNL     1       7.450  25.470  53.227  1.00  0.00     0.167 HD
HETATM   36  C   UNL     1       8.003  21.232  53.273  1.00  0.00     0.002 A 
HETATM   37  C   UNL     1       7.882  20.804  54.597  1.00  0.00     0.002 A 
ENDBRANCH  23  28
ENDBRANCH   1  23
TORSDOF 7
ENDMDL
MODEL 2
REMARK VINA RESULT:      -9.9      5.389      9.592
REMARK  7 active torsions:
REMARK  status: ('A' for Active; 'I' for Inactive)
REMARK    1  A    between atoms: S_2  and  C_3 
REMARK    2  A    between atoms: C_3  and  C_4 
REMARK    3  A    between atoms: C_4  and  C_5 
REMARK    4  A    between atoms: C_5  and  N_6 
REMARK    5  A    between atoms: C_5  and  C_26 
REMARK       I    between atoms: N_6  and  C_7 
REMARK    6  A    between atoms: C_7  and  C_8 
REMARK    7  A    between atoms: C_8  and  N_9 
ROOT
HETATM    1  N   UNL     1       4.048  27.572  51.190  1.00  0.00    -0.348 N 
HETATM    2  C   UNL     1       5.349  27.279  50.838  1.00  0.00     0.236 C 
HETATM    3  O   UNL     1       6.064  28.106  50.268  1.00  0.00    -0.272 OA
HETATM    4  H   UNL     1       3.382  26.803  51.186  1.00  0.00     0.163 HD
ENDROOT
BRANCH   2   5
HETATM    5  C   UNL     1       5.799  25.826  50.976  1.00  0.00     0.239 C 
BRANCH   5   6
HETATM    6  N   UNL     1       6.114  25.381  52.317  1.00  0.00    -0.259 N 
HETATM    7  C   UNL     1       5.190  24.945  53.209  1.00  0.00     0.326 A 
HETATM    8  O   UNL     1       3.979  25.032  53.091  1.00  0.00    -0.247 OA
HETATM    9  N   UNL     1       5.832  24.394  54.285  1.00  0.00    -0.320 N 
HETATM   10  C   UNL     1       7.276  24.420  54.150  1.00  0.00     0.144 A 
HETATM   11  H   UNL     1       5.326  23.917  55.019  1.00  0.00     0.165 HD
HETATM   12  C   UNL     1       7.836  23.002  54.147  1.00  0.00    -0.014 A 
HETATM   13  C   UNL     1       7.902  25.313  55.232  1.00  0.00     0.047 C 
HETATM   14  C   UNL     1       7.381  25.132  52.778  1.00  0.00     0.261 A 
HETATM   15  C   UNL     1       8.525  22.495  55.271  1.00  0.00    -0.049 A 
HETATM   16  C   UNL     1       7.649  22.151  53.038  1.00  0.00     0.011 A 
HETATM   17  C   UNL     1       9.037  21.187  55.245  1.00  0.00     0.007 A 
HETATM   18  C   UNL     1       8.801  23.341  56.491  1.00  0.00     0.039 C 
HETATM   19  C   UNL     1       8.858  20.372  54.130  1.00  0.00     0.001 A 
HETATM   20  C   UNL     1       8.161  20.852  53.029  1.00  0.00     0.001 A 
HETATM   21  C   UNL     1       7.933  24.590  56.576  1.00  0.00     0.008 C 
HETATM   22  O   UNL     1       8.418  25.398  52.184  1.00  0.00    -0.270 OA
ENDBRANCH   5   6
ENDBRANCH   2   5
BRANCH   1  23
HETATM   23  C   UNL     1       3.510  28.914  50.966  1.00  0.00     0.155 C 
BRANCH  23  24
HETATM   24  C   UNL     1       2.866  29.491  52.236  1.00  0.00     0.043 C 
BRANCH  24  25
HETATM   25  C   UNL     1       3.854  29.864  53.341  1.00  0.00     0.076 C 
BRANCH  25  26
HETATM   26  S   UNL     1       4.223  28.550  54.556  1.00  0.00    -0.173 SA
HETATM   27  C   UNL     1       6.019  28.421  54.353  1.00  0.00     0.089 C 
ENDBRANCH  25  26
ENDBRANCH  24  25
ENDBRANCH  23  24
BRANCH  23  28
HETATM   28  C   UNL     1       2.516  28.865  49.834  1.00  0.00     0.128 A 
HETATM   29  N   UNL     1       1.878  29.874  49.270  1.00  0.00    -0.231 NA
HETATM   30  C   UNL     1       1.191  29.331  48.209  1.00  0.00     0.085 A 
HETATM   31  C   UNL     1       1.380  27.955  48.145  1.00  0.00     0.062 A 
HETATM   32  C   UNL     1       0.391  29.959  47.244  1.00  0.00     0.034 A 
HETATM   33  N   UNL     1       2.225  27.684  49.189  1.00  0.00    -0.341 N 
HETATM   34  C   UNL     1       0.794  27.146  47.170  1.00  0.00     0.032 A 
HETATM   35  H   UNL     1       2.604  26.779  49.448  1.00  0.00     0.167 HD
HETATM   36  C   UNL     1      -0.004  27.789  46.215  1.00  0.00     0.002 A 
HETATM   37  C   UNL     1      -0.199  29.172  46.245  1.00  0.00     0.002 A 
ENDBRANCH  23  28
ENDBRANCH   1  23
TORSDOF 7
ENDMDL
MODEL 3
REMARK VINA RESULT:      -9.7      2.331      9.446
REMARK  7 active torsions:
REMARK  status: ('A' for Active; 'I' for Inactive)
REMARK    1  A    between atoms: S_2  and  C_3 
REMARK    2  A    between atoms: C_3  and  C_4 
REMARK    3  A    between atoms: C_4  and  C_5 
REMARK    4  A    between atoms: C_5  and  N_6 
REMARK    5  A    between atoms: C_5  and  C_26 
REMARK       I    between atoms: N_6  and  C_7 
REMARK    6  A    between atoms: C_7  and  C_8 
REMARK    7  A    between atoms: C_8  and  N_9 
ROOT
HETATM    1  N   UNL     1       6.420  30.678  58.563  1.00  0.00    -0.348 N 
HETATM    2  C   UNL     1       5.984  29.637  57.770  1.00  0.00     0.236 C 
HETATM    3  O   UNL     1       4.807  29.550  57.412  1.00  0.00    -0.272 OA
HETATM    4  H   UNL     1       7.182  30.481  59.208  1.00  0.00     0.163 HD
ENDROOT
BRANCH   2   5
HETATM    5  C   UNL     1       6.956  28.482  57.536  1.00  0.00     0.239 C 
BRANCH   5   6
HETATM    6  N   UNL     1       6.927  27.882  56.220  1.00  0.00    -0.259 N 
HETATM    7  C   UNL     1       7.794  28.193  55.225  1.00  0.00     0.326 A 
HETATM    8  O   UNL     1       8.584  29.122  55.223  1.00  0.00    -0.247 OA
HETATM    9  N   UNL     1       7.640  27.298  54.200  1.00  0.00    -0.320 N 
HETATM   10  C   UNL     1       6.632  26.293  54.481  1.00  0.00     0.144 A 
HETATM   11  H   UNL     1       8.262  27.290  53.403  1.00  0.00     0.165 HD
HETATM   12  C   UNL     1       7.256  24.902  54.492  1.00  0.00    -0.014 A 
HETATM   13  C   UNL     1       5.457  26.420  53.499  1.00  0.00     0.047 C 
HETATM   14  C   UNL     1       6.181  26.783  55.881  1.00  0.00     0.261 A 
HETATM   15  C   UNL     1       7.032  24.002  53.426  1.00  0.00    -0.049 A 
HETATM   16  C   UNL     1       8.098  24.493  55.546  1.00  0.00     0.011 A 
HETATM   17  C   UNL     1       7.613  22.723  53.459  1.00  0.00     0.007 A 
HETATM   18  C   UNL     1       6.122  24.339  52.270  1.00  0.00     0.039 C 
HETATM   19  C   UNL     1       8.425  22.334  54.520  1.00  0.00     0.001 A 
HETATM   20  C   UNL     1       8.671  23.220  55.562  1.00  0.00     0.001 A 
HETATM   21  C   UNL     1       5.824  25.828  52.141  1.00  0.00     0.008 C 
HETATM   22  O   UNL     1       5.328  26.258  56.585  1.00  0.00    -0.270 OA
ENDBRANCH   5   6
ENDBRANCH   2   5
BRANCH   1  23
HETATM   23  C   UNL     1       5.503  31.755  58.933  1.00  0.00     0.155 C 
BRANCH  23  24
HETATM   24  C   UNL     1       5.412  32.830  57.837  1.00  0.00     0.043 C 
BRANCH  24  25
HETATM   25  C   UNL     1       4.031  32.976  57.200  1.00  0.00     0.076 C 
BRANCH  25  26
HETATM   26  S   UNL     1       3.946  32.663  55.401  1.00  0.00    -0.173 SA
HETATM   27  C   UNL     1       2.252  32.034  55.265  1.00  0.00     0.089 C 
ENDBRANCH  25  26
ENDBRANCH  24  25
ENDBRANCH  23  24
BRANCH  23  28
HETATM   28  C   UNL     1       5.950  32.358  60.240  1.00  0.00     0.128 A 
HETATM   29  N   UNL     1       5.460  33.419  60.855  1.00  0.00    -0.231 NA
HETATM   30  C   UNL     1       6.114  33.483  62.062  1.00  0.00     0.085 A 
HETATM   31  C   UNL     1       7.052  32.463  62.175  1.00  0.00     0.062 A 
HETATM   32  C   UNL     1       5.948  34.382  63.126  1.00  0.00     0.034 A 
HETATM   33  N   UNL     1       6.930  31.763  61.004  1.00  0.00    -0.341 N 
HETATM   34  C   UNL     1       7.867  32.291  63.296  1.00  0.00     0.032 A 
HETATM   35  H   UNL     1       7.444  30.932  60.733  1.00  0.00     0.167 HD
HETATM   36  C   UNL     1       7.689  33.200  64.348  1.00  0.00     0.002 A 
HETATM   37  C   UNL     1       6.743  34.225  64.269  1.00  0.00     0.002 A 
ENDBRANCH  23  28
ENDBRANCH   1  23
TORSDOF 7
ENDMDL
MODEL 4
REMARK VINA RESULT:      -9.3      2.521      8.783
REMARK  7 active torsions:
REMARK  status: ('A' for Active; 'I' for Inactive)
REMARK    1  A    between atoms: S_2  and  C_3 
REMARK    2  A    between atoms: C_3  and  C_4 
REMARK    3  A    between atoms: C_4  and  C_5 
REMARK    4  A    between atoms: C_5  and  N_6 
REMARK    5  A    between atoms: C_5  and  C_26 
REMARK       I    between atoms: N_6  and  C_7 
REMARK    6  A    between atoms: C_7  and  C_8 
REMARK    7  A    between atoms: C_8  and  N_9 
ROOT
HETATM    1  N   UNL     1       5.702  30.879  56.574  1.00  0.00    -0.348 N 
HETATM    2  C   UNL     1       4.805  30.301  55.700  1.00  0.00     0.236 C 
HETATM    3  O   UNL     1       3.593  30.521  55.781  1.00  0.00    -0.272 OA
HETATM    4  H   UNL     1       6.537  30.344  56.802  1.00  0.00     0.163 HD
ENDROOT
BRANCH   2   5
HETATM    5  C   UNL     1       5.336  29.209  54.774  1.00  0.00     0.239 C 
BRANCH   5   6
HETATM    6  N   UNL     1       5.906  28.047  55.422  1.00  0.00    -0.259 N 
HETATM    7  C   UNL     1       5.202  27.193  56.204  1.00  0.00     0.326 A 
HETATM    8  O   UNL     1       4.069  27.365  56.621  1.00  0.00    -0.247 OA
HETATM    9  N   UNL     1       5.973  26.093  56.473  1.00  0.00    -0.320 N 
HETATM   10  C   UNL     1       7.276  26.154  55.840  1.00  0.00     0.144 A 
HETATM   11  H   UNL     1       5.600  25.288  56.956  1.00  0.00     0.165 HD
HETATM   12  C   UNL     1       7.447  25.000  54.858  1.00  0.00    -0.014 A 
HETATM   13  C   UNL     1       8.387  26.213  56.899  1.00  0.00     0.047 C 
HETATM   14  C   UNL     1       7.151  27.539  55.155  1.00  0.00     0.261 A 
HETATM   15  C   UNL     1       8.286  23.906  55.168  1.00  0.00    -0.049 A 
HETATM   16  C   UNL     1       6.746  24.978  53.636  1.00  0.00     0.011 A 
HETATM   17  C   UNL     1       8.432  22.855  54.247  1.00  0.00     0.007 A 
HETATM   18  C   UNL     1       9.100  23.855  56.438  1.00  0.00     0.039 C 
HETATM   19  C   UNL     1       7.744  22.866  53.036  1.00  0.00     0.001 A 
HETATM   20  C   UNL     1       6.898  23.925  52.732  1.00  0.00     0.001 A 
HETATM   21  C   UNL     1       8.627  24.834  57.506  1.00  0.00     0.008 C 
HETATM   22  O   UNL     1       8.004  28.076  54.461  1.00  0.00    -0.270 OA
ENDBRANCH   5   6
ENDBRANCH   2   5
BRANCH   1  23
HETATM   23  C   UNL     1       5.238  31.840  57.575  1.00  0.00     0.155 C 
BRANCH  23  24
HETATM   24  C   UNL     1       5.098  33.253  56.988  1.00  0.00     0.043 C 
BRANCH  24  25
HETATM   25  C   UNL     1       3.774  33.948  57.304  1.00  0.00     0.076 C 
BRANCH  25  26
HETATM   26  S   UNL     1       3.903  35.621  58.027  1.00  0.00    -0.173 SA
HETATM   27  C   UNL     1       4.056  35.201  59.783  1.00  0.00     0.089 C 
ENDBRANCH  25  26
ENDBRANCH  24  25
ENDBRANCH  23  24
BRANCH  23  28
HETATM   28  C   UNL     1       6.192  31.835  58.742  1.00  0.00     0.128 A 
HETATM   29  N   UNL     1       7.512  31.818  58.711  1.00  0.00    -0.231 NA
HETATM   30  C   UNL     1       7.915  31.953  60.019  1.00  0.00     0.085 A 
HETATM   31  C   UNL     1       6.820  32.016  60.873  1.00  0.00     0.062 A 
HETATM   32  C   UNL     1       9.208  32.044  60.554  1.00  0.00     0.034 A 
HETATM   33  N   UNL     1       5.738  31.938  60.038  1.00  0.00    -0.341 N 
HETATM   34  C   UNL     1       6.936  32.147  62.259  1.00  0.00     0.032 A 
HETATM   35  H   UNL     1       4.759  31.972  60.302  1.00  0.00     0.167 HD
HETATM   36  C   UNL     1       8.234  32.235  62.776  1.00  0.00     0.002 A 
HETATM   37  C   UNL     1       9.353  32.189  61.940  1.00  0.00     0.002 A 
ENDBRANCH  23  28
ENDBRANCH   1  23
TORSDOF 7
ENDMDL
MODEL 5
REMARK VINA RESULT:      -9.1      4.151      6.212
REMARK  7 active torsions:
REMARK  status: ('A' for Active; 'I' for Inactive)
REMARK    1  A    between atoms: S_2  and  C_3 
REMARK    2  A    between atoms: C_3  and  C_4 
REMARK    3  A    between atoms: C_4  and  C_5 
REMARK    4  A    between atoms: C_5  and  N_6 
REMARK    5  A    between atoms: C_5  and  C_26 
REMARK       I    between atoms: N_6  and  C_7 
REMARK    6  A    between atoms: C_7  and  C_8 
REMARK    7  A    between atoms: C_8  and  N_9 
ROOT
HETATM    1  N   UNL     1       4.598  30.563  58.625  1.00  0.00    -0.348 N 
HETATM    2  C   UNL     1       3.576  31.482  58.734  1.00  0.00     0.236 C 
HETATM    3  O   UNL     1       3.120  32.060  57.744  1.00  0.00    -0.272 OA
HETATM    4  H   UNL     1       5.245  30.492  59.407  1.00  0.00     0.163 HD
ENDROOT
BRANCH   2   5
HETATM    5  C   UNL     1       3.183  31.925  60.142  1.00  0.00     0.239 C 
BRANCH   5   6
HETATM    6  N   UNL     1       4.252  32.440  60.970  1.00  0.00    -0.259 N 
HETATM    7  C   UNL     1       4.954  33.565  60.689  1.00  0.00     0.326 A 
HETATM    8  O   UNL     1       4.922  34.192  59.643  1.00  0.00    -0.247 OA
HETATM    9  N   UNL     1       5.727  33.893  61.771  1.00  0.00    -0.320 N 
HETATM   10  C   UNL     1       5.557  32.973  62.880  1.00  0.00     0.144 A 
HETATM   11  H   UNL     1       6.251  34.756  61.808  1.00  0.00     0.165 HD
HETATM   12  C   UNL     1       5.011  33.706  64.100  1.00  0.00    -0.014 A 
HETATM   13  C   UNL     1       6.868  32.224  63.163  1.00  0.00     0.047 C 
HETATM   14  C   UNL     1       4.542  31.996  62.235  1.00  0.00     0.261 A 
HETATM   15  C   UNL     1       5.842  33.984  65.208  1.00  0.00    -0.049 A 
HETATM   16  C   UNL     1       3.675  34.153  64.139  1.00  0.00     0.011 A 
HETATM   17  C   UNL     1       5.317  34.656  66.324  1.00  0.00     0.007 A 
HETATM   18  C   UNL     1       7.277  33.518  65.271  1.00  0.00     0.039 C 
HETATM   19  C   UNL     1       3.988  35.071  66.348  1.00  0.00     0.001 A 
HETATM   20  C   UNL     1       3.168  34.823  65.254  1.00  0.00     0.001 A 
HETATM   21  C   UNL     1       7.849  33.119  63.916  1.00  0.00     0.008 C 
HETATM   22  O   UNL     1       4.049  31.014  62.773  1.00  0.00    -0.270 OA
ENDBRANCH   5   6
ENDBRANCH   2   5
BRANCH   1  23
HETATM   23  C   UNL     1       5.113  30.189  57.307  1.00  0.00     0.155 C 
BRANCH  23  24
HETATM   24  C   UNL     1       4.497  28.873  56.806  1.00  0.00     0.043 C 
BRANCH  24  25
HETATM   25  C   UNL     1       4.141  28.859  55.320  1.00  0.00     0.076 C 
BRANCH  25  26
HETATM   26  S   UNL     1       4.998  27.604  54.306  1.00  0.00    -0.173 SA
HETATM   27  C   UNL     1       4.646  28.239  52.645  1.00  0.00     0.089 C 
ENDBRANCH  25  26
ENDBRANCH  24  25
ENDBRANCH  23  24
BRANCH  23  28
HETATM   28  C   UNL     1       6.615  30.087  57.374  1.00  0.00     0.128 A 
HETATM   29  N   UNL     1       7.412  29.336  56.636  1.00  0.00    -0.231 NA
HETATM   30  C   UNL     1       8.691  29.694  56.989  1.00  0.00     0.085 A 
HETATM   31  C   UNL     1       8.680  30.657  57.992  1.00  0.00     0.062 A 
HETATM   32  C   UNL     1       9.920  29.246  56.483  1.00  0.00     0.034 A 
HETATM   33  N   UNL     1       7.349  30.888  58.220  1.00  0.00    -0.341 N 
HETATM   34  C   UNL     1       9.841  31.198  58.548  1.00  0.00     0.032 A 
HETATM   35  H   UNL     1       6.948  31.549  58.877  1.00  0.00     0.167 HD
HETATM   36  C   UNL     1      11.059  30.738  58.032  1.00  0.00     0.002 A 
HETATM   37  C   UNL     1      11.101  29.782  57.013  1.00  0.00     0.002 A 
ENDBRANCH  23  28
ENDBRANCH   1  23
TORSDOF 7
ENDMDL
MODEL 6
REMARK VINA RESULT:      -9.1      4.065      8.081
REMARK  7 active torsions:
REMARK  status: ('A' for Active; 'I' for Inactive)
REMARK    1  A    between atoms: S_2  and  C_3 
REMARK    2  A    between atoms: C_3  and  C_4 
REMARK    3  A    between atoms: C_4  and  C_5 
REMARK    4  A    between atoms: C_5  and  N_6 
REMARK    5  A    between atoms: C_5  and  C_26 
REMARK       I    between atoms: N_6  and  C_7 
REMARK    6  A    between atoms: C_7  and  C_8 
REMARK    7  A    between atoms: C_8  and  N_9 
ROOT
HETATM    1  N   UNL     1       6.716  26.479  54.841  1.00  0.00    -0.348 N 
HETATM    2  C   UNL     1       5.806  27.477  54.563  1.00  0.00     0.236 C 
HETATM    3  O   UNL     1       4.691  27.498  55.092  1.00  0.00    -0.272 OA
HETATM    4  H   UNL     1       7.353  26.212  54.095  1.00  0.00     0.163 HD
ENDROOT
BRANCH   2   5
HETATM    5  C   UNL     1       6.139  28.426  53.414  1.00  0.00     0.239 C 
BRANCH   5   6
HETATM    6  N   UNL     1       5.650  28.041  52.108  1.00  0.00    -0.259 N 
HETATM    7  C   UNL     1       5.071  26.845  51.837  1.00  0.00     0.326 A 
HETATM    8  O   UNL     1       5.042  25.875  52.576  1.00  0.00    -0.247 OA
HETATM    9  N   UNL     1       4.525  26.886  50.581  1.00  0.00    -0.320 N 
HETATM   10  C   UNL     1       4.704  28.171  49.935  1.00  0.00     0.144 A 
HETATM   11  H   UNL     1       3.957  26.130  50.224  1.00  0.00     0.165 HD
HETATM   12  C   UNL     1       3.352  28.811  49.638  1.00  0.00    -0.014 A 
HETATM   13  C   UNL     1       5.590  28.028  48.688  1.00  0.00     0.047 C 
HETATM   14  C   UNL     1       5.503  28.897  51.047  1.00  0.00     0.261 A 
HETATM   15  C   UNL     1       2.852  28.862  48.317  1.00  0.00    -0.049 A 
HETATM   16  C   UNL     1       2.554  29.334  50.675  1.00  0.00     0.011 A 
HETATM   17  C   UNL     1       1.606  29.460  48.065  1.00  0.00     0.007 A 
HETATM   18  C   UNL     1       3.648  28.356  47.138  1.00  0.00     0.039 C 
HETATM   19  C   UNL     1       0.844  29.988  49.104  1.00  0.00     0.001 A 
HETATM   20  C   UNL     1       1.316  29.922  50.409  1.00  0.00     0.001 A 
HETATM   21  C   UNL     1       4.796  27.433  47.528  1.00  0.00     0.008 C 
HETATM   22  O   UNL     1       5.906  30.052  51.005  1.00  0.00    -0.270 OA
ENDBRANCH   5   6
ENDBRANCH   2   5
BRANCH   1  23
HETATM   23  C   UNL     1       6.406  25.459  55.843  1.00  0.00     0.155 C 
BRANCH  23  24
HETATM   24  C   UNL     1       6.883  25.870  57.245  1.00  0.00     0.043 C 
BRANCH  24  25
HETATM   25  C   UNL     1       8.107  26.785  57.261  1.00  0.00     0.076 C 
BRANCH  25  26
HETATM   26  S   UNL     1       7.789  28.536  57.677  1.00  0.00    -0.173 SA
HETATM   27  C   UNL     1       8.621  29.352  56.289  1.00  0.00     0.089 C 
ENDBRANCH  25  26
ENDBRANCH  24  25
ENDBRANCH  23  24
BRANCH  23  28
HETATM   28  C   UNL     1       7.030  24.151  55.425  1.00  0.00     0.128 A 
HETATM   29  N   UNL     1       7.504  23.194  56.201  1.00  0.00    -0.231 NA
HETATM   30  C   UNL     1       7.841  22.164  55.355  1.00  0.00     0.085 A 
HETATM   31  C   UNL     1       7.605  22.511  54.030  1.00  0.00     0.062 A 
HETATM   32  C   UNL     1       8.344  20.889  55.650  1.00  0.00     0.034 A 
HETATM   33  N   UNL     1       7.091  23.779  54.101  1.00  0.00    -0.341 N 
HETATM   34  C   UNL     1       7.864  21.657  52.956  1.00  0.00     0.032 A 
HETATM   35  H   UNL     1       6.780  24.356  53.327  1.00  0.00     0.167 HD
HETATM   36  C   UNL     1       8.369  20.388  53.269  1.00  0.00     0.002 A 
HETATM   37  C   UNL     1       8.601  20.006  54.593  1.00  0.00     0.002 A 
ENDBRANCH  23  28
ENDBRANCH   1  23
TORSDOF 7
ENDMDL
MODEL 7
REMARK VINA RESULT:      -9.1      4.208      9.091
REMARK  7 active torsions:
REMARK  status: ('A' for Active; 'I' for Inactive)
REMARK    1  A    between atoms: S_2  and  C_3 
REMARK    2  A    between atoms: C_3  and  C_4 
REMARK    3  A    between atoms: C_4  and  C_5 
REMARK    4  A    between atoms: C_5  and  N_6 
REMARK    5  A    between atoms: C_5  and  C_26 
REMARK       I    between atoms: N_6  and  C_7 
REMARK    6  A    between atoms: C_7  and  C_8 
REMARK    7  A    between atoms: C_8  and  N_9 
ROOT
HETATM    1  N   UNL     1       5.517  28.245  51.578  1.00  0.00    -0.348 N 
HETATM    2  C   UNL     1       5.130  27.173  50.802  1.00  0.00     0.236 C 
HETATM    3  O   UNL     1       4.068  27.182  50.175  1.00  0.00    -0.272 OA
HETATM    4  H   UNL     1       6.071  28.042  52.407  1.00  0.00     0.163 HD
ENDROOT
BRANCH   2   5
HETATM    5  C   UNL     1       5.950  25.890  50.924  1.00  0.00     0.239 C 
BRANCH   5   6
HETATM    6  N   UNL     1       6.205  25.422  52.270  1.00  0.00    -0.259 N 
HETATM    7  C   UNL     1       5.240  24.981  53.114  1.00  0.00     0.326 A 
HETATM    8  O   UNL     1       4.036  25.081  52.947  1.00  0.00    -0.247 OA
HETATM    9  N   UNL     1       5.831  24.408  54.209  1.00  0.00    -0.320 N 
HETATM   10  C   UNL     1       7.279  24.422  54.135  1.00  0.00     0.144 A 
HETATM   11  H   UNL     1       5.290  23.924  54.912  1.00  0.00     0.165 HD
HETATM   12  C   UNL     1       7.827  22.999  54.133  1.00  0.00    -0.014 A 
HETATM   13  C   UNL     1       7.867  25.293  55.256  1.00  0.00     0.047 C 
HETATM   14  C   UNL     1       7.449  25.155  52.779  1.00  0.00     0.261 A 
HETATM   15  C   UNL     1       8.464  22.469  55.277  1.00  0.00    -0.049 A 
HETATM   16  C   UNL     1       7.680  22.168  53.004  1.00  0.00     0.011 A 
HETATM   17  C   UNL     1       8.965  21.157  55.252  1.00  0.00     0.007 A 
HETATM   18  C   UNL     1       8.694  23.293  56.521  1.00  0.00     0.039 C 
HETATM   19  C   UNL     1       8.826  20.361  54.118  1.00  0.00     0.001 A 
HETATM   20  C   UNL     1       8.181  20.864  52.996  1.00  0.00     0.001 A 
HETATM   21  C   UNL     1       7.834  24.549  56.589  1.00  0.00     0.008 C 
HETATM   22  O   UNL     1       8.512  25.420  52.234  1.00  0.00    -0.270 OA
ENDBRANCH   5   6
ENDBRANCH   2   5
BRANCH   1  23
HETATM   23  C   UNL     1       4.706  29.462  51.609  1.00  0.00     0.155 C 
BRANCH  23  24
HETATM   24  C   UNL     1       5.350  30.599  50.800  1.00  0.00     0.043 C 
BRANCH  24  25
HETATM   25  C   UNL     1       4.373  31.418  49.958  1.00  0.00     0.076 C 
BRANCH  25  26
HETATM   26  S   UNL     1       3.381  30.476  48.746  1.00  0.00    -0.173 SA
HETATM   27  C   UNL     1       4.704  29.710  47.773  1.00  0.00     0.089 C 
ENDBRANCH  25  26
ENDBRANCH  24  25
ENDBRANCH  23  24
BRANCH  23  28
HETATM   28  C   UNL     1       4.491  29.877  53.042  1.00  0.00     0.128 A 
HETATM   29  N   UNL     1       3.489  30.577  53.543  1.00  0.00    -0.231 NA
HETATM   30  C   UNL     1       3.682  30.578  54.904  1.00  0.00     0.085 A 
HETATM   31  C   UNL     1       4.847  29.897  55.242  1.00  0.00     0.062 A 
HETATM   32  C   UNL     1       2.892  31.131  55.921  1.00  0.00     0.034 A 
HETATM   33  N   UNL     1       5.343  29.463  54.042  1.00  0.00    -0.341 N 
HETATM   34  C   UNL     1       5.293  29.748  56.557  1.00  0.00     0.032 A 
HETATM   35  H   UNL     1       6.179  28.910  53.891  1.00  0.00     0.167 HD
HETATM   36  C   UNL     1       4.492  30.309  57.561  1.00  0.00     0.002 A 
HETATM   37  C   UNL     1       3.308  30.984  57.251  1.00  0.00     0.002 A 
ENDBRANCH  23  28
ENDBRANCH   1  23
TORSDOF 7
ENDMDL
MODEL 8
REMARK VINA RESULT:      -9.0      4.901      8.972
REMARK  7 active torsions:
REMARK  status: ('A' for Active; 'I' for Inactive)
REMARK    1  A    between atoms: S_2  and  C_3 
REMARK    2  A    between atoms: C_3  and  C_4 
REMARK    3  A    between atoms: C_4  and  C_5 
REMARK    4  A    between atoms: C_5  and  N_6 
REMARK    5  A    between atoms: C_5  and  C_26 
REMARK       I    between atoms: N_6  and  C_7 
REMARK    6  A    between atoms: C_7  and  C_8 
REMARK    7  A    between atoms: C_8  and  N_9 
ROOT
HETATM    1  N   UNL     1       6.046  26.366  54.144  1.00  0.00    -0.348 N 
HETATM    2  C   UNL     1       5.207  26.276  53.053  1.00  0.00     0.236 C 
HETATM    3  O   UNL     1       4.343  25.399  52.974  1.00  0.00    -0.272 OA
HETATM    4  H   UNL     1       6.984  26.722  53.980  1.00  0.00     0.163 HD
ENDROOT
BRANCH   2   5
HETATM    5  C   UNL     1       5.531  27.158  51.848  1.00  0.00     0.239 C 
BRANCH   5   6
HETATM    6  N   UNL     1       4.408  27.546  51.023  1.00  0.00    -0.259 N 
HETATM    7  C   UNL     1       3.384  28.325  51.452  1.00  0.00     0.326 A 
HETATM    8  O   UNL     1       3.163  28.652  52.606  1.00  0.00    -0.247 OA
HETATM    9  N   UNL     1       2.615  28.685  50.378  1.00  0.00    -0.320 N 
HETATM   10  C   UNL     1       3.120  28.158  49.125  1.00  0.00     0.144 A 
HETATM   11  H   UNL     1       1.858  29.350  50.465  1.00  0.00     0.165 HD
HETATM   12  C   UNL     1       3.493  29.295  48.180  1.00  0.00    -0.014 A 
HETATM   13  C   UNL     1       2.115  27.170  48.512  1.00  0.00     0.047 C 
HETATM   14  C   UNL     1       4.342  27.372  49.665  1.00  0.00     0.261 A 
HETATM   15  C   UNL     1       2.684  29.600  47.063  1.00  0.00    -0.049 A 
HETATM   16  C   UNL     1       4.632  30.090  48.417  1.00  0.00     0.011 A 
HETATM   17  C   UNL     1       3.049  30.649  46.202  1.00  0.00     0.007 A 
HETATM   18  C   UNL     1       1.463  28.785  46.710  1.00  0.00     0.039 C 
HETATM   19  C   UNL     1       4.190  31.408  46.446  1.00  0.00     0.001 A 
HETATM   20  C   UNL     1       4.980  31.132  47.555  1.00  0.00     0.001 A 
HETATM   21  C   UNL     1       0.957  27.917  47.856  1.00  0.00     0.008 C 
HETATM   22  O   UNL     1       5.139  26.732  48.991  1.00  0.00    -0.270 OA
ENDBRANCH   5   6
ENDBRANCH   2   5
BRANCH   1  23
HETATM   23  C   UNL     1       5.872  25.463  55.281  1.00  0.00     0.155 C 
BRANCH  23  24
HETATM   24  C   UNL     1       6.270  26.130  56.607  1.00  0.00     0.043 C 
BRANCH  24  25
HETATM   25  C   UNL     1       6.672  27.599  56.488  1.00  0.00     0.076 C 
BRANCH  25  26
HETATM   26  S   UNL     1       8.351  28.018  57.076  1.00  0.00    -0.173 SA
HETATM   27  C   UNL     1       7.950  29.270  58.324  1.00  0.00     0.089 C 
ENDBRANCH  25  26
ENDBRANCH  24  25
ENDBRANCH  23  24
BRANCH  23  28
HETATM   28  C   UNL     1       6.679  24.211  55.046  1.00  0.00     0.128 A 
HETATM   29  N   UNL     1       7.196  23.397  55.948  1.00  0.00    -0.231 NA
HETATM   30  C   UNL     1       7.722  22.344  55.239  1.00  0.00     0.085 A 
HETATM   31  C   UNL     1       7.559  22.534  53.871  1.00  0.00     0.062 A 
HETATM   32  C   UNL     1       8.346  21.176  55.698  1.00  0.00     0.034 A 
HETATM   33  N   UNL     1       6.894  23.728  53.775  1.00  0.00    -0.341 N 
HETATM   34  C   UNL     1       8.006  21.622  52.912  1.00  0.00     0.032 A 
HETATM   35  H   UNL     1       6.582  24.186  52.926  1.00  0.00     0.167 HD
HETATM   36  C   UNL     1       8.629  20.462  53.389  1.00  0.00     0.002 A 
HETATM   37  C   UNL     1       8.793  20.237  54.758  1.00  0.00     0.002 A 
ENDBRANCH  23  28
ENDBRANCH   1  23
TORSDOF 7
ENDMDL
MODEL 9
REMARK VINA RESULT:      -9.0      4.867      8.889
REMARK  7 active torsions:
REMARK  status: ('A' for Active; 'I' for Inactive)
REMARK    1  A    between atoms: S_2  and  C_3 
REMARK    2  A    between atoms: C_3  and  C_4 
REMARK    3  A    between atoms: C_4  and  C_5 
REMARK    4  A    between atoms: C_5  and  N_6 
REMARK    5  A    between atoms: C_5  and  C_26 
REMARK       I    between atoms: N_6  and  C_7 
REMARK    6  A    between atoms: C_7  and  C_8 
REMARK    7  A    between atoms: C_8  and  N_9 
ROOT
HETATM    1  N   UNL     1       5.496  29.497  51.898  1.00  0.00    -0.348 N 
HETATM    2  C   UNL     1       4.809  29.084  53.020  1.00  0.00     0.236 C 
HETATM    3  O   UNL     1       3.667  28.622  52.942  1.00  0.00    -0.272 OA
HETATM    4  H   UNL     1       6.149  30.269  52.012  1.00  0.00     0.163 HD
ENDROOT
BRANCH   2   5
HETATM    5  C   UNL     1       5.419  29.425  54.378  1.00  0.00     0.239 C 
BRANCH   5   6
HETATM    6  N   UNL     1       5.917  28.307  55.150  1.00  0.00    -0.259 N 
HETATM    7  C   UNL     1       5.149  27.552  55.974  1.00  0.00     0.326 A 
HETATM    8  O   UNL     1       4.007  27.800  56.322  1.00  0.00    -0.247 OA
HETATM    9  N   UNL     1       5.865  26.455  56.373  1.00  0.00    -0.320 N 
HETATM   10  C   UNL     1       7.195  26.414  55.795  1.00  0.00     0.144 A 
HETATM   11  H   UNL     1       5.442  25.710  56.909  1.00  0.00     0.165 HD
HETATM   12  C   UNL     1       7.361  25.170  54.929  1.00  0.00    -0.014 A 
HETATM   13  C   UNL     1       8.263  26.530  56.894  1.00  0.00     0.047 C 
HETATM   14  C   UNL     1       7.152  27.734  54.985  1.00  0.00     0.261 A 
HETATM   15  C   UNL     1       8.144  24.081  55.372  1.00  0.00    -0.049 A 
HETATM   16  C   UNL     1       6.711  25.063  53.683  1.00  0.00     0.011 A 
HETATM   17  C   UNL     1       8.288  22.947  54.555  1.00  0.00     0.007 A 
HETATM   18  C   UNL     1       8.903  24.117  56.676  1.00  0.00     0.039 C 
HETATM   19  C   UNL     1       7.652  22.872  53.319  1.00  0.00     0.001 A 
HETATM   20  C   UNL     1       6.860  23.928  52.884  1.00  0.00     0.001 A 
HETATM   21  C   UNL     1       8.424  25.203  57.631  1.00  0.00     0.008 C 
HETATM   22  O   UNL     1       8.053  28.177  54.285  1.00  0.00    -0.270 OA
ENDBRANCH   5   6
ENDBRANCH   2   5
BRANCH   1  23
HETATM   23  C   UNL     1       4.911  29.317  50.569  1.00  0.00     0.155 C 
BRANCH  23  24
HETATM   24  C   UNL     1       5.391  28.018  49.904  1.00  0.00     0.043 C 
BRANCH  24  25
HETATM   25  C   UNL     1       4.276  27.048  49.517  1.00  0.00     0.076 C 
BRANCH  25  26
HETATM   26  S   UNL     1       3.938  26.893  47.728  1.00  0.00    -0.173 SA
HETATM   27  C   UNL     1       3.102  25.286  47.697  1.00  0.00     0.089 C 
ENDBRANCH  25  26
ENDBRANCH  24  25
ENDBRANCH  23  24
BRANCH  23  28
HETATM   28  C   UNL     1       5.247  30.514  49.716  1.00  0.00     0.128 A 
HETATM   29  N   UNL     1       6.169  31.434  49.935  1.00  0.00    -0.231 NA
HETATM   30  C   UNL     1       6.172  32.230  48.814  1.00  0.00     0.085 A 
HETATM   31  C   UNL     1       5.205  31.814  47.906  1.00  0.00     0.062 A 
HETATM   32  C   UNL     1       6.986  33.326  48.495  1.00  0.00     0.034 A 
HETATM   33  N   UNL     1       4.631  30.723  48.502  1.00  0.00    -0.341 N 
HETATM   34  C   UNL     1       4.981  32.447  46.681  1.00  0.00     0.032 A 
HETATM   35  H   UNL     1       3.893  30.138  48.125  1.00  0.00     0.167 HD
HETATM   36  C   UNL     1       5.802  33.541  46.379  1.00  0.00     0.002 A 
HETATM   37  C   UNL     1       6.792  33.972  47.266  1.00  0.00     0.002 A 
ENDBRANCH  23  28
ENDBRANCH   1  23
TORSDOF 7
ENDMDL
MODEL 10
REMARK VINA RESULT:      -8.9      2.368      9.247
REMARK  7 active torsions:
REMARK  status: ('A' for Active; 'I' for Inactive)
REMARK    1  A    between atoms: S_2  and  C_3 
REMARK    2  A    between atoms: C_3  and  C_4 
REMARK    3  A    between atoms: C_4  and  C_5 
REMARK    4  A    between atoms: C_5  and  N_6 
REMARK    5  A    between atoms: C_5  and  C_26 
REMARK       I    between atoms: N_6  and  C_7 
REMARK    6  A    between atoms: C_7  and  C_8 
REMARK    7  A    between atoms: C_8  and  N_9 
ROOT
HETATM    1  N   UNL     1       7.252  30.119  58.784  1.00  0.00    -0.348 N 
HETATM    2  C   UNL     1       6.183  30.283  57.929  1.00  0.00     0.236 C 
HETATM    3  O   UNL     1       5.820  31.402  57.558  1.00  0.00    -0.272 OA
HETATM    4  H   UNL     1       7.219  29.328  59.423  1.00  0.00     0.163 HD
ENDROOT
BRANCH   2   5
HETATM    5  C   UNL     1       5.327  29.052  57.637  1.00  0.00     0.239 C 
BRANCH   5   6
HETATM    6  N   UNL     1       5.740  28.242  56.511  1.00  0.00    -0.259 N 
HETATM    7  C   UNL     1       6.690  28.612  55.618  1.00  0.00     0.326 A 
HETATM    8  O   UNL     1       7.193  29.719  55.519  1.00  0.00    -0.247 OA
HETATM    9  N   UNL     1       6.998  27.542  54.821  1.00  0.00    -0.320 N 
HETATM   10  C   UNL     1       6.250  26.350  55.172  1.00  0.00     0.144 A 
HETATM   11  H   UNL     1       7.758  27.576  54.156  1.00  0.00     0.165 HD
HETATM   12  C   UNL     1       7.196  25.236  55.607  1.00  0.00    -0.014 A 
HETATM   13  C   UNL     1       5.323  25.937  54.018  1.00  0.00     0.047 C 
HETATM   14  C   UNL     1       5.396  26.927  56.329  1.00  0.00     0.261 A 
HETATM   15  C   UNL     1       7.449  24.132  54.762  1.00  0.00    -0.049 A 
HETATM   16  C   UNL     1       7.867  25.297  56.845  1.00  0.00     0.011 A 
HETATM   17  C   UNL     1       8.320  23.114  55.184  1.00  0.00     0.007 A 
HETATM   18  C   UNL     1       6.753  23.964  53.432  1.00  0.00     0.039 C 
HETATM   19  C   UNL     1       8.957  23.187  56.420  1.00  0.00     0.001 A 
HETATM   20  C   UNL     1       8.733  24.280  57.249  1.00  0.00     0.001 A 
HETATM   21  C   UNL     1       6.115  25.246  52.911  1.00  0.00     0.008 C 
HETATM   22  O   UNL     1       4.578  26.308  56.997  1.00  0.00    -0.270 OA
ENDBRANCH   5   6
ENDBRANCH   2   5
BRANCH   1  23
HETATM   23  C   UNL     1       8.039  31.278  59.208  1.00  0.00     0.155 C 
BRANCH  23  24
HETATM   24  C   UNL     1       9.549  30.995  59.153  1.00  0.00     0.043 C 
BRANCH  24  25
HETATM   25  C   UNL     1      10.219  31.361  57.829  1.00  0.00     0.076 C 
BRANCH  25  26
HETATM   26  S   UNL     1      10.377  30.005  56.614  1.00  0.00    -0.173 SA
HETATM   27  C   UNL     1      11.960  29.292  57.132  1.00  0.00     0.089 C 
ENDBRANCH  25  26
ENDBRANCH  24  25
ENDBRANCH  23  24
BRANCH  23  28
HETATM   28  C   UNL     1       7.618  31.678  60.600  1.00  0.00     0.128 A 
HETATM   29  N   UNL     1       8.392  32.000  61.620  1.00  0.00    -0.231 NA
HETATM   30  C   UNL     1       7.538  32.409  62.617  1.00  0.00     0.085 A 
HETATM   31  C   UNL     1       6.212  32.299  62.214  1.00  0.00     0.062 A 
HETATM   32  C   UNL     1       7.826  32.904  63.897  1.00  0.00     0.034 A 
HETATM   33  N   UNL     1       6.290  31.831  60.929  1.00  0.00    -0.341 N 
HETATM   34  C   UNL     1       5.132  32.640  63.030  1.00  0.00     0.032 A 
HETATM   35  H   UNL     1       5.517  31.644  60.299  1.00  0.00     0.167 HD
HETATM   36  C   UNL     1       5.438  33.131  64.306  1.00  0.00     0.002 A 
HETATM   37  C   UNL     1       6.762  33.266  64.733  1.00  0.00     0.002 A 
ENDBRANCH  23  28
ENDBRANCH   1  23
TORSDOF 7
ENDMDL
