MODEL 1
REMARK VINA RESULT:      -9.3      0.000      0.000
REMARK  6 active torsions:
REMARK  status: ('A' for Active; 'I' for Inactive)
REMARK    1  A    between atoms: C_9  and  C_10 
REMARK    2  A    between atoms: C_10  and  N_11 
REMARK       I    between atoms: N_11  and  C_12 
REMARK    3  A    between atoms: N_11  and  C_22 
REMARK    4  A    between atoms: C_12  and  C_13 
REMARK    5  A    between atoms: C_16  and  O_17 
REMARK    6  A    between atoms: C_22  and  C_23 
ROOT
HETATM    1  N   UNL     1       6.177  27.604  55.850  1.00  0.00    -0.341 N 
HETATM    2  C   UNL     1       6.891  27.582  57.051  1.00  0.00     0.254 C 
HETATM    3  O   UNL     1       6.853  26.643  57.844  1.00  0.00    -0.267 OA
ENDROOT
BRANCH   1   4
HETATM    4  C   UNL     1       5.325  26.443  55.549  1.00  0.00     0.170 C 
BRANCH   4   5
HETATM    5  C   UNL     1       6.063  25.265  54.968  1.00  0.00     0.029 A 
HETATM    6  C   UNL     1       6.132  25.289  53.469  1.00  0.00     0.253 A 
HETATM    7  N   UNL     1       6.781  24.255  52.851  1.00  0.00    -0.322 N 
HETATM    8  O   UNL     1       5.624  26.190  52.808  1.00  0.00    -0.268 OA
HETATM    9  C   UNL     1       7.340  23.170  53.533  1.00  0.00     0.045 A 
HETATM   10  H   UNL     1       6.807  24.293  51.843  1.00  0.00     0.169 HD
HETATM   11  C   UNL     1       7.268  23.133  54.928  1.00  0.00    -0.008 A 
HETATM   12  C   UNL     1       7.943  22.136  52.819  1.00  0.00     0.031 A 
HETATM   13  C   UNL     1       7.795  22.031  55.611  1.00  0.00     0.020 A 
HETATM   14  C   UNL     1       6.623  24.240  55.637  1.00  0.00     0.028 A 
HETATM   15  C   UNL     1       8.380  20.969  54.903  1.00  0.00    -0.061 A 
HETATM   16  C   UNL     1       8.951  19.788  55.632  1.00  0.00     0.048 C 
HETATM   17  C   UNL     1       8.466  21.040  53.506  1.00  0.00     0.009 A 
ENDBRANCH   4   5
ENDBRANCH   1   4
BRANCH   1  18
HETATM   18  C   UNL     1       5.926  28.820  55.052  1.00  0.00     0.158 C 
BRANCH  18  19
HETATM   19  C   UNL     1       4.477  29.317  55.126  1.00  0.00     0.139 C 
HETATM   20  O   UNL     1       4.096  29.655  56.471  1.00  0.00    -0.384 OA
HETATM   21  C   UNL     1       3.205  30.779  56.428  1.00  0.00     0.168 C 
HETATM   22  C   UNL     1       3.009  31.141  54.970  1.00  0.00     0.029 C 
HETATM   23  C   UNL     1       4.259  30.593  54.328  1.00  0.00     0.035 C 
ENDBRANCH  18  19
ENDBRANCH   1  18
BRANCH   2  24
HETATM   24  C   UNL     1       7.759  28.726  57.414  1.00  0.00     0.032 A 
HETATM   25  C   UNL     1       7.215  29.753  58.189  1.00  0.00     0.020 A 
HETATM   26  C   UNL     1       8.018  30.829  58.572  1.00  0.00     0.038 A 
HETATM   27  C   UNL     1       9.363  30.883  58.200  1.00  0.00     0.068 A 
HETATM   28  C   UNL     1       9.911  29.840  57.451  1.00  0.00     0.038 A 
HETATM   29  C   UNL     1       9.113  28.754  57.068  1.00  0.00     0.020 A 
BRANCH  27  30
HETATM   30  O   UNL     1      10.029  31.995  58.640  1.00  0.00    -0.356 OA
HETATM   31  C   UNL     1       9.830  32.376  59.994  1.00  0.00     0.210 C 
ENDBRANCH  27  30
ENDBRANCH   2  24
TORSDOF 6
ENDMDL
MODEL 2
REMARK VINA RESULT:      -9.3      2.332      4.652
REMARK  6 active torsions:
REMARK  status: ('A' for Active; 'I' for Inactive)
REMARK    1  A    between atoms: C_9  and  C_10 
REMARK    2  A    between atoms: C_10  and  N_11 
REMARK       I    between atoms: N_11  and  C_12 
REMARK    3  A    between atoms: N_11  and  C_22 
REMARK    4  A    between atoms: C_12  and  C_13 
REMARK    5  A    between atoms: C_16  and  O_17 
REMARK    6  A    between atoms: C_22  and  C_23 
ROOT
HETATM    1  N   UNL     1       6.614  27.856  55.701  1.00  0.00    -0.341 N 
HETATM    2  C   UNL     1       6.463  29.190  56.090  1.00  0.00     0.254 C 
HETATM    3  O   UNL     1       7.372  29.861  56.573  1.00  0.00    -0.267 OA
ENDROOT
BRANCH   1   4
HETATM    4  C   UNL     1       7.932  27.236  55.910  1.00  0.00     0.170 C 
BRANCH   4   5
HETATM    5  C   UNL     1       7.921  25.730  55.879  1.00  0.00     0.029 A 
HETATM    6  C   UNL     1       7.886  25.109  57.245  1.00  0.00     0.253 A 
HETATM    7  N   UNL     1       7.879  23.742  57.318  1.00  0.00    -0.322 N 
HETATM    8  O   UNL     1       7.873  25.787  58.268  1.00  0.00    -0.268 OA
HETATM    9  C   UNL     1       7.942  22.905  56.200  1.00  0.00     0.045 A 
HETATM   10  H   UNL     1       7.861  23.353  58.248  1.00  0.00     0.169 HD
HETATM   11  C   UNL     1       7.988  23.475  54.924  1.00  0.00    -0.008 A 
HETATM   12  C   UNL     1       7.976  21.523  56.369  1.00  0.00     0.031 A 
HETATM   13  C   UNL     1       8.088  22.640  53.806  1.00  0.00     0.020 A 
HETATM   14  C   UNL     1       7.953  24.932  54.795  1.00  0.00     0.028 A 
HETATM   15  C   UNL     1       8.151  21.246  53.962  1.00  0.00    -0.061 A 
HETATM   16  C   UNL     1       8.253  20.347  52.765  1.00  0.00     0.048 C 
HETATM   17  C   UNL     1       8.076  20.696  55.249  1.00  0.00     0.009 A 
ENDBRANCH   4   5
ENDBRANCH   1   4
BRANCH   1  18
HETATM   18  C   UNL     1       5.493  26.931  55.443  1.00  0.00     0.158 C 
BRANCH  18  19
HETATM   19  C   UNL     1       5.096  26.841  53.964  1.00  0.00     0.139 C 
HETATM   20  O   UNL     1       6.132  27.343  53.102  1.00  0.00    -0.384 OA
HETATM   21  C   UNL     1       6.145  26.564  51.897  1.00  0.00     0.168 C 
HETATM   22  C   UNL     1       5.039  25.536  52.015  1.00  0.00     0.029 C 
HETATM   23  C   UNL     1       4.872  25.408  53.508  1.00  0.00     0.035 C 
ENDBRANCH  18  19
ENDBRANCH   1  18
BRANCH   2  24
HETATM   24  C   UNL     1       5.157  29.865  55.912  1.00  0.00     0.032 A 
HETATM   25  C   UNL     1       4.371  30.101  57.043  1.00  0.00     0.020 A 
HETATM   26  C   UNL     1       3.150  30.763  56.911  1.00  0.00     0.038 A 
HETATM   27  C   UNL     1       2.709  31.205  55.661  1.00  0.00     0.068 A 
HETATM   28  C   UNL     1       3.511  30.994  54.537  1.00  0.00     0.038 A 
HETATM   29  C   UNL     1       4.741  30.336  54.664  1.00  0.00     0.020 A 
BRANCH  27  30
HETATM   30  O   UNL     1       1.495  31.834  55.677  1.00  0.00    -0.356 OA
HETATM   31  C   UNL     1       1.385  33.050  54.950  1.00  0.00     0.210 C 
ENDBRANCH  27  30
ENDBRANCH   2  24
TORSDOF 6
ENDMDL
MODEL 3
REMARK VINA RESULT:      -9.1      3.708      7.304
REMARK  6 active torsions:
REMARK  status: ('A' for Active; 'I' for Inactive)
REMARK    1  A    between atoms: C_9  and  C_10 
REMARK    2  A    between atoms: C_10  and  N_11 
REMARK       I    between atoms: N_11  and  C_12 
REMARK    3  A    between atoms: N_11  and  C_22 
REMARK    4  A    between atoms: C_12  and  C_13 
REMARK    5  A    between atoms: C_16  and  O_17 
REMARK    6  A    between atoms: C_22  and  C_23 
ROOT
HETATM    1  N   UNL     1       6.665  26.469  53.614  1.00  0.00    -0.341 N 
HETATM    2  C   UNL     1       7.623  25.565  53.149  1.00  0.00     0.254 C 
HETATM    3  O   UNL     1       8.391  25.810  52.222  1.00  0.00    -0.267 OA
ENDROOT
BRANCH   1   4
HETATM    4  C   UNL     1       6.572  27.768  52.928  1.00  0.00     0.170 C 
BRANCH   4   5
HETATM    5  C   UNL     1       5.514  27.830  51.857  1.00  0.00     0.029 A 
HETATM    6  C   UNL     1       4.553  28.968  52.038  1.00  0.00     0.253 A 
HETATM    7  N   UNL     1       3.552  29.103  51.115  1.00  0.00    -0.322 N 
HETATM    8  O   UNL     1       4.642  29.753  52.978  1.00  0.00    -0.268 OA
HETATM    9  C   UNL     1       3.357  28.221  50.048  1.00  0.00     0.045 A 
HETATM   10  H   UNL     1       2.917  29.873  51.264  1.00  0.00     0.169 HD
HETATM   11  C   UNL     1       4.239  27.150  49.879  1.00  0.00    -0.008 A 
HETATM   12  C   UNL     1       2.282  28.408  49.180  1.00  0.00     0.031 A 
HETATM   13  C   UNL     1       4.024  26.246  48.834  1.00  0.00     0.020 A 
HETATM   14  C   UNL     1       5.352  26.992  50.817  1.00  0.00     0.028 A 
HETATM   15  C   UNL     1       2.931  26.405  47.968  1.00  0.00    -0.061 A 
HETATM   16  C   UNL     1       2.700  25.440  46.842  1.00  0.00     0.048 C 
HETATM   17  C   UNL     1       2.074  27.502  48.140  1.00  0.00     0.009 A 
ENDBRANCH   4   5
ENDBRANCH   1   4
BRANCH   1  18
HETATM   18  C   UNL     1       5.521  26.104  54.473  1.00  0.00     0.158 C 
BRANCH  18  19
HETATM   19  C   UNL     1       5.597  26.700  55.885  1.00  0.00     0.139 C 
HETATM   20  O   UNL     1       6.920  27.169  56.196  1.00  0.00    -0.384 OA
HETATM   21  C   UNL     1       6.811  28.343  57.015  1.00  0.00     0.168 C 
HETATM   22  C   UNL     1       5.334  28.597  57.239  1.00  0.00     0.029 C 
HETATM   23  C   UNL     1       4.703  27.919  56.049  1.00  0.00     0.035 C 
ENDBRANCH  18  19
ENDBRANCH   1  18
BRANCH   2  24
HETATM   24  C   UNL     1       7.758  24.238  53.793  1.00  0.00     0.032 A 
HETATM   25  C   UNL     1       7.592  23.097  53.005  1.00  0.00     0.020 A 
HETATM   26  C   UNL     1       7.743  21.833  53.578  1.00  0.00     0.038 A 
HETATM   27  C   UNL     1       8.072  21.697  54.929  1.00  0.00     0.068 A 
HETATM   28  C   UNL     1       8.266  22.841  55.707  1.00  0.00     0.038 A 
HETATM   29  C   UNL     1       8.123  24.112  55.137  1.00  0.00     0.020 A 
BRANCH  27  30
HETATM   30  O   UNL     1       8.185  20.403  55.358  1.00  0.00    -0.356 OA
HETATM   31  C   UNL     1       9.148  20.136  56.368  1.00  0.00     0.210 C 
ENDBRANCH  27  30
ENDBRANCH   2  24
TORSDOF 6
ENDMDL
MODEL 4
REMARK VINA RESULT:      -9.0      1.510      2.000
REMARK  6 active torsions:
REMARK  status: ('A' for Active; 'I' for Inactive)
REMARK    1  A    between atoms: C_9  and  C_10 
REMARK    2  A    between atoms: C_10  and  N_11 
REMARK       I    between atoms: N_11  and  C_12 
REMARK    3  A    between atoms: N_11  and  C_22 
REMARK    4  A    between atoms: C_12  and  C_13 
REMARK    5  A    between atoms: C_16  and  O_17 
REMARK    6  A    between atoms: C_22  and  C_23 
ROOT
HETATM    1  N   UNL     1       5.671  27.495  55.165  1.00  0.00    -0.341 N 
HETATM    2  C   UNL     1       5.598  27.627  56.553  1.00  0.00     0.254 C 
HETATM    3  O   UNL     1       5.012  26.826  57.279  1.00  0.00    -0.267 OA
ENDROOT
BRANCH   1   4
HETATM    4  C   UNL     1       4.985  26.344  54.557  1.00  0.00     0.170 C 
BRANCH   4   5
HETATM    5  C   UNL     1       5.874  25.155  54.302  1.00  0.00     0.029 A 
HETATM    6  C   UNL     1       6.055  24.853  52.843  1.00  0.00     0.253 A 
HETATM    7  N   UNL     1       6.845  23.785  52.512  1.00  0.00    -0.322 N 
HETATM    8  O   UNL     1       5.516  25.523  51.967  1.00  0.00    -0.268 OA
HETATM    9  C   UNL     1       7.451  22.947  53.454  1.00  0.00     0.045 A 
HETATM   10  H   UNL     1       6.944  23.601  51.525  1.00  0.00     0.169 HD
HETATM   11  C   UNL     1       7.276  23.213  54.814  1.00  0.00    -0.008 A 
HETATM   12  C   UNL     1       8.202  21.853  53.028  1.00  0.00     0.031 A 
HETATM   13  C   UNL     1       7.852  22.355  55.758  1.00  0.00     0.020 A 
HETATM   14  C   UNL     1       6.477  24.372  55.216  1.00  0.00     0.028 A 
HETATM   15  C   UNL     1       8.588  21.234  55.344  1.00  0.00    -0.061 A 
HETATM   16  C   UNL     1       9.211  20.314  56.353  1.00  0.00     0.048 C 
HETATM   17  C   UNL     1       8.773  21.002  53.974  1.00  0.00     0.009 A 
ENDBRANCH   4   5
ENDBRANCH   1   4
BRANCH   1  18
HETATM   18  C   UNL     1       6.058  28.582  54.244  1.00  0.00     0.158 C 
BRANCH  18  19
HETATM   19  C   UNL     1       5.015  28.868  53.156  1.00  0.00     0.139 C 
HETATM   20  O   UNL     1       4.365  30.135  53.360  1.00  0.00    -0.384 OA
HETATM   21  C   UNL     1       4.091  30.722  52.080  1.00  0.00     0.168 C 
HETATM   22  C   UNL     1       4.581  29.750  51.026  1.00  0.00     0.029 C 
HETATM   23  C   UNL     1       5.632  28.967  51.770  1.00  0.00     0.035 C 
ENDBRANCH  18  19
ENDBRANCH   1  18
BRANCH   2  24
HETATM   24  C   UNL     1       6.262  28.770  57.222  1.00  0.00     0.032 A 
HETATM   25  C   UNL     1       7.598  28.632  57.603  1.00  0.00     0.020 A 
HETATM   26  C   UNL     1       8.260  29.702  58.208  1.00  0.00     0.038 A 
HETATM   27  C   UNL     1       7.602  30.916  58.423  1.00  0.00     0.068 A 
HETATM   28  C   UNL     1       6.275  31.060  58.013  1.00  0.00     0.038 A 
HETATM   29  C   UNL     1       5.608  29.992  57.400  1.00  0.00     0.020 A 
BRANCH  27  30
HETATM   30  O   UNL     1       8.367  31.876  59.027  1.00  0.00    -0.356 OA
HETATM   31  C   UNL     1       9.775  31.685  59.016  1.00  0.00     0.210 C 
ENDBRANCH  27  30
ENDBRANCH   2  24
TORSDOF 6
ENDMDL
MODEL 5
REMARK VINA RESULT:      -8.7      2.552      5.322
REMARK  6 active torsions:
REMARK  status: ('A' for Active; 'I' for Inactive)
REMARK    1  A    between atoms: C_9  and  C_10 
REMARK    2  A    between atoms: C_10  and  N_11 
REMARK       I    between atoms: N_11  and  C_12 
REMARK    3  A    between atoms: N_11  and  C_22 
REMARK    4  A    between atoms: C_12  and  C_13 
REMARK    5  A    between atoms: C_16  and  O_17 
REMARK    6  A    between atoms: C_22  and  C_23 
ROOT
HETATM    1  N   UNL     1       6.195  27.638  54.976  1.00  0.00    -0.341 N 
HETATM    2  C   UNL     1       6.626  28.073  53.721  1.00  0.00     0.254 C 
HETATM    3  O   UNL     1       7.808  28.103  53.384  1.00  0.00    -0.267 OA
ENDROOT
BRANCH   1   4
HETATM    4  C   UNL     1       7.227  27.220  55.938  1.00  0.00     0.170 C 
BRANCH   4   5
HETATM    5  C   UNL     1       7.505  25.739  55.946  1.00  0.00     0.029 A 
HETATM    6  C   UNL     1       7.824  25.202  57.310  1.00  0.00     0.253 A 
HETATM    7  N   UNL     1       8.096  23.865  57.416  1.00  0.00    -0.322 N 
HETATM    8  O   UNL     1       7.853  25.924  58.303  1.00  0.00    -0.268 OA
HETATM    9  C   UNL     1       8.131  22.992  56.324  1.00  0.00     0.045 A 
HETATM   10  H   UNL     1       8.313  23.533  58.343  1.00  0.00     0.169 HD
HETATM   11  C   UNL     1       7.848  23.485  55.048  1.00  0.00    -0.008 A 
HETATM   12  C   UNL     1       8.462  21.652  56.518  1.00  0.00     0.031 A 
HETATM   13  C   UNL     1       7.918  22.621  53.950  1.00  0.00     0.020 A 
HETATM   14  C   UNL     1       7.508  24.900  54.892  1.00  0.00     0.028 A 
HETATM   15  C   UNL     1       8.277  21.275  54.125  1.00  0.00    -0.061 A 
HETATM   16  C   UNL     1       8.348  20.344  52.951  1.00  0.00     0.048 C 
HETATM   17  C   UNL     1       8.530  20.796  55.418  1.00  0.00     0.009 A 
ENDBRANCH   4   5
ENDBRANCH   1   4
BRANCH   1  18
HETATM   18  C   UNL     1       4.854  27.900  55.534  1.00  0.00     0.158 C 
BRANCH  18  19
HETATM   19  C   UNL     1       4.811  29.092  56.498  1.00  0.00     0.139 C 
HETATM   20  O   UNL     1       5.768  30.103  56.140  1.00  0.00    -0.384 OA
HETATM   21  C   UNL     1       5.210  31.392  56.437  1.00  0.00     0.168 C 
HETATM   22  C   UNL     1       3.837  31.159  57.033  1.00  0.00     0.029 C 
HETATM   23  C   UNL     1       3.468  29.806  56.480  1.00  0.00     0.035 C 
ENDBRANCH  18  19
ENDBRANCH   1  18
BRANCH   2  24
HETATM   24  C   UNL     1       5.635  28.515  52.713  1.00  0.00     0.032 A 
HETATM   25  C   UNL     1       5.311  27.641  51.672  1.00  0.00     0.020 A 
HETATM   26  C   UNL     1       4.357  28.018  50.725  1.00  0.00     0.038 A 
HETATM   27  C   UNL     1       3.713  29.254  50.814  1.00  0.00     0.068 A 
HETATM   28  C   UNL     1       4.017  30.112  51.873  1.00  0.00     0.038 A 
HETATM   29  C   UNL     1       4.969  29.738  52.831  1.00  0.00     0.020 A 
BRANCH  27  30
HETATM   30  O   UNL     1       2.806  29.495  49.818  1.00  0.00    -0.356 OA
HETATM   31  C   UNL     1       1.497  28.970  49.994  1.00  0.00     0.210 C 
ENDBRANCH  27  30
ENDBRANCH   2  24
TORSDOF 6
ENDMDL
MODEL 6
REMARK VINA RESULT:      -8.7      3.048      9.010
REMARK  6 active torsions:
REMARK  status: ('A' for Active; 'I' for Inactive)
REMARK    1  A    between atoms: C_9  and  C_10 
REMARK    2  A    between atoms: C_10  and  N_11 
REMARK       I    between atoms: N_11  and  C_12 
REMARK    3  A    between atoms: N_11  and  C_22 
REMARK    4  A    between atoms: C_12  and  C_13 
REMARK    5  A    between atoms: C_16  and  O_17 
REMARK    6  A    between atoms: C_22  and  C_23 
ROOT
HETATM    1  N   UNL     1       6.143  29.958  57.032  1.00  0.00    -0.341 N 
HETATM    2  C   UNL     1       5.224  29.104  56.418  1.00  0.00     0.254 C 
HETATM    3  O   UNL     1       4.101  29.458  56.067  1.00  0.00    -0.267 OA
ENDROOT
BRANCH   1   4
HETATM    4  C   UNL     1       5.715  31.344  57.284  1.00  0.00     0.170 C 
BRANCH   4   5
HETATM    5  C   UNL     1       5.514  31.676  58.740  1.00  0.00     0.029 A 
HETATM    6  C   UNL     1       4.070  31.716  59.145  1.00  0.00     0.253 A 
HETATM    7  N   UNL     1       3.788  32.015  60.451  1.00  0.00    -0.322 N 
HETATM    8  O   UNL     1       3.163  31.499  58.346  1.00  0.00    -0.268 OA
HETATM    9  C   UNL     1       4.763  32.322  61.404  1.00  0.00     0.045 A 
HETATM   10  H   UNL     1       2.809  32.040  60.694  1.00  0.00     0.169 HD
HETATM   11  C   UNL     1       6.110  32.301  61.032  1.00  0.00    -0.008 A 
HETATM   12  C   UNL     1       4.383  32.660  62.702  1.00  0.00     0.031 A 
HETATM   13  C   UNL     1       7.085  32.642  61.975  1.00  0.00     0.020 A 
HETATM   14  C   UNL     1       6.462  31.942  59.658  1.00  0.00     0.028 A 
HETATM   15  C   UNL     1       6.716  33.012  63.279  1.00  0.00    -0.061 A 
HETATM   16  C   UNL     1       7.759  33.375  64.295  1.00  0.00     0.048 C 
HETATM   17  C   UNL     1       5.361  33.001  63.637  1.00  0.00     0.009 A 
ENDBRANCH   4   5
ENDBRANCH   1   4
BRANCH   1  18
HETATM   18  C   UNL     1       7.343  29.506  57.763  1.00  0.00     0.158 C 
BRANCH  18  19
HETATM   19  C   UNL     1       8.662  29.936  57.108  1.00  0.00     0.139 C 
HETATM   20  O   UNL     1       9.361  30.908  57.905  1.00  0.00    -0.384 OA
HETATM   21  C   UNL     1      10.772  30.679  57.776  1.00  0.00     0.168 C 
HETATM   22  C   UNL     1      10.952  29.512  56.827  1.00  0.00     0.029 C 
HETATM   23  C   UNL     1       9.639  28.782  56.957  1.00  0.00     0.035 C 
ENDBRANCH  18  19
ENDBRANCH   1  18
BRANCH   2  24
HETATM   24  C   UNL     1       5.595  27.696  56.147  1.00  0.00     0.032 A 
HETATM   25  C   UNL     1       6.528  27.436  55.141  1.00  0.00     0.020 A 
HETATM   26  C   UNL     1       6.920  26.121  54.883  1.00  0.00     0.038 A 
HETATM   27  C   UNL     1       6.397  25.062  55.630  1.00  0.00     0.068 A 
HETATM   28  C   UNL     1       5.486  25.329  56.655  1.00  0.00     0.038 A 
HETATM   29  C   UNL     1       5.095  26.647  56.923  1.00  0.00     0.020 A 
BRANCH  27  30
HETATM   30  O   UNL     1       6.864  23.828  55.268  1.00  0.00    -0.356 OA
HETATM   31  C   UNL     1       8.213  23.749  54.828  1.00  0.00     0.210 C 
ENDBRANCH  27  30
ENDBRANCH   2  24
TORSDOF 6
ENDMDL
MODEL 7
REMARK VINA RESULT:      -8.7      4.019      7.251
REMARK  6 active torsions:
REMARK  status: ('A' for Active; 'I' for Inactive)
REMARK    1  A    between atoms: C_9  and  C_10 
REMARK    2  A    between atoms: C_10  and  N_11 
REMARK       I    between atoms: N_11  and  C_12 
REMARK    3  A    between atoms: N_11  and  C_22 
REMARK    4  A    between atoms: C_12  and  C_13 
REMARK    5  A    between atoms: C_16  and  O_17 
REMARK    6  A    between atoms: C_22  and  C_23 
ROOT
HETATM    1  N   UNL     1       5.084  27.871  51.692  1.00  0.00    -0.341 N 
HETATM    2  C   UNL     1       5.065  27.823  50.296  1.00  0.00     0.254 C 
HETATM    3  O   UNL     1       6.081  27.838  49.604  1.00  0.00    -0.267 OA
ENDROOT
BRANCH   1   4
HETATM    4  C   UNL     1       6.397  27.969  52.348  1.00  0.00     0.170 C 
BRANCH   4   5
HETATM    5  C   UNL     1       6.840  26.706  53.040  1.00  0.00     0.029 A 
HETATM    6  C   UNL     1       7.204  26.917  54.481  1.00  0.00     0.253 A 
HETATM    7  N   UNL     1       7.624  25.825  55.193  1.00  0.00    -0.322 N 
HETATM    8  O   UNL     1       7.141  28.021  55.014  1.00  0.00    -0.268 OA
HETATM    9  C   UNL     1       7.769  24.549  54.642  1.00  0.00     0.045 A 
HETATM   10  H   UNL     1       7.868  25.997  56.156  1.00  0.00     0.169 HD
HETATM   11  C   UNL     1       7.445  24.346  53.297  1.00  0.00    -0.008 A 
HETATM   12  C   UNL     1       8.247  23.503  55.429  1.00  0.00     0.031 A 
HETATM   13  C   UNL     1       7.623  23.078  52.735  1.00  0.00     0.020 A 
HETATM   14  C   UNL     1       6.949  25.475  52.508  1.00  0.00     0.028 A 
HETATM   15  C   UNL     1       8.130  22.021  53.508  1.00  0.00    -0.061 A 
HETATM   16  C   UNL     1       8.318  20.658  52.910  1.00  0.00     0.048 C 
HETATM   17  C   UNL     1       8.423  22.241  54.861  1.00  0.00     0.009 A 
ENDBRANCH   4   5
ENDBRANCH   1   4
BRANCH   1  18
HETATM   18  C   UNL     1       3.913  28.193  52.531  1.00  0.00     0.158 C 
BRANCH  18  19
HETATM   19  C   UNL     1       4.167  29.326  53.534  1.00  0.00     0.139 C 
HETATM   20  O   UNL     1       3.321  30.461  53.283  1.00  0.00    -0.384 OA
HETATM   21  C   UNL     1       2.967  31.058  54.539  1.00  0.00     0.168 C 
HETATM   22  C   UNL     1       3.654  30.257  55.626  1.00  0.00     0.029 C 
HETATM   23  C   UNL     1       3.853  28.916  54.964  1.00  0.00     0.035 C 
ENDBRANCH  18  19
ENDBRANCH   1  18
BRANCH   2  24
HETATM   24  C   UNL     1       3.772  27.733  49.579  1.00  0.00     0.032 A 
HETATM   25  C   UNL     1       3.537  26.620  48.769  1.00  0.00     0.020 A 
HETATM   26  C   UNL     1       2.316  26.492  48.104  1.00  0.00     0.038 A 
HETATM   27  C   UNL     1       1.320  27.461  48.252  1.00  0.00     0.068 A 
HETATM   28  C   UNL     1       1.547  28.557  49.086  1.00  0.00     0.038 A 
HETATM   29  C   UNL     1       2.768  28.688  49.761  1.00  0.00     0.020 A 
BRANCH  27  30
HETATM   30  O   UNL     1       0.177  27.212  47.542  1.00  0.00    -0.356 OA
HETATM   31  C   UNL     1       0.090  27.770  46.238  1.00  0.00     0.210 C 
ENDBRANCH  27  30
ENDBRANCH   2  24
TORSDOF 6
ENDMDL
MODEL 8
REMARK VINA RESULT:      -8.6      2.529      5.288
REMARK  6 active torsions:
REMARK  status: ('A' for Active; 'I' for Inactive)
REMARK    1  A    between atoms: C_9  and  C_10 
REMARK    2  A    between atoms: C_10  and  N_11 
REMARK       I    between atoms: N_11  and  C_12 
REMARK    3  A    between atoms: N_11  and  C_22 
REMARK    4  A    between atoms: C_12  and  C_13 
REMARK    5  A    between atoms: C_16  and  O_17 
REMARK    6  A    between atoms: C_22  and  C_23 
ROOT
HETATM    1  N   UNL     1       5.856  27.602  54.717  1.00  0.00    -0.341 N 
HETATM    2  C   UNL     1       4.849  27.684  53.753  1.00  0.00     0.254 C 
HETATM    3  O   UNL     1       3.788  27.066  53.828  1.00  0.00    -0.267 OA
ENDROOT
BRANCH   1   4
HETATM    4  C   UNL     1       5.626  26.706  55.861  1.00  0.00     0.170 C 
BRANCH   4   5
HETATM    5  C   UNL     1       6.397  25.412  55.801  1.00  0.00     0.029 A 
HETATM    6  C   UNL     1       7.137  25.104  57.070  1.00  0.00     0.253 A 
HETATM    7  N   UNL     1       7.871  23.949  57.108  1.00  0.00    -0.322 N 
HETATM    8  O   UNL     1       7.103  25.852  58.042  1.00  0.00    -0.268 OA
HETATM    9  C   UNL     1       7.997  23.074  56.025  1.00  0.00     0.045 A 
HETATM   10  H   UNL     1       8.362  23.770  57.971  1.00  0.00     0.169 HD
HETATM   11  C   UNL     1       7.322  23.360  54.836  1.00  0.00    -0.008 A 
HETATM   12  C   UNL     1       8.803  21.943  56.138  1.00  0.00     0.031 A 
HETATM   13  C   UNL     1       7.476  22.505  53.739  1.00  0.00     0.020 A 
HETATM   14  C   UNL     1       6.489  24.561  54.762  1.00  0.00     0.028 A 
HETATM   15  C   UNL     1       8.306  21.376  53.828  1.00  0.00    -0.061 A 
HETATM   16  C   UNL     1       8.470  20.453  52.656  1.00  0.00     0.048 C 
HETATM   17  C   UNL     1       8.953  21.094  55.040  1.00  0.00     0.009 A 
ENDBRANCH   4   5
ENDBRANCH   1   4
BRANCH   1  18
HETATM   18  C   UNL     1       7.249  28.044  54.508  1.00  0.00     0.158 C 
BRANCH  18  19
HETATM   19  C   UNL     1       7.729  29.075  55.536  1.00  0.00     0.139 C 
HETATM   20  O   UNL     1       6.636  29.631  56.286  1.00  0.00    -0.384 OA
HETATM   21  C   UNL     1       7.076  29.875  57.630  1.00  0.00     0.168 C 
HETATM   22  C   UNL     1       8.533  29.467  57.705  1.00  0.00     0.029 C 
HETATM   23  C   UNL     1       8.648  28.466  56.583  1.00  0.00     0.035 C 
ENDBRANCH  18  19
ENDBRANCH   1  18
BRANCH   2  24
HETATM   24  C   UNL     1       5.027  28.562  52.574  1.00  0.00     0.032 A 
HETATM   25  C   UNL     1       5.466  27.989  51.378  1.00  0.00     0.020 A 
HETATM   26  C   UNL     1       5.614  28.786  50.242  1.00  0.00     0.038 A 
HETATM   27  C   UNL     1       5.314  30.150  50.284  1.00  0.00     0.068 A 
HETATM   28  C   UNL     1       4.846  30.714  51.473  1.00  0.00     0.038 A 
HETATM   29  C   UNL     1       4.690  29.918  52.615  1.00  0.00     0.020 A 
BRANCH  27  30
HETATM   30  O   UNL     1       5.508  30.810  49.101  1.00  0.00    -0.356 OA
HETATM   31  C   UNL     1       6.142  32.080  49.165  1.00  0.00     0.210 C 
ENDBRANCH  27  30
ENDBRANCH   2  24
TORSDOF 6
ENDMDL
MODEL 9
REMARK VINA RESULT:      -8.4      3.437      9.386
REMARK  6 active torsions:
REMARK  status: ('A' for Active; 'I' for Inactive)
REMARK    1  A    between atoms: C_9  and  C_10 
REMARK    2  A    between atoms: C_10  and  N_11 
REMARK       I    between atoms: N_11  and  C_12 
REMARK    3  A    between atoms: N_11  and  C_22 
REMARK    4  A    between atoms: C_12  and  C_13 
REMARK    5  A    between atoms: C_16  and  O_17 
REMARK    6  A    between atoms: C_22  and  C_23 
ROOT
HETATM    1  N   UNL     1       8.207  30.320  58.441  1.00  0.00    -0.341 N 
HETATM    2  C   UNL     1       8.887  29.395  57.645  1.00  0.00     0.254 C 
HETATM    3  O   UNL     1      10.095  29.450  57.425  1.00  0.00    -0.267 OA
ENDROOT
BRANCH   1   4
HETATM    4  C   UNL     1       8.992  31.422  59.018  1.00  0.00     0.170 C 
BRANCH   4   5
HETATM    5  C   UNL     1       8.503  31.897  60.361  1.00  0.00     0.029 A 
HETATM    6  C   UNL     1       8.934  31.013  61.495  1.00  0.00     0.253 A 
HETATM    7  N   UNL     1       8.532  31.362  62.756  1.00  0.00    -0.322 N 
HETATM    8  O   UNL     1       9.615  30.008  61.314  1.00  0.00    -0.268 OA
HETATM    9  C   UNL     1       7.716  32.463  63.034  1.00  0.00     0.045 A 
HETATM   10  H   UNL     1       8.832  30.747  63.498  1.00  0.00     0.169 HD
HETATM   11  C   UNL     1       7.298  33.283  61.982  1.00  0.00    -0.008 A 
HETATM   12  C   UNL     1       7.316  32.718  64.344  1.00  0.00     0.031 A 
HETATM   13  C   UNL     1       6.452  34.364  62.253  1.00  0.00     0.020 A 
HETATM   14  C   UNL     1       7.740  32.975  60.621  1.00  0.00     0.028 A 
HETATM   15  C   UNL     1       6.019  34.617  63.564  1.00  0.00    -0.061 A 
HETATM   16  C   UNL     1       5.115  35.779  63.860  1.00  0.00     0.048 C 
HETATM   17  C   UNL     1       6.472  33.797  64.607  1.00  0.00     0.009 A 
ENDBRANCH   4   5
ENDBRANCH   1   4
BRANCH   1  18
HETATM   18  C   UNL     1       6.741  30.489  58.454  1.00  0.00     0.158 C 
BRANCH  18  19
HETATM   19  C   UNL     1       6.233  31.539  57.458  1.00  0.00     0.139 C 
HETATM   20  O   UNL     1       5.590  30.932  56.324  1.00  0.00    -0.384 OA
HETATM   21  C   UNL     1       4.502  31.771  55.908  1.00  0.00     0.168 C 
HETATM   22  C   UNL     1       4.489  32.976  56.827  1.00  0.00     0.029 C 
HETATM   23  C   UNL     1       5.177  32.451  58.062  1.00  0.00     0.035 C 
ENDBRANCH  18  19
ENDBRANCH   1  18
BRANCH   2  24
HETATM   24  C   UNL     1       8.149  28.268  57.030  1.00  0.00     0.032 A 
HETATM   25  C   UNL     1       7.864  28.326  55.664  1.00  0.00     0.020 A 
HETATM   26  C   UNL     1       7.197  27.266  55.050  1.00  0.00     0.038 A 
HETATM   27  C   UNL     1       6.821  26.138  55.785  1.00  0.00     0.068 A 
HETATM   28  C   UNL     1       7.133  26.070  57.145  1.00  0.00     0.038 A 
HETATM   29  C   UNL     1       7.809  27.129  57.765  1.00  0.00     0.020 A 
BRANCH  27  30
HETATM   30  O   UNL     1       6.171  25.178  55.059  1.00  0.00    -0.356 OA
HETATM   31  C   UNL     1       6.856  23.952  54.845  1.00  0.00     0.210 C 
ENDBRANCH  27  30
ENDBRANCH   2  24
TORSDOF 6
ENDMDL
MODEL 10
REMARK VINA RESULT:      -8.3      4.107      6.471
REMARK  6 active torsions:
REMARK  status: ('A' for Active; 'I' for Inactive)
REMARK    1  A    between atoms: C_9  and  C_10 
REMARK    2  A    between atoms: C_10  and  N_11 
REMARK       I    between atoms: N_11  and  C_12 
REMARK    3  A    between atoms: N_11  and  C_22 
REMARK    4  A    between atoms: C_12  and  C_13 
REMARK    5  A    between atoms: C_16  and  O_17 
REMARK    6  A    between atoms: C_22  and  C_23 
ROOT
HETATM    1  N   UNL     1       5.715  32.451  59.526  1.00  0.00    -0.341 N 
HETATM    2  C   UNL     1       6.978  32.564  60.113  1.00  0.00     0.254 C 
HETATM    3  O   UNL     1       8.029  32.458  59.485  1.00  0.00    -0.267 OA
ENDROOT
BRANCH   1   4
HETATM    4  C   UNL     1       5.663  32.166  58.084  1.00  0.00     0.170 C 
BRANCH   4   5
HETATM    5  C   UNL     1       5.663  30.698  57.741  1.00  0.00     0.029 A 
HETATM    6  C   UNL     1       4.321  30.193  57.299  1.00  0.00     0.253 A 
HETATM    7  N   UNL     1       4.221  28.868  56.971  1.00  0.00    -0.322 N 
HETATM    8  O   UNL     1       3.338  30.925  57.237  1.00  0.00    -0.268 OA
HETATM    9  C   UNL     1       5.283  27.964  57.065  1.00  0.00     0.045 A 
HETATM   10  H   UNL     1       3.306  28.555  56.683  1.00  0.00     0.169 HD
HETATM   11  C   UNL     1       6.533  28.423  57.488  1.00  0.00    -0.008 A 
HETATM   12  C   UNL     1       5.081  26.621  56.753  1.00  0.00     0.031 A 
HETATM   13  C   UNL     1       7.588  27.513  57.617  1.00  0.00     0.020 A 
HETATM   14  C   UNL     1       6.699  29.842  57.807  1.00  0.00     0.028 A 
HETATM   15  C   UNL     1       7.392  26.152  57.333  1.00  0.00    -0.061 A 
HETATM   16  C   UNL     1       8.522  25.173  57.465  1.00  0.00     0.048 C 
HETATM   17  C   UNL     1       6.137  25.718  56.884  1.00  0.00     0.009 A 
ENDBRANCH   4   5
ENDBRANCH   1   4
BRANCH   1  18
HETATM   18  C   UNL     1       4.463  32.235  60.277  1.00  0.00     0.158 C 
BRANCH  18  19
HETATM   19  C   UNL     1       3.712  33.531  60.608  1.00  0.00     0.139 C 
HETATM   20  O   UNL     1       2.591  33.737  59.730  1.00  0.00    -0.384 OA
HETATM   21  C   UNL     1       1.533  34.359  60.474  1.00  0.00     0.168 C 
HETATM   22  C   UNL     1       2.040  34.568  61.886  1.00  0.00     0.029 C 
HETATM   23  C   UNL     1       3.113  33.515  62.005  1.00  0.00     0.035 C 
ENDBRANCH  18  19
ENDBRANCH   1  18
BRANCH   2  24
HETATM   24  C   UNL     1       7.094  32.842  61.564  1.00  0.00     0.032 A 
HETATM   25  C   UNL     1       6.552  34.031  62.058  1.00  0.00     0.020 A 
HETATM   26  C   UNL     1       6.620  34.306  63.425  1.00  0.00     0.038 A 
HETATM   27  C   UNL     1       7.212  33.398  64.307  1.00  0.00     0.068 A 
HETATM   28  C   UNL     1       7.726  32.197  63.812  1.00  0.00     0.038 A 
HETATM   29  C   UNL     1       7.656  31.912  62.443  1.00  0.00     0.020 A 
BRANCH  27  30
HETATM   30  O   UNL     1       7.213  33.796  65.616  1.00  0.00    -0.356 OA
HETATM   31  C   UNL     1       5.960  34.146  66.187  1.00  0.00     0.210 C 
ENDBRANCH  27  30
ENDBRANCH   2  24
TORSDOF 6
ENDMDL
