MODEL 1
REMARK VINA RESULT:      -8.6      0.000      0.000
REMARK  7 active torsions:
REMARK  status: ('A' for Active; 'I' for Inactive)
REMARK    1  A    between atoms: C_7  and  C_8 
REMARK    2  A    between atoms: C_8  and  C_9 
REMARK    3  A    between atoms: C_9  and  C_10 
REMARK    4  A    between atoms: C_10  and  O_11 
REMARK    5  A    between atoms: C_13  and  C_14 
REMARK    6  A    between atoms: C_22  and  C_23 
REMARK       I    between atoms: C_23  and  N_24 
REMARK    7  A    between atoms: N_24  and  C_25 
ROOT
HETATM    1  C   UNL     1       5.118  26.603  50.515  1.00  0.00     0.070 C 
HETATM    2  C   UNL     1       4.954  27.337  51.824  1.00  0.00     0.037 C 
HETATM    3  N   UNL     1       4.670  28.697  51.724  1.00  0.00    -0.192 N 
HETATM    4  C   UNL     1       4.301  29.449  52.778  1.00  0.00     0.726 A 
HETATM    5  N   UNL     1       4.403  28.926  54.035  1.00  0.00    -0.083 N 
HETATM    6  N   UNL     1       3.856  29.744  54.957  1.00  0.00    -0.140 NA
HETATM    7  C   UNL     1       3.485  30.777  54.184  1.00  0.00     0.166 A 
HETATM    8  N   UNL     1       3.762  30.637  52.843  1.00  0.00    -0.046 NA
HETATM    9  C   UNL     1       4.849  27.557  54.323  1.00  0.00     0.204 C 
HETATM   10  C   UNL     1       5.023  26.744  53.045  1.00  0.00     0.062 C 
HETATM   11  H   UNL     1       4.518  29.073  50.791  1.00  0.00     0.184 HD
ENDROOT
BRANCH  10  12
HETATM   12  C   UNL     1       5.315  25.285  53.163  1.00  0.00     0.256 C 
HETATM   13  N   UNL     1       6.641  24.990  53.404  1.00  0.00    -0.323 N 
HETATM   14  H   UNL     1       7.323  25.735  53.383  1.00  0.00     0.169 HD
HETATM   15  O   UNL     1       4.406  24.473  53.033  1.00  0.00    -0.267 OA
BRANCH  13  16
HETATM   16  C   UNL     1       7.186  23.724  53.716  1.00  0.00     0.035 A 
HETATM   17  C   UNL     1       7.642  22.814  52.758  1.00  0.00     0.032 A 
HETATM   18  C   UNL     1       8.114  21.557  53.147  1.00  0.00     0.044 A 
HETATM   19  C   UNL     1       8.140  21.217  54.494  1.00  0.00     0.116 A 
HETATM   20  F   UNL     1       8.590  20.011  54.863  1.00  0.00    -0.206 F 
HETATM   21  C   UNL     1       7.701  22.110  55.460  1.00  0.00     0.044 A 
HETATM   22  C   UNL     1       7.217  23.361  55.071  1.00  0.00     0.032 A 
ENDBRANCH  13  16
ENDBRANCH  10  12
BRANCH   9  23
HETATM   23  C   UNL     1       6.110  27.598  55.185  1.00  0.00    -0.005 A 
HETATM   24  C   UNL     1       6.295  26.753  56.301  1.00  0.00     0.064 A 
HETATM   25 CL   UNL     1       5.092  25.570  56.714  1.00  0.00    -0.082 Cl
HETATM   26  C   UNL     1       7.465  26.858  57.075  1.00  0.00     0.056 A 
HETATM   27 CL   UNL     1       7.757  25.863  58.462  1.00  0.00    -0.083 Cl
HETATM   28  C   UNL     1       8.453  27.788  56.743  1.00  0.00     0.026 A 
HETATM   29  C   UNL     1       8.287  28.618  55.640  1.00  0.00     0.002 A 
HETATM   30  C   UNL     1       7.129  28.525  54.869  1.00  0.00     0.011 A 
ENDBRANCH   9  23
BRANCH   7  31
HETATM   31  C   UNL     1       2.725  31.934  54.718  1.00  0.00     0.085 C 
BRANCH  31  32
HETATM   32  C   UNL     1       3.626  32.974  55.386  1.00  0.00     0.034 C 
BRANCH  32  33
HETATM   33  C   UNL     1       3.506  32.984  56.906  1.00  0.00     0.164 C 
BRANCH  33  34
HETATM   34  O   UNL     1       3.027  31.722  57.358  1.00  0.00    -0.401 OA
HETATM   35  H   UNL     1       3.729  31.317  57.894  1.00  0.00     0.209 HD
ENDBRANCH  33  34
ENDBRANCH  32  33
ENDBRANCH  31  32
ENDBRANCH   7  31
TORSDOF 7
ENDMDL
MODEL 2
REMARK VINA RESULT:      -7.8      3.643      6.799
REMARK  7 active torsions:
REMARK  status: ('A' for Active; 'I' for Inactive)
REMARK    1  A    between atoms: C_7  and  C_8 
REMARK    2  A    between atoms: C_8  and  C_9 
REMARK    3  A    between atoms: C_9  and  C_10 
REMARK    4  A    between atoms: C_10  and  O_11 
REMARK    5  A    between atoms: C_13  and  C_14 
REMARK    6  A    between atoms: C_22  and  C_23 
REMARK       I    between atoms: C_23  and  N_24 
REMARK    7  A    between atoms: N_24  and  C_25 
ROOT
HETATM    1  C   UNL     1       2.755  30.912  55.485  1.00  0.00     0.070 C 
HETATM    2  C   UNL     1       3.617  30.234  54.448  1.00  0.00     0.037 C 
HETATM    3  N   UNL     1       3.171  30.333  53.132  1.00  0.00    -0.192 N 
HETATM    4  C   UNL     1       3.916  29.960  52.075  1.00  0.00     0.726 A 
HETATM    5  N   UNL     1       5.072  29.266  52.289  1.00  0.00    -0.083 N 
HETATM    6  N   UNL     1       5.770  29.103  51.147  1.00  0.00    -0.140 NA
HETATM    7  C   UNL     1       4.943  29.685  50.265  1.00  0.00     0.166 A 
HETATM    8  N   UNL     1       3.785  30.205  50.798  1.00  0.00    -0.046 NA
HETATM    9  C   UNL     1       5.597  28.931  53.619  1.00  0.00     0.204 C 
HETATM   10  C   UNL     1       4.785  29.596  54.725  1.00  0.00     0.062 C 
HETATM   11  H   UNL     1       2.353  30.913  52.960  1.00  0.00     0.184 HD
ENDROOT
BRANCH  10  12
HETATM   12  C   UNL     1       5.277  29.494  56.130  1.00  0.00     0.256 C 
HETATM   13  N   UNL     1       6.209  30.452  56.475  1.00  0.00    -0.323 N 
HETATM   14  H   UNL     1       6.566  31.071  55.762  1.00  0.00     0.169 HD
HETATM   15  O   UNL     1       4.855  28.601  56.857  1.00  0.00    -0.267 OA
BRANCH  13  16
HETATM   16  C   UNL     1       6.730  30.703  57.764  1.00  0.00     0.035 A 
HETATM   17  C   UNL     1       6.268  31.718  58.607  1.00  0.00     0.032 A 
HETATM   18  C   UNL     1       6.878  31.938  59.846  1.00  0.00     0.044 A 
HETATM   19  C   UNL     1       7.940  31.136  60.245  1.00  0.00     0.116 A 
HETATM   20  F   UNL     1       8.523  31.351  61.430  1.00  0.00    -0.206 F 
HETATM   21  C   UNL     1       8.406  30.117  59.426  1.00  0.00     0.044 A 
HETATM   22  C   UNL     1       7.806  29.905  58.183  1.00  0.00     0.032 A 
ENDBRANCH  13  16
ENDBRANCH  10  12
BRANCH   9  23
HETATM   23  C   UNL     1       5.687  27.413  53.769  1.00  0.00    -0.005 A 
HETATM   24  C   UNL     1       6.762  26.778  54.428  1.00  0.00     0.064 A 
HETATM   25 CL   UNL     1       8.026  27.722  55.156  1.00  0.00    -0.082 Cl
HETATM   26  C   UNL     1       6.806  25.374  54.509  1.00  0.00     0.056 A 
HETATM   27 CL   UNL     1       8.096  24.525  55.292  1.00  0.00    -0.083 Cl
HETATM   28  C   UNL     1       5.786  24.600  53.949  1.00  0.00     0.026 A 
HETATM   29  C   UNL     1       4.716  25.216  53.307  1.00  0.00     0.002 A 
HETATM   30  C   UNL     1       4.667  26.606  53.218  1.00  0.00     0.011 A 
ENDBRANCH   9  23
BRANCH   7  31
HETATM   31  C   UNL     1       5.304  29.863  48.836  1.00  0.00     0.085 C 
BRANCH  31  32
HETATM   32  C   UNL     1       4.495  28.956  47.907  1.00  0.00     0.034 C 
BRANCH  32  33
HETATM   33  C   UNL     1       4.958  27.503  47.934  1.00  0.00     0.164 C 
BRANCH  33  34
HETATM   34  O   UNL     1       5.983  27.308  46.965  1.00  0.00    -0.401 OA
HETATM   35  H   UNL     1       5.888  28.004  46.293  1.00  0.00     0.209 HD
ENDBRANCH  33  34
ENDBRANCH  32  33
ENDBRANCH  31  32
ENDBRANCH   7  31
TORSDOF 7
ENDMDL
MODEL 3
REMARK VINA RESULT:      -7.8      6.787     10.830
REMARK  7 active torsions:
REMARK  status: ('A' for Active; 'I' for Inactive)
REMARK    1  A    between atoms: C_7  and  C_8 
REMARK    2  A    between atoms: C_8  and  C_9 
REMARK    3  A    between atoms: C_9  and  C_10 
REMARK    4  A    between atoms: C_10  and  O_11 
REMARK    5  A    between atoms: C_13  and  C_14 
REMARK    6  A    between atoms: C_22  and  C_23 
REMARK       I    between atoms: C_23  and  N_24 
REMARK    7  A    between atoms: N_24  and  C_25 
ROOT
HETATM    1  C   UNL     1       8.705  32.370  60.738  1.00  0.00     0.070 C 
HETATM    2  C   UNL     1       7.434  32.108  59.968  1.00  0.00     0.037 C 
HETATM    3  N   UNL     1       7.569  31.326  58.823  1.00  0.00    -0.192 N 
HETATM    4  C   UNL     1       6.518  30.838  58.139  1.00  0.00     0.726 A 
HETATM    5  N   UNL     1       5.264  31.284  58.441  1.00  0.00    -0.083 N 
HETATM    6  N   UNL     1       4.318  30.591  57.775  1.00  0.00    -0.140 NA
HETATM    7  C   UNL     1       5.084  29.767  57.042  1.00  0.00     0.166 A 
HETATM    8  N   UNL     1       6.441  29.907  57.226  1.00  0.00    -0.046 NA
HETATM    9  C   UNL     1       4.967  32.243  59.514  1.00  0.00     0.204 C 
HETATM   10  C   UNL     1       6.205  32.546  60.351  1.00  0.00     0.062 C 
HETATM   11  H   UNL     1       8.488  30.929  58.637  1.00  0.00     0.184 HD
ENDROOT
BRANCH  10  12
HETATM   12  C   UNL     1       6.047  33.375  61.582  1.00  0.00     0.256 C 
HETATM   13  N   UNL     1       5.797  32.647  62.727  1.00  0.00    -0.323 N 
HETATM   14  H   UNL     1       5.638  31.652  62.654  1.00  0.00     0.169 HD
HETATM   15  O   UNL     1       6.132  34.596  61.505  1.00  0.00    -0.267 OA
BRANCH  13  16
HETATM   16  C   UNL     1       5.759  33.136  64.052  1.00  0.00     0.035 A 
HETATM   17  C   UNL     1       4.580  33.457  64.731  1.00  0.00     0.032 A 
HETATM   18  C   UNL     1       4.633  33.991  66.022  1.00  0.00     0.044 A 
HETATM   19  C   UNL     1       5.863  34.192  66.637  1.00  0.00     0.116 A 
HETATM   20  F   UNL     1       5.910  34.706  67.871  1.00  0.00    -0.206 F 
HETATM   21  C   UNL     1       7.044  33.870  65.982  1.00  0.00     0.044 A 
HETATM   22  C   UNL     1       6.992  33.349  64.688  1.00  0.00     0.032 A 
ENDBRANCH  13  16
ENDBRANCH  10  12
BRANCH   9  23
HETATM   23  C   UNL     1       4.321  33.493  58.921  1.00  0.00    -0.005 A 
HETATM   24  C   UNL     1       3.204  34.123  59.512  1.00  0.00     0.064 A 
HETATM   25 CL   UNL     1       2.540  33.518  60.999  1.00  0.00    -0.082 Cl
HETATM   26  C   UNL     1       2.633  35.256  58.904  1.00  0.00     0.056 A 
HETATM   27 CL   UNL     1       1.258  36.075  59.565  1.00  0.00    -0.083 Cl
HETATM   28  C   UNL     1       3.168  35.770  57.721  1.00  0.00     0.026 A 
HETATM   29  C   UNL     1       4.275  35.165  57.135  1.00  0.00     0.002 A 
HETATM   30  C   UNL     1       4.845  34.039  57.728  1.00  0.00     0.011 A 
ENDBRANCH   9  23
BRANCH   7  31
HETATM   31  C   UNL     1       4.507  28.702  56.184  1.00  0.00     0.085 C 
BRANCH  31  32
HETATM   32  C   UNL     1       5.556  27.696  55.708  1.00  0.00     0.034 C 
BRANCH  32  33
HETATM   33  C   UNL     1       5.641  26.455  56.590  1.00  0.00     0.164 C 
BRANCH  33  34
HETATM   34  O   UNL     1       4.361  26.171  57.144  1.00  0.00    -0.401 OA
HETATM   35  H   UNL     1       4.300  25.208  57.262  1.00  0.00     0.209 HD
ENDBRANCH  33  34
ENDBRANCH  32  33
ENDBRANCH  31  32
ENDBRANCH   7  31
TORSDOF 7
ENDMDL
MODEL 4
REMARK VINA RESULT:      -7.5      4.384      6.491
REMARK  7 active torsions:
REMARK  status: ('A' for Active; 'I' for Inactive)
REMARK    1  A    between atoms: C_7  and  C_8 
REMARK    2  A    between atoms: C_8  and  C_9 
REMARK    3  A    between atoms: C_9  and  C_10 
REMARK    4  A    between atoms: C_10  and  O_11 
REMARK    5  A    between atoms: C_13  and  C_14 
REMARK    6  A    between atoms: C_22  and  C_23 
REMARK       I    between atoms: C_23  and  N_24 
REMARK    7  A    between atoms: N_24  and  C_25 
ROOT
HETATM    1  C   UNL     1       5.095  29.234  53.964  1.00  0.00     0.070 C 
HETATM    2  C   UNL     1       5.011  29.474  52.476  1.00  0.00     0.037 C 
HETATM    3  N   UNL     1       4.897  30.806  52.084  1.00  0.00    -0.192 N 
HETATM    4  C   UNL     1       5.010  31.206  50.804  1.00  0.00     0.726 A 
HETATM    5  N   UNL     1       5.032  30.266  49.814  1.00  0.00    -0.083 N 
HETATM    6  N   UNL     1       5.300  30.819  48.613  1.00  0.00    -0.140 NA
HETATM    7  C   UNL     1       5.379  32.116  48.948  1.00  0.00     0.166 A 
HETATM    8  N   UNL     1       5.185  32.391  50.283  1.00  0.00    -0.046 NA
HETATM    9  C   UNL     1       4.989  28.817  50.052  1.00  0.00     0.204 C 
HETATM   10  C   UNL     1       5.085  28.492  51.539  1.00  0.00     0.062 C 
HETATM   11  H   UNL     1       4.958  31.513  52.813  1.00  0.00     0.184 HD
ENDROOT
BRANCH  10  12
HETATM   12  C   UNL     1       5.220  27.064  51.948  1.00  0.00     0.256 C 
HETATM   13  N   UNL     1       6.506  26.686  52.275  1.00  0.00    -0.323 N 
HETATM   14  H   UNL     1       7.264  27.337  52.125  1.00  0.00     0.169 HD
HETATM   15  O   UNL     1       4.229  26.341  51.958  1.00  0.00    -0.267 OA
BRANCH  13  16
HETATM   16  C   UNL     1       6.911  25.458  52.843  1.00  0.00     0.035 A 
HETATM   17  C   UNL     1       7.612  24.469  52.145  1.00  0.00     0.032 A 
HETATM   18  C   UNL     1       7.925  23.256  52.765  1.00  0.00     0.044 A 
HETATM   19  C   UNL     1       7.548  23.037  54.084  1.00  0.00     0.116 A 
HETATM   20  F   UNL     1       7.847  21.873  54.673  1.00  0.00    -0.206 F 
HETATM   21  C   UNL     1       6.861  24.010  54.796  1.00  0.00     0.044 A 
HETATM   22  C   UNL     1       6.536  25.216  54.174  1.00  0.00     0.032 A 
ENDBRANCH  13  16
ENDBRANCH  10  12
BRANCH   9  23
HETATM   23  C   UNL     1       3.748  28.224  49.387  1.00  0.00    -0.005 A 
HETATM   24  C   UNL     1       3.823  27.198  48.420  1.00  0.00     0.064 A 
HETATM   25 CL   UNL     1       5.361  26.518  47.979  1.00  0.00    -0.082 Cl
HETATM   26  C   UNL     1       2.648  26.711  47.819  1.00  0.00     0.056 A 
HETATM   27 CL   UNL     1       2.663  25.462  46.620  1.00  0.00    -0.083 Cl
HETATM   28  C   UNL     1       1.402  27.230  48.179  1.00  0.00     0.026 A 
HETATM   29  C   UNL     1       1.315  28.233  49.138  1.00  0.00     0.002 A 
HETATM   30  C   UNL     1       2.474  28.725  49.735  1.00  0.00     0.011 A 
ENDBRANCH   9  23
BRANCH   7  31
HETATM   31  C   UNL     1       5.763  33.165  47.972  1.00  0.00     0.085 C 
BRANCH  31  32
HETATM   32  C   UNL     1       4.853  33.190  46.743  1.00  0.00     0.034 C 
BRANCH  32  33
HETATM   33  C   UNL     1       5.522  32.635  45.490  1.00  0.00     0.164 C 
BRANCH  33  34
HETATM   34  O   UNL     1       5.267  31.238  45.389  1.00  0.00    -0.401 OA
HETATM   35  H   UNL     1       4.306  31.109  45.459  1.00  0.00     0.209 HD
ENDBRANCH  33  34
ENDBRANCH  32  33
ENDBRANCH  31  32
ENDBRANCH   7  31
TORSDOF 7
ENDMDL
MODEL 5
REMARK VINA RESULT:      -7.4      5.711      9.467
REMARK  7 active torsions:
REMARK  status: ('A' for Active; 'I' for Inactive)
REMARK    1  A    between atoms: C_7  and  C_8 
REMARK    2  A    between atoms: C_8  and  C_9 
REMARK    3  A    between atoms: C_9  and  C_10 
REMARK    4  A    between atoms: C_10  and  O_11 
REMARK    5  A    between atoms: C_13  and  C_14 
REMARK    6  A    between atoms: C_22  and  C_23 
REMARK       I    between atoms: C_23  and  N_24 
REMARK    7  A    between atoms: N_24  and  C_25 
ROOT
HETATM    1  C   UNL     1       9.584  30.730  59.050  1.00  0.00     0.070 C 
HETATM    2  C   UNL     1       8.251  30.393  58.426  1.00  0.00     0.037 C 
HETATM    3  N   UNL     1       8.285  29.455  57.397  1.00  0.00    -0.192 N 
HETATM    4  C   UNL     1       7.176  28.900  56.873  1.00  0.00     0.726 A 
HETATM    5  N   UNL     1       5.956  29.413  57.206  1.00  0.00    -0.083 N 
HETATM    6  N   UNL     1       4.951  28.656  56.720  1.00  0.00    -0.140 NA
HETATM    7  C   UNL     1       5.645  27.719  56.055  1.00  0.00     0.166 A 
HETATM    8  N   UNL     1       7.014  27.851  56.111  1.00  0.00    -0.046 NA
HETATM    9  C   UNL     1       5.758  30.520  58.151  1.00  0.00     0.204 C 
HETATM   10  C   UNL     1       7.063  30.909  58.837  1.00  0.00     0.062 C 
HETATM   11  H   UNL     1       9.180  29.014  57.198  1.00  0.00     0.184 HD
ENDROOT
BRANCH  10  12
HETATM   12  C   UNL     1       7.014  31.906  59.946  1.00  0.00     0.256 C 
HETATM   13  N   UNL     1       6.621  31.383  61.161  1.00  0.00    -0.323 N 
HETATM   14  H   UNL     1       6.302  30.426  61.206  1.00  0.00     0.169 HD
HETATM   15  O   UNL     1       7.301  33.077  59.722  1.00  0.00    -0.267 OA
BRANCH  13  16
HETATM   16  C   UNL     1       6.633  32.041  62.412  1.00  0.00     0.035 A 
HETATM   17  C   UNL     1       5.480  32.401  63.115  1.00  0.00     0.032 A 
HETATM   18  C   UNL     1       5.578  33.102  64.321  1.00  0.00     0.044 A 
HETATM   19  C   UNL     1       6.829  33.432  64.827  1.00  0.00     0.116 A 
HETATM   20  F   UNL     1       6.919  34.107  65.980  1.00  0.00    -0.206 F 
HETATM   21  C   UNL     1       7.986  33.075  64.149  1.00  0.00     0.044 A 
HETATM   22  C   UNL     1       7.888  32.386  62.938  1.00  0.00     0.032 A 
ENDBRANCH  13  16
ENDBRANCH  10  12
BRANCH   9  23
HETATM   23  C   UNL     1       5.081  31.689  57.439  1.00  0.00    -0.005 A 
HETATM   24  C   UNL     1       4.102  32.493  58.061  1.00  0.00     0.064 A 
HETATM   25 CL   UNL     1       3.657  32.210  59.717  1.00  0.00    -0.082 Cl
HETATM   26  C   UNL     1       3.491  33.539  57.345  1.00  0.00     0.056 A 
HETATM   27 CL   UNL     1       2.277  34.559  58.039  1.00  0.00    -0.083 Cl
HETATM   28  C   UNL     1       3.854  33.796  56.020  1.00  0.00     0.026 A 
HETATM   29  C   UNL     1       4.826  33.018  55.400  1.00  0.00     0.002 A 
HETATM   30  C   UNL     1       5.432  31.976  56.101  1.00  0.00     0.011 A 
ENDBRANCH   9  23
BRANCH   7  31
HETATM   31  C   UNL     1       4.989  26.558  55.404  1.00  0.00     0.085 C 
BRANCH  31  32
HETATM   32  C   UNL     1       5.976  25.675  54.639  1.00  0.00     0.034 C 
BRANCH  32  33
HETATM   33  C   UNL     1       5.590  25.469  53.179  1.00  0.00     0.164 C 
BRANCH  33  34
HETATM   34  O   UNL     1       4.210  25.130  53.089  1.00  0.00    -0.401 OA
HETATM   35  H   UNL     1       4.116  24.469  52.383  1.00  0.00     0.209 HD
ENDBRANCH  33  34
ENDBRANCH  32  33
ENDBRANCH  31  32
ENDBRANCH   7  31
TORSDOF 7
ENDMDL
MODEL 6
REMARK VINA RESULT:      -7.4      7.939     11.533
REMARK  7 active torsions:
REMARK  status: ('A' for Active; 'I' for Inactive)
REMARK    1  A    between atoms: C_7  and  C_8 
REMARK    2  A    between atoms: C_8  and  C_9 
REMARK    3  A    between atoms: C_9  and  C_10 
REMARK    4  A    between atoms: C_10  and  O_11 
REMARK    5  A    between atoms: C_13  and  C_14 
REMARK    6  A    between atoms: C_22  and  C_23 
REMARK       I    between atoms: C_23  and  N_24 
REMARK    7  A    between atoms: N_24  and  C_25 
ROOT
HETATM    1  C   UNL     1       6.885  33.476  64.509  1.00  0.00     0.070 C 
HETATM    2  C   UNL     1       6.221  34.572  63.710  1.00  0.00     0.037 C 
HETATM    3  N   UNL     1       6.135  35.811  64.339  1.00  0.00    -0.192 N 
HETATM    4  C   UNL     1       5.756  36.934  63.700  1.00  0.00     0.726 A 
HETATM    5  N   UNL     1       5.237  36.838  62.441  1.00  0.00    -0.083 N 
HETATM    6  N   UNL     1       5.051  38.054  61.889  1.00  0.00    -0.140 NA
HETATM    7  C   UNL     1       5.437  38.848  62.900  1.00  0.00     0.166 A 
HETATM    8  N   UNL     1       5.856  38.192  64.035  1.00  0.00    -0.046 NA
HETATM    9  C   UNL     1       5.102  35.577  61.699  1.00  0.00     0.204 C 
HETATM   10  C   UNL     1       5.765  34.420  62.438  1.00  0.00     0.062 C 
HETATM   11  H   UNL     1       6.588  35.906  65.245  1.00  0.00     0.184 HD
ENDROOT
BRANCH  10  12
HETATM   12  C   UNL     1       5.864  33.100  61.751  1.00  0.00     0.256 C 
HETATM   13  N   UNL     1       6.781  33.064  60.721  1.00  0.00    -0.323 N 
HETATM   14  H   UNL     1       7.235  33.920  60.435  1.00  0.00     0.169 HD
HETATM   15  O   UNL     1       5.150  32.171  62.116  1.00  0.00    -0.267 OA
BRANCH  13  16
HETATM   16  C   UNL     1       7.204  31.925  60.000  1.00  0.00     0.035 A 
HETATM   17  C   UNL     1       8.331  31.166  60.331  1.00  0.00     0.032 A 
HETATM   18  C   UNL     1       8.715  30.086  59.531  1.00  0.00     0.044 A 
HETATM   19  C   UNL     1       7.965  29.758  58.408  1.00  0.00     0.116 A 
HETATM   20  F   UNL     1       8.338  28.726  57.642  1.00  0.00    -0.206 F 
HETATM   21  C   UNL     1       6.838  30.493  58.068  1.00  0.00     0.044 A 
HETATM   22  C   UNL     1       6.462  31.580  58.859  1.00  0.00     0.032 A 
ENDBRANCH  13  16
ENDBRANCH  10  12
BRANCH   9  23
HETATM   23  C   UNL     1       3.630  35.323  61.381  1.00  0.00    -0.005 A 
HETATM   24  C   UNL     1       3.075  35.569  60.107  1.00  0.00     0.064 A 
HETATM   25 CL   UNL     1       4.080  36.133  58.806  1.00  0.00    -0.082 Cl
HETATM   26  C   UNL     1       1.705  35.344  59.881  1.00  0.00     0.056 A 
HETATM   27 CL   UNL     1       0.953  35.632  58.348  1.00  0.00    -0.083 Cl
HETATM   28  C   UNL     1       0.887  34.868  60.909  1.00  0.00     0.026 A 
HETATM   29  C   UNL     1       1.425  34.612  62.166  1.00  0.00     0.002 A 
HETATM   30  C   UNL     1       2.780  34.836  62.400  1.00  0.00     0.011 A 
ENDBRANCH   9  23
BRANCH   7  31
HETATM   31  C   UNL     1       5.517  40.324  62.764  1.00  0.00     0.085 C 
BRANCH  31  32
HETATM   32  C   UNL     1       6.926  40.808  62.418  1.00  0.00     0.034 C 
BRANCH  32  33
HETATM   33  C   UNL     1       7.617  41.520  63.576  1.00  0.00     0.164 C 
BRANCH  33  34
HETATM   34  O   UNL     1       8.062  40.563  64.531  1.00  0.00    -0.401 OA
HETATM   35  H   UNL     1       8.937  40.847  64.845  1.00  0.00     0.209 HD
ENDBRANCH  33  34
ENDBRANCH  32  33
ENDBRANCH  31  32
ENDBRANCH   7  31
TORSDOF 7
ENDMDL
MODEL 7
REMARK VINA RESULT:      -7.3      4.222      6.267
REMARK  7 active torsions:
REMARK  status: ('A' for Active; 'I' for Inactive)
REMARK    1  A    between atoms: C_7  and  C_8 
REMARK    2  A    between atoms: C_8  and  C_9 
REMARK    3  A    between atoms: C_9  and  C_10 
REMARK    4  A    between atoms: C_10  and  O_11 
REMARK    5  A    between atoms: C_13  and  C_14 
REMARK    6  A    between atoms: C_22  and  C_23 
REMARK       I    between atoms: C_23  and  N_24 
REMARK    7  A    between atoms: N_24  and  C_25 
ROOT
HETATM    1  C   UNL     1       4.356  28.911  54.226  1.00  0.00     0.070 C 
HETATM    2  C   UNL     1       4.715  29.224  52.794  1.00  0.00     0.037 C 
HETATM    3  N   UNL     1       4.505  30.540  52.391  1.00  0.00    -0.192 N 
HETATM    4  C   UNL     1       4.952  31.030  51.220  1.00  0.00     0.726 A 
HETATM    5  N   UNL     1       5.454  30.168  50.288  1.00  0.00    -0.083 N 
HETATM    6  N   UNL     1       5.994  30.828  49.244  1.00  0.00    -0.140 NA
HETATM    7  C   UNL     1       5.735  32.098  49.591  1.00  0.00     0.166 A 
HETATM    8  N   UNL     1       5.079  32.257  50.790  1.00  0.00    -0.046 NA
HETATM    9  C   UNL     1       5.587  28.720  50.493  1.00  0.00     0.204 C 
HETATM   10  C   UNL     1       5.255  28.325  51.928  1.00  0.00     0.062 C 
HETATM   11  H   UNL     1       4.204  31.202  53.104  1.00  0.00     0.184 HD
ENDROOT
BRANCH  10  12
HETATM   12  C   UNL     1       5.495  26.915  52.353  1.00  0.00     0.256 C 
HETATM   13  N   UNL     1       6.798  26.648  52.720  1.00  0.00    -0.323 N 
HETATM   14  H   UNL     1       7.503  27.358  52.587  1.00  0.00     0.169 HD
HETATM   15  O   UNL     1       4.568  26.112  52.340  1.00  0.00    -0.267 OA
BRANCH  13  16
HETATM   16  C   UNL     1       7.287  25.460  53.310  1.00  0.00     0.035 A 
HETATM   17  C   UNL     1       7.472  25.292  54.686  1.00  0.00     0.032 A 
HETATM   18  C   UNL     1       8.015  24.105  55.185  1.00  0.00     0.044 A 
HETATM   19  C   UNL     1       8.362  23.084  54.310  1.00  0.00     0.116 A 
HETATM   20  F   UNL     1       8.886  21.949  54.791  1.00  0.00    -0.206 F 
HETATM   21  C   UNL     1       8.177  23.227  52.942  1.00  0.00     0.044 A 
HETATM   22  C   UNL     1       7.647  24.418  52.442  1.00  0.00     0.032 A 
ENDBRANCH  13  16
ENDBRANCH  10  12
BRANCH   9  23
HETATM   23  C   UNL     1       4.749  27.974  49.456  1.00  0.00    -0.005 A 
HETATM   24  C   UNL     1       3.343  28.089  49.392  1.00  0.00     0.064 A 
HETATM   25 CL   UNL     1       2.498  29.147  50.480  1.00  0.00    -0.082 Cl
HETATM   26  C   UNL     1       2.621  27.355  48.433  1.00  0.00     0.056 A 
HETATM   27 CL   UNL     1       0.897  27.437  48.301  1.00  0.00    -0.083 Cl
HETATM   28  C   UNL     1       3.287  26.517  47.534  1.00  0.00     0.026 A 
HETATM   29  C   UNL     1       4.672  26.405  47.581  1.00  0.00     0.002 A 
HETATM   30  C   UNL     1       5.395  27.125  48.531  1.00  0.00     0.011 A 
ENDBRANCH   9  23
BRANCH   7  31
HETATM   31  C   UNL     1       6.226  33.253  48.799  1.00  0.00     0.085 C 
BRANCH  31  32
HETATM   32  C   UNL     1       6.008  33.073  47.296  1.00  0.00     0.034 C 
BRANCH  32  33
HETATM   33  C   UNL     1       7.106  33.709  46.450  1.00  0.00     0.164 C 
BRANCH  33  34
HETATM   34  O   UNL     1       7.064  33.178  45.130  1.00  0.00    -0.401 OA
HETATM   35  H   UNL     1       7.763  32.506  45.062  1.00  0.00     0.209 HD
ENDBRANCH  33  34
ENDBRANCH  32  33
ENDBRANCH  31  32
ENDBRANCH   7  31
TORSDOF 7
ENDMDL
MODEL 8
REMARK VINA RESULT:      -7.3      4.302      7.143
REMARK  7 active torsions:
REMARK  status: ('A' for Active; 'I' for Inactive)
REMARK    1  A    between atoms: C_7  and  C_8 
REMARK    2  A    between atoms: C_8  and  C_9 
REMARK    3  A    between atoms: C_9  and  C_10 
REMARK    4  A    between atoms: C_10  and  O_11 
REMARK    5  A    between atoms: C_13  and  C_14 
REMARK    6  A    between atoms: C_22  and  C_23 
REMARK       I    between atoms: C_23  and  N_24 
REMARK    7  A    between atoms: N_24  and  C_25 
ROOT
HETATM    1  C   UNL     1       6.553  25.456  51.963  1.00  0.00     0.070 C 
HETATM    2  C   UNL     1       5.628  26.419  51.260  1.00  0.00     0.037 C 
HETATM    3  N   UNL     1       5.392  26.157  49.913  1.00  0.00    -0.192 N 
HETATM    4  C   UNL     1       4.447  26.794  49.195  1.00  0.00     0.726 A 
HETATM    5  N   UNL     1       3.827  27.883  49.734  1.00  0.00    -0.083 N 
HETATM    6  N   UNL     1       2.810  28.309  48.957  1.00  0.00    -0.140 NA
HETATM    7  C   UNL     1       2.908  27.451  47.929  1.00  0.00     0.166 A 
HETATM    8  N   UNL     1       3.916  26.520  48.034  1.00  0.00    -0.046 NA
HETATM    9  C   UNL     1       4.086  28.394  51.087  1.00  0.00     0.204 C 
HETATM   10  C   UNL     1       5.005  27.463  51.869  1.00  0.00     0.062 C 
HETATM   11  H   UNL     1       5.791  25.303  49.528  1.00  0.00     0.184 HD
ENDROOT
BRANCH  10  12
HETATM   12  C   UNL     1       5.242  27.745  53.315  1.00  0.00     0.256 C 
HETATM   13  N   UNL     1       6.470  28.314  53.588  1.00  0.00    -0.323 N 
HETATM   14  H   UNL     1       7.147  28.405  52.844  1.00  0.00     0.169 HD
HETATM   15  O   UNL     1       4.379  27.459  54.138  1.00  0.00    -0.267 OA
BRANCH  13  16
HETATM   16  C   UNL     1       6.908  28.832  54.827  1.00  0.00     0.035 A 
HETATM   17  C   UNL     1       6.081  29.515  55.723  1.00  0.00     0.032 A 
HETATM   18  C   UNL     1       6.607  30.048  56.904  1.00  0.00     0.044 A 
HETATM   19  C   UNL     1       7.956  29.888  57.192  1.00  0.00     0.116 A 
HETATM   20  F   UNL     1       8.457  30.402  58.322  1.00  0.00    -0.206 F 
HETATM   21  C   UNL     1       8.792  29.204  56.320  1.00  0.00     0.044 A 
HETATM   22  C   UNL     1       8.269  28.683  55.135  1.00  0.00     0.032 A 
ENDBRANCH  13  16
ENDBRANCH  10  12
BRANCH   9  23
HETATM   23  C   UNL     1       4.612  29.826  51.003  1.00  0.00    -0.005 A 
HETATM   24  C   UNL     1       4.168  30.849  51.868  1.00  0.00     0.064 A 
HETATM   25 CL   UNL     1       3.019  30.500  53.124  1.00  0.00    -0.082 Cl
HETATM   26  C   UNL     1       4.667  32.157  51.724  1.00  0.00     0.056 A 
HETATM   27 CL   UNL     1       4.161  33.464  52.741  1.00  0.00    -0.083 Cl
HETATM   28  C   UNL     1       5.608  32.451  50.735  1.00  0.00     0.026 A 
HETATM   29  C   UNL     1       6.062  31.448  49.885  1.00  0.00     0.002 A 
HETATM   30  C   UNL     1       5.570  30.151  50.017  1.00  0.00     0.011 A 
ENDBRANCH   9  23
BRANCH   7  31
HETATM   31  C   UNL     1       1.926  27.432  46.816  1.00  0.00     0.085 C 
BRANCH  31  32
HETATM   32  C   UNL     1       0.480  27.541  47.303  1.00  0.00     0.034 C 
BRANCH  32  33
HETATM   33  C   UNL     1      -0.533  27.598  46.165  1.00  0.00     0.164 C 
BRANCH  33  34
HETATM   34  O   UNL     1       0.032  27.027  44.989  1.00  0.00    -0.401 OA
HETATM   35  H   UNL     1      -0.665  26.513  44.548  1.00  0.00     0.209 HD
ENDBRANCH  33  34
ENDBRANCH  32  33
ENDBRANCH  31  32
ENDBRANCH   7  31
TORSDOF 7
ENDMDL
MODEL 9
REMARK VINA RESULT:      -7.2      6.482      9.300
REMARK  7 active torsions:
REMARK  status: ('A' for Active; 'I' for Inactive)
REMARK    1  A    between atoms: C_7  and  C_8 
REMARK    2  A    between atoms: C_8  and  C_9 
REMARK    3  A    between atoms: C_9  and  C_10 
REMARK    4  A    between atoms: C_10  and  O_11 
REMARK    5  A    between atoms: C_13  and  C_14 
REMARK    6  A    between atoms: C_22  and  C_23 
REMARK       I    between atoms: C_23  and  N_24 
REMARK    7  A    between atoms: N_24  and  C_25 
ROOT
HETATM    1  C   UNL     1       9.649  31.020  62.095  1.00  0.00     0.070 C 
HETATM    2  C   UNL     1       8.441  31.924  62.054  1.00  0.00     0.037 C 
HETATM    3  N   UNL     1       8.040  32.455  63.277  1.00  0.00    -0.192 N 
HETATM    4  C   UNL     1       7.114  33.426  63.389  1.00  0.00     0.726 A 
HETATM    5  N   UNL     1       6.381  33.772  62.291  1.00  0.00    -0.083 N 
HETATM    6  N   UNL     1       5.611  34.853  62.531  1.00  0.00    -0.140 NA
HETATM    7  C   UNL     1       5.896  35.079  63.823  1.00  0.00     0.166 A 
HETATM    8  N   UNL     1       6.801  34.208  64.387  1.00  0.00    -0.046 NA
HETATM    9  C   UNL     1       6.564  33.183  60.958  1.00  0.00     0.204 C 
HETATM   10  C   UNL     1       7.781  32.265  60.915  1.00  0.00     0.062 C 
HETATM   11  H   UNL     1       8.630  32.261  64.084  1.00  0.00     0.184 HD
ENDROOT
BRANCH  10  12
HETATM   12  C   UNL     1       8.209  31.711  59.597  1.00  0.00     0.256 C 
HETATM   13  N   UNL     1       7.583  30.532  59.248  1.00  0.00    -0.323 N 
HETATM   14  H   UNL     1       6.979  30.078  59.917  1.00  0.00     0.169 HD
HETATM   15  O   UNL     1       9.059  32.301  58.939  1.00  0.00    -0.267 OA
BRANCH  13  16
HETATM   16  C   UNL     1       7.665  29.864  58.005  1.00  0.00     0.035 A 
HETATM   17  C   UNL     1       6.624  29.823  57.073  1.00  0.00     0.032 A 
HETATM   18  C   UNL     1       6.765  29.090  55.890  1.00  0.00     0.044 A 
HETATM   19  C   UNL     1       7.949  28.410  55.637  1.00  0.00     0.116 A 
HETATM   20  F   UNL     1       8.079  27.707  54.505  1.00  0.00    -0.206 F 
HETATM   21  C   UNL     1       8.997  28.447  56.546  1.00  0.00     0.044 A 
HETATM   22  C   UNL     1       8.852  29.168  57.732  1.00  0.00     0.032 A 
ENDBRANCH  13  16
ENDBRANCH  10  12
BRANCH   9  23
HETATM   23  C   UNL     1       5.274  32.492  60.519  1.00  0.00    -0.005 A 
HETATM   24  C   UNL     1       4.842  32.475  59.175  1.00  0.00     0.064 A 
HETATM   25 CL   UNL     1       5.809  33.210  57.933  1.00  0.00    -0.082 Cl
HETATM   26  C   UNL     1       3.629  31.848  58.835  1.00  0.00     0.056 A 
HETATM   27 CL   UNL     1       3.031  31.796  57.211  1.00  0.00    -0.083 Cl
HETATM   28  C   UNL     1       2.850  31.232  59.818  1.00  0.00     0.026 A 
HETATM   29  C   UNL     1       3.272  31.233  61.144  1.00  0.00     0.002 A 
HETATM   30  C   UNL     1       4.470  31.856  61.491  1.00  0.00     0.011 A 
ENDBRANCH   9  23
BRANCH   7  31
HETATM   31  C   UNL     1       5.366  36.254  64.559  1.00  0.00     0.085 C 
BRANCH  31  32
HETATM   32  C   UNL     1       3.926  36.052  65.033  1.00  0.00     0.034 C 
BRANCH  32  33
HETATM   33  C   UNL     1       3.832  35.351  66.385  1.00  0.00     0.164 C 
BRANCH  33  34
HETATM   34  O   UNL     1       2.528  35.528  66.927  1.00  0.00    -0.401 OA
HETATM   35  H   UNL     1       2.630  35.786  67.859  1.00  0.00     0.209 HD
ENDBRANCH  33  34
ENDBRANCH  32  33
ENDBRANCH  31  32
ENDBRANCH   7  31
TORSDOF 7
ENDMDL
MODEL 10
REMARK VINA RESULT:      -6.9      7.701     10.396
REMARK  7 active torsions:
REMARK  status: ('A' for Active; 'I' for Inactive)
REMARK    1  A    between atoms: C_7  and  C_8 
REMARK    2  A    between atoms: C_8  and  C_9 
REMARK    3  A    between atoms: C_9  and  C_10 
REMARK    4  A    between atoms: C_10  and  O_11 
REMARK    5  A    between atoms: C_13  and  C_14 
REMARK    6  A    between atoms: C_22  and  C_23 
REMARK       I    between atoms: C_23  and  N_24 
REMARK    7  A    between atoms: N_24  and  C_25 
ROOT
HETATM    1  C   UNL     1       6.303  31.302  58.305  1.00  0.00     0.070 C 
HETATM    2  C   UNL     1       5.178  32.278  58.062  1.00  0.00     0.037 C 
HETATM    3  N   UNL     1       4.823  32.473  56.729  1.00  0.00    -0.192 N 
HETATM    4  C   UNL     1       3.723  33.151  56.354  1.00  0.00     0.726 A 
HETATM    5  N   UNL     1       3.026  33.856  57.292  1.00  0.00    -0.083 N 
HETATM    6  N   UNL     1       1.876  34.349  56.787  1.00  0.00    -0.140 NA
HETATM    7  C   UNL     1       1.969  33.940  55.512  1.00  0.00     0.166 A 
HETATM    8  N   UNL     1       3.101  33.219  55.207  1.00  0.00    -0.046 NA
HETATM    9  C   UNL     1       3.370  33.893  58.719  1.00  0.00     0.204 C 
HETATM   10  C   UNL     1       4.493  32.916  59.048  1.00  0.00     0.062 C 
HETATM   11  H   UNL     1       5.288  31.892  56.034  1.00  0.00     0.184 HD
ENDROOT
BRANCH  10  12
HETATM   12  C   UNL     1       4.858  32.706  60.480  1.00  0.00     0.256 C 
HETATM   13  N   UNL     1       5.938  33.451  60.906  1.00  0.00    -0.323 N 
HETATM   14  H   UNL     1       6.461  33.991  60.231  1.00  0.00     0.169 HD
HETATM   15  O   UNL     1       4.215  31.912  61.159  1.00  0.00    -0.267 OA
BRANCH  13  16
HETATM   16  C   UNL     1       6.410  33.582  62.231  1.00  0.00     0.035 A 
HETATM   17  C   UNL     1       7.344  32.720  62.814  1.00  0.00     0.032 A 
HETATM   18  C   UNL     1       7.716  32.883  64.152  1.00  0.00     0.044 A 
HETATM   19  C   UNL     1       7.162  33.914  64.901  1.00  0.00     0.116 A 
HETATM   20  F   UNL     1       7.518  34.066  66.183  1.00  0.00    -0.206 F 
HETATM   21  C   UNL     1       6.241  34.785  64.338  1.00  0.00     0.044 A 
HETATM   22  C   UNL     1       5.859  34.615  63.005  1.00  0.00     0.032 A 
ENDBRANCH  13  16
ENDBRANCH  10  12
BRANCH   9  23
HETATM   23  C   UNL     1       3.681  35.329  59.137  1.00  0.00    -0.005 A 
HETATM   24  C   UNL     1       3.309  35.851  60.395  1.00  0.00     0.064 A 
HETATM   25 CL   UNL     1       2.512  34.841  61.563  1.00  0.00    -0.082 Cl
HETATM   26  C   UNL     1       3.596  37.191  60.712  1.00  0.00     0.056 A 
HETATM   27 CL   UNL     1       3.162  37.903  62.230  1.00  0.00    -0.083 Cl
HETATM   28  C   UNL     1       4.256  38.011  59.794  1.00  0.00     0.026 A 
HETATM   29  C   UNL     1       4.638  37.504  58.556  1.00  0.00     0.002 A 
HETATM   30  C   UNL     1       4.353  36.179  58.231  1.00  0.00     0.011 A 
ENDBRANCH   9  23
BRANCH   7  31
HETATM   31  C   UNL     1       0.876  34.149  54.531  1.00  0.00     0.085 C 
BRANCH  31  32
HETATM   32  C   UNL     1      -0.270  33.150  54.703  1.00  0.00     0.034 C 
BRANCH  32  33
HETATM   33  C   UNL     1      -1.529  33.778  55.293  1.00  0.00     0.164 C 
BRANCH  33  34
HETATM   34  O   UNL     1      -1.316  34.079  56.668  1.00  0.00    -0.401 OA
HETATM   35  H   UNL     1      -0.568  33.539  56.975  1.00  0.00     0.209 HD
ENDBRANCH  33  34
ENDBRANCH  32  33
ENDBRANCH  31  32
ENDBRANCH   7  31
TORSDOF 7
ENDMDL
