MODEL 1
REMARK VINA RESULT:      -9.9      0.000      0.000
REMARK  6 active torsions:
REMARK  status: ('A' for Active; 'I' for Inactive)
REMARK    1  A    between atoms: C_6  and  C_7 
REMARK    2  A    between atoms: C_7  and  N_8 
REMARK    3  A    between atoms: C_12  and  C_13 
REMARK    4  A    between atoms: C_13  and  C_14 
REMARK    5  A    between atoms: N_23  and  C_24 
REMARK    6  A    between atoms: C_24  and  C_25 
ROOT
HETATM    1  C   UNL     1       6.486  26.014  54.409  1.00  0.00     0.149 C 
HETATM    2  N   UNL     1       7.232  26.983  53.618  1.00  0.00    -0.220 NA
HETATM    3  C   UNL     1       7.939  27.845  54.426  1.00  0.00     0.304 C 
HETATM    4  O   UNL     1       8.815  28.577  54.000  1.00  0.00    -0.253 OA
HETATM    5  N   UNL     1       7.503  27.716  55.702  1.00  0.00    -0.270 N 
HETATM    6  C   UNL     1       6.704  26.614  55.815  1.00  0.00     0.257 C 
HETATM    7  O   UNL     1       6.210  26.179  56.848  1.00  0.00    -0.270 OA
HETATM    8  H   UNL     1       7.791  26.623  52.845  1.00  0.00     0.134 HD
ENDROOT
BRANCH   1   9
HETATM    9  C   UNL     1       4.966  25.973  54.040  1.00  0.00     0.028 C 
HETATM   10  C   UNL     1       4.601  24.981  52.918  1.00  0.00     0.035 C 
HETATM   11  C   UNL     1       4.973  25.457  51.518  1.00  0.00     0.235 C 
HETATM   12  N   UNL     1       4.369  26.815  51.249  1.00  0.00    -0.067 N 
HETATM   13  H   UNL     1       3.349  26.690  51.244  1.00  0.00     0.280 HD
HETATM   14  C   UNL     1       4.704  27.849  52.295  1.00  0.00     0.235 C 
HETATM   15  C   UNL     1       4.340  27.339  53.681  1.00  0.00     0.035 C 
BRANCH  12  16
HETATM   16  C   UNL     1       4.737  27.342  49.870  1.00  0.00     0.273 C 
BRANCH  16  17
HETATM   17  C   UNL     1       3.579  27.406  48.907  1.00  0.00    -0.027 A 
HETATM   18  C   UNL     1       2.721  28.523  48.825  1.00  0.00    -0.054 A 
HETATM   19  C   UNL     1       1.654  28.506  47.909  1.00  0.00     0.014 A 
HETATM   20  C   UNL     1       2.880  29.734  49.708  1.00  0.00     0.049 C 
HETATM   21  C   UNL     1       1.422  27.403  47.082  1.00  0.00    -0.061 A 
HETATM   22  C   UNL     1       0.269  27.390  46.119  1.00  0.00     0.048 C 
HETATM   23  C   UNL     1       2.277  26.304  47.161  1.00  0.00     0.007 A 
HETATM   24  C   UNL     1       3.342  26.302  48.064  1.00  0.00     0.010 A 
ENDBRANCH  16  17
ENDBRANCH  12  16
ENDBRANCH   1   9
BRANCH   1  25
HETATM   25  C   UNL     1       7.152  24.646  54.253  1.00  0.00     0.067 A 
HETATM   26  N   UNL     1       6.963  23.786  55.299  1.00  0.00    -0.263 NA
HETATM   27  C   UNL     1       7.523  22.556  55.210  1.00  0.00     0.117 A 
HETATM   28  C   UNL     1       8.290  22.141  54.138  1.00  0.00     0.019 A 
HETATM   29  C   UNL     1       8.500  23.035  53.095  1.00  0.00     0.003 A 
HETATM   30  C   UNL     1       7.932  24.305  53.150  1.00  0.00     0.030 A 
ENDBRANCH   1  25
BRANCH   5  31
HETATM   31  C   UNL     1       7.955  28.532  56.817  1.00  0.00     0.168 C 
BRANCH  31  32
HETATM   32  C   UNL     1       6.821  29.358  57.432  1.00  0.00     0.140 C 
HETATM   33  O   UNL     1       7.322  30.252  58.453  1.00  0.00    -0.384 OA
HETATM   34  C   UNL     1       6.554  31.470  58.384  1.00  0.00     0.168 C 
HETATM   35  C   UNL     1       5.488  31.277  57.325  1.00  0.00     0.029 C 
HETATM   36  C   UNL     1       6.116  30.247  56.420  1.00  0.00     0.036 C 
ENDBRANCH  31  32
ENDBRANCH   5  31
TORSDOF 6
ENDMDL
MODEL 2
REMARK VINA RESULT:      -9.5      3.199      8.441
REMARK  6 active torsions:
REMARK  status: ('A' for Active; 'I' for Inactive)
REMARK    1  A    between atoms: C_6  and  C_7 
REMARK    2  A    between atoms: C_7  and  N_8 
REMARK    3  A    between atoms: C_12  and  C_13 
REMARK    4  A    between atoms: C_13  and  C_14 
REMARK    5  A    between atoms: N_23  and  C_24 
REMARK    6  A    between atoms: C_24  and  C_25 
ROOT
HETATM    1  C   UNL     1       4.164  29.811  52.446  1.00  0.00     0.149 C 
HETATM    2  N   UNL     1       5.485  29.776  51.836  1.00  0.00    -0.220 NA
HETATM    3  C   UNL     1       5.398  29.633  50.469  1.00  0.00     0.304 C 
HETATM    4  O   UNL     1       6.345  29.818  49.726  1.00  0.00    -0.253 OA
HETATM    5  N   UNL     1       4.131  29.281  50.140  1.00  0.00    -0.270 N 
HETATM    6  C   UNL     1       3.308  29.431  51.218  1.00  0.00     0.257 C 
HETATM    7  O   UNL     1       2.094  29.266  51.233  1.00  0.00    -0.270 OA
HETATM    8  H   UNL     1       6.146  30.500  52.112  1.00  0.00     0.134 HD
ENDROOT
BRANCH   1   9
HETATM    9  C   UNL     1       4.000  28.763  53.596  1.00  0.00     0.028 C 
HETATM   10  C   UNL     1       5.073  28.844  54.701  1.00  0.00     0.035 C 
HETATM   11  C   UNL     1       6.424  28.261  54.303  1.00  0.00     0.235 C 
HETATM   12  N   UNL     1       6.260  26.840  53.820  1.00  0.00    -0.067 N 
HETATM   13  H   UNL     1       5.941  26.288  54.625  1.00  0.00     0.280 HD
HETATM   14  C   UNL     1       5.241  26.684  52.718  1.00  0.00     0.235 C 
HETATM   15  C   UNL     1       3.911  27.291  53.136  1.00  0.00     0.035 C 
BRANCH  12  16
HETATM   16  C   UNL     1       7.583  26.227  53.386  1.00  0.00     0.273 C 
BRANCH  16  17
HETATM   17  C   UNL     1       7.709  24.756  53.693  1.00  0.00    -0.027 A 
HETATM   18  C   UNL     1       7.745  24.257  55.012  1.00  0.00    -0.054 A 
HETATM   19  C   UNL     1       7.875  22.872  55.221  1.00  0.00     0.014 A 
HETATM   20  C   UNL     1       7.683  25.154  56.221  1.00  0.00     0.049 C 
HETATM   21  C   UNL     1       7.975  21.980  54.148  1.00  0.00    -0.061 A 
HETATM   22  C   UNL     1       8.129  20.505  54.384  1.00  0.00     0.048 C 
HETATM   23  C   UNL     1       7.931  22.478  52.846  1.00  0.00     0.007 A 
HETATM   24  C   UNL     1       7.802  23.850  52.619  1.00  0.00     0.010 A 
ENDBRANCH  16  17
ENDBRANCH  12  16
ENDBRANCH   1   9
BRANCH   1  25
HETATM   25  C   UNL     1       3.890  31.238  52.925  1.00  0.00     0.067 A 
HETATM   26  N   UNL     1       4.531  32.219  52.221  1.00  0.00    -0.263 NA
HETATM   27  C   UNL     1       4.317  33.502  52.597  1.00  0.00     0.117 A 
HETATM   28  C   UNL     1       3.512  33.864  53.659  1.00  0.00     0.019 A 
HETATM   29  C   UNL     1       2.889  32.856  54.385  1.00  0.00     0.003 A 
HETATM   30  C   UNL     1       3.081  31.525  54.022  1.00  0.00     0.030 A 
ENDBRANCH   1  25
BRANCH   5  31
HETATM   31  C   UNL     1       3.688  28.954  48.795  1.00  0.00     0.168 C 
BRANCH  31  32
HETATM   32  C   UNL     1       3.063  27.557  48.711  1.00  0.00     0.140 C 
HETATM   33  O   UNL     1       2.497  27.317  47.401  1.00  0.00    -0.384 OA
HETATM   34  C   UNL     1       2.708  25.928  47.080  1.00  0.00     0.168 C 
HETATM   35  C   UNL     1       3.362  25.277  48.281  1.00  0.00     0.029 C 
HETATM   36  C   UNL     1       4.070  26.440  48.931  1.00  0.00     0.036 C 
ENDBRANCH  31  32
ENDBRANCH   5  31
TORSDOF 6
ENDMDL
MODEL 3
REMARK VINA RESULT:      -9.4      1.391      2.119
REMARK  6 active torsions:
REMARK  status: ('A' for Active; 'I' for Inactive)
REMARK    1  A    between atoms: C_6  and  C_7 
REMARK    2  A    between atoms: C_7  and  N_8 
REMARK    3  A    between atoms: C_12  and  C_13 
REMARK    4  A    between atoms: C_13  and  C_14 
REMARK    5  A    between atoms: N_23  and  C_24 
REMARK    6  A    between atoms: C_24  and  C_25 
ROOT
HETATM    1  C   UNL     1       6.845  27.312  54.485  1.00  0.00     0.149 C 
HETATM    2  N   UNL     1       7.778  28.293  53.950  1.00  0.00    -0.220 NA
HETATM    3  C   UNL     1       8.660  28.721  54.917  1.00  0.00     0.304 C 
HETATM    4  O   UNL     1       9.671  29.348  54.655  1.00  0.00    -0.253 OA
HETATM    5  N   UNL     1       8.214  28.321  56.133  1.00  0.00    -0.270 N 
HETATM    6  C   UNL     1       7.196  27.422  55.986  1.00  0.00     0.257 C 
HETATM    7  O   UNL     1       6.626  26.819  56.886  1.00  0.00    -0.270 OA
HETATM    8  H   UNL     1       8.242  28.066  53.071  1.00  0.00     0.134 HD
ENDROOT
BRANCH   1   9
HETATM    9  C   UNL     1       5.351  27.693  54.225  1.00  0.00     0.028 C 
HETATM   10  C   UNL     1       4.479  26.546  53.674  1.00  0.00     0.035 C 
HETATM   11  C   UNL     1       4.706  26.244  52.197  1.00  0.00     0.235 C 
HETATM   12  N   UNL     1       4.525  27.496  51.373  1.00  0.00    -0.067 N 
HETATM   13  H   UNL     1       3.538  27.767  51.457  1.00  0.00     0.280 HD
HETATM   14  C   UNL     1       5.366  28.658  51.837  1.00  0.00     0.235 C 
HETATM   15  C   UNL     1       5.134  28.924  53.317  1.00  0.00     0.035 C 
BRANCH  12  16
HETATM   16  C   UNL     1       4.768  27.245  49.891  1.00  0.00     0.273 C 
BRANCH  16  17
HETATM   17  C   UNL     1       3.559  27.480  49.022  1.00  0.00    -0.027 A 
HETATM   18  C   UNL     1       2.911  26.438  48.326  1.00  0.00    -0.054 A 
HETATM   19  C   UNL     1       1.794  26.736  47.524  1.00  0.00     0.014 A 
HETATM   20  C   UNL     1       3.387  25.009  48.378  1.00  0.00     0.049 C 
HETATM   21  C   UNL     1       1.316  28.044  47.399  1.00  0.00    -0.061 A 
HETATM   22  C   UNL     1       0.132  28.352  46.527  1.00  0.00     0.048 C 
HETATM   23  C   UNL     1       1.956  29.069  48.095  1.00  0.00     0.007 A 
HETATM   24  C   UNL     1       3.065  28.794  48.895  1.00  0.00     0.010 A 
ENDBRANCH  16  17
ENDBRANCH  12  16
ENDBRANCH   1   9
BRANCH   1  25
HETATM   25  C   UNL     1       7.199  25.941  53.906  1.00  0.00     0.067 A 
HETATM   26  N   UNL     1       7.777  25.967  52.667  1.00  0.00    -0.263 NA
HETATM   27  C   UNL     1       8.119  24.780  52.111  1.00  0.00     0.117 A 
HETATM   28  C   UNL     1       7.893  23.558  52.714  1.00  0.00     0.019 A 
HETATM   29  C   UNL     1       7.278  23.545  53.960  1.00  0.00     0.003 A 
HETATM   30  C   UNL     1       6.920  24.747  54.566  1.00  0.00     0.030 A 
ENDBRANCH   1  25
BRANCH   5  31
HETATM   31  C   UNL     1       8.839  28.669  57.398  1.00  0.00     0.168 C 
BRANCH  31  32
HETATM   32  C   UNL     1       8.530  30.108  57.824  1.00  0.00     0.140 C 
HETATM   33  O   UNL     1       7.422  30.150  58.754  1.00  0.00    -0.384 OA
HETATM   34  C   UNL     1       7.687  31.200  59.704  1.00  0.00     0.168 C 
HETATM   35  C   UNL     1       8.975  31.879  59.285  1.00  0.00     0.029 C 
HETATM   36  C   UNL     1       9.690  30.779  58.540  1.00  0.00     0.036 C 
ENDBRANCH  31  32
ENDBRANCH   5  31
TORSDOF 6
ENDMDL
MODEL 4
REMARK VINA RESULT:      -9.1      2.409      8.435
REMARK  6 active torsions:
REMARK  status: ('A' for Active; 'I' for Inactive)
REMARK    1  A    between atoms: C_6  and  C_7 
REMARK    2  A    between atoms: C_7  and  N_8 
REMARK    3  A    between atoms: C_12  and  C_13 
REMARK    4  A    between atoms: C_13  and  C_14 
REMARK    5  A    between atoms: N_23  and  C_24 
REMARK    6  A    between atoms: C_24  and  C_25 
ROOT
HETATM    1  C   UNL     1       5.460  26.732  52.970  1.00  0.00     0.149 C 
HETATM    2  N   UNL     1       6.895  26.900  52.793  1.00  0.00    -0.220 NA
HETATM    3  C   UNL     1       7.523  25.684  52.634  1.00  0.00     0.304 C 
HETATM    4  O   UNL     1       8.668  25.582  52.234  1.00  0.00    -0.253 OA
HETATM    5  N   UNL     1       6.663  24.693  52.976  1.00  0.00    -0.270 N 
HETATM    6  C   UNL     1       5.401  25.195  53.116  1.00  0.00     0.257 C 
HETATM    7  O   UNL     1       4.386  24.551  53.350  1.00  0.00    -0.270 OA
HETATM    8  H   UNL     1       7.204  27.592  52.111  1.00  0.00     0.134 HD
ENDROOT
BRANCH   1   9
HETATM    9  C   UNL     1       4.921  27.443  54.255  1.00  0.00     0.028 C 
HETATM   10  C   UNL     1       5.421  28.889  54.450  1.00  0.00     0.035 C 
HETATM   11  C   UNL     1       6.860  28.990  54.944  1.00  0.00     0.235 C 
HETATM   12  N   UNL     1       7.037  28.188  56.211  1.00  0.00    -0.067 N 
HETATM   13  H   UNL     1       6.459  28.638  56.930  1.00  0.00     0.280 HD
HETATM   14  C   UNL     1       6.591  26.752  56.090  1.00  0.00     0.235 C 
HETATM   15  C   UNL     1       5.161  26.682  55.578  1.00  0.00     0.035 C 
BRANCH  12  16
HETATM   16  C   UNL     1       8.468  28.240  56.725  1.00  0.00     0.273 C 
BRANCH  16  17
HETATM   17  C   UNL     1       8.727  29.351  57.711  1.00  0.00    -0.027 A 
HETATM   18  C   UNL     1       9.964  30.025  57.787  1.00  0.00    -0.054 A 
HETATM   19  C   UNL     1      10.135  31.044  58.741  1.00  0.00     0.014 A 
HETATM   20  C   UNL     1      11.134  29.676  56.905  1.00  0.00     0.049 C 
HETATM   21  C   UNL     1       9.106  31.400  59.619  1.00  0.00    -0.061 A 
HETATM   22  C   UNL     1       9.306  32.479  60.644  1.00  0.00     0.048 C 
HETATM   23  C   UNL     1       7.883  30.735  59.534  1.00  0.00     0.007 A 
HETATM   24  C   UNL     1       7.694  29.721  58.594  1.00  0.00     0.010 A 
ENDBRANCH  16  17
ENDBRANCH  12  16
ENDBRANCH   1   9
BRANCH   1  25
HETATM   25  C   UNL     1       4.755  27.221  51.704  1.00  0.00     0.067 A 
HETATM   26  N   UNL     1       5.032  26.504  50.572  1.00  0.00    -0.263 NA
HETATM   27  C   UNL     1       4.428  26.889  49.423  1.00  0.00     0.117 A 
HETATM   28  C   UNL     1       3.575  27.972  49.332  1.00  0.00     0.019 A 
HETATM   29  C   UNL     1       3.326  28.710  50.483  1.00  0.00     0.003 A 
HETATM   30  C   UNL     1       3.924  28.338  51.684  1.00  0.00     0.030 A 
ENDBRANCH   1  25
BRANCH   5  31
HETATM   31  C   UNL     1       7.005  23.282  53.021  1.00  0.00     0.168 C 
BRANCH  31  32
HETATM   32  C   UNL     1       7.257  22.788  54.450  1.00  0.00     0.140 C 
HETATM   33  O   UNL     1       7.929  21.507  54.448  1.00  0.00    -0.384 OA
HETATM   34  C   UNL     1       8.838  21.489  55.566  1.00  0.00     0.168 C 
HETATM   35  C   UNL     1       8.653  22.786  56.326  1.00  0.00     0.029 C 
HETATM   36  C   UNL     1       8.151  23.718  55.252  1.00  0.00     0.036 C 
ENDBRANCH  31  32
ENDBRANCH   5  31
TORSDOF 6
ENDMDL
MODEL 5
REMARK VINA RESULT:      -9.0      3.090      8.296
REMARK  6 active torsions:
REMARK  status: ('A' for Active; 'I' for Inactive)
REMARK    1  A    between atoms: C_6  and  C_7 
REMARK    2  A    between atoms: C_7  and  N_8 
REMARK    3  A    between atoms: C_12  and  C_13 
REMARK    4  A    between atoms: C_13  and  C_14 
REMARK    5  A    between atoms: N_23  and  C_24 
REMARK    6  A    between atoms: C_24  and  C_25 
ROOT
HETATM    1  C   UNL     1       3.946  30.105  52.535  1.00  0.00     0.149 C 
HETATM    2  N   UNL     1       5.334  30.063  52.097  1.00  0.00    -0.220 NA
HETATM    3  C   UNL     1       5.422  30.053  50.722  1.00  0.00     0.304 C 
HETATM    4  O   UNL     1       6.464  30.261  50.128  1.00  0.00    -0.253 OA
HETATM    5  N   UNL     1       4.198  29.795  50.202  1.00  0.00    -0.270 N 
HETATM    6  C   UNL     1       3.245  29.884  51.176  1.00  0.00     0.257 C 
HETATM    7  O   UNL     1       2.035  29.777  51.020  1.00  0.00    -0.270 OA
HETATM    8  H   UNL     1       5.979  30.726  52.525  1.00  0.00     0.134 HD
ENDROOT
BRANCH   1   9
HETATM    9  C   UNL     1       3.596  28.964  53.545  1.00  0.00     0.028 C 
HETATM   10  C   UNL     1       4.349  29.038  54.889  1.00  0.00     0.035 C 
HETATM   11  C   UNL     1       5.802  28.586  54.816  1.00  0.00     0.235 C 
HETATM   12  N   UNL     1       5.891  27.197  54.229  1.00  0.00    -0.067 N 
HETATM   13  H   UNL     1       5.432  26.564  54.895  1.00  0.00     0.280 HD
HETATM   14  C   UNL     1       5.197  27.053  52.898  1.00  0.00     0.235 C 
HETATM   15  C   UNL     1       3.756  27.528  52.997  1.00  0.00     0.035 C 
BRANCH  12  16
HETATM   16  C   UNL     1       7.330  26.717  54.113  1.00  0.00     0.273 C 
BRANCH  16  17
HETATM   17  C   UNL     1       7.500  25.232  54.313  1.00  0.00    -0.027 A 
HETATM   18  C   UNL     1       7.736  24.345  53.240  1.00  0.00    -0.054 A 
HETATM   19  C   UNL     1       7.873  22.970  53.503  1.00  0.00     0.014 A 
HETATM   20  C   UNL     1       7.816  24.806  51.809  1.00  0.00     0.049 C 
HETATM   21  C   UNL     1       7.776  22.463  54.802  1.00  0.00    -0.061 A 
HETATM   22  C   UNL     1       7.908  20.991  55.068  1.00  0.00     0.048 C 
HETATM   23  C   UNL     1       7.550  23.345  55.859  1.00  0.00     0.007 A 
HETATM   24  C   UNL     1       7.411  24.713  55.619  1.00  0.00     0.010 A 
ENDBRANCH  16  17
ENDBRANCH  12  16
ENDBRANCH   1   9
BRANCH   1  25
HETATM   25  C   UNL     1       3.663  31.493  53.114  1.00  0.00     0.067 A 
HETATM   26  N   UNL     1       2.731  31.524  54.114  1.00  0.00    -0.263 NA
HETATM   27  C   UNL     1       2.448  32.727  54.669  1.00  0.00     0.117 A 
HETATM   28  C   UNL     1       3.028  33.913  54.263  1.00  0.00     0.019 A 
HETATM   29  C   UNL     1       3.952  33.870  53.226  1.00  0.00     0.003 A 
HETATM   30  C   UNL     1       4.273  32.650  52.636  1.00  0.00     0.030 A 
ENDBRANCH   1  25
BRANCH   5  31
HETATM   31  C   UNL     1       3.923  29.617  48.786  1.00  0.00     0.168 C 
BRANCH  31  32
HETATM   32  C   UNL     1       4.047  28.153  48.348  1.00  0.00     0.140 C 
HETATM   33  O   UNL     1       4.752  27.371  49.340  1.00  0.00    -0.384 OA
HETATM   34  C   UNL     1       4.158  26.059  49.366  1.00  0.00     0.168 C 
HETATM   35  C   UNL     1       3.096  26.018  48.286  1.00  0.00     0.029 C 
HETATM   36  C   UNL     1       2.702  27.469  48.168  1.00  0.00     0.036 C 
ENDBRANCH  31  32
ENDBRANCH   5  31
TORSDOF 6
ENDMDL
MODEL 6
REMARK VINA RESULT:      -9.0      4.121      6.818
REMARK  6 active torsions:
REMARK  status: ('A' for Active; 'I' for Inactive)
REMARK    1  A    between atoms: C_6  and  C_7 
REMARK    2  A    between atoms: C_7  and  N_8 
REMARK    3  A    between atoms: C_12  and  C_13 
REMARK    4  A    between atoms: C_13  and  C_14 
REMARK    5  A    between atoms: N_23  and  C_24 
REMARK    6  A    between atoms: C_24  and  C_25 
ROOT
HETATM    1  C   UNL     1       5.159  29.967  56.176  1.00  0.00     0.149 C 
HETATM    2  N   UNL     1       5.242  30.799  54.984  1.00  0.00    -0.220 NA
HETATM    3  C   UNL     1       4.679  32.037  55.201  1.00  0.00     0.304 C 
HETATM    4  O   UNL     1       4.842  32.976  54.443  1.00  0.00    -0.253 OA
HETATM    5  N   UNL     1       3.968  32.004  56.354  1.00  0.00    -0.270 N 
HETATM    6  C   UNL     1       4.245  30.859  57.044  1.00  0.00     0.257 C 
HETATM    7  O   UNL     1       3.823  30.561  58.154  1.00  0.00    -0.270 OA
HETATM    8  H   UNL     1       6.146  30.856  54.516  1.00  0.00     0.134 HD
ENDROOT
BRANCH   1   9
HETATM    9  C   UNL     1       4.496  28.577  55.900  1.00  0.00     0.028 C 
HETATM   10  C   UNL     1       4.861  27.475  56.915  1.00  0.00     0.035 C 
HETATM   11  C   UNL     1       6.258  26.894  56.730  1.00  0.00     0.235 C 
HETATM   12  N   UNL     1       6.437  26.398  55.315  1.00  0.00    -0.067 N 
HETATM   13  H   UNL     1       5.786  25.613  55.192  1.00  0.00     0.280 HD
HETATM   14  C   UNL     1       6.121  27.431  54.263  1.00  0.00     0.235 C 
HETATM   15  C   UNL     1       4.730  28.006  54.484  1.00  0.00     0.035 C 
BRANCH  12  16
HETATM   16  C   UNL     1       7.830  25.832  55.079  1.00  0.00     0.273 C 
BRANCH  16  17
HETATM   17  C   UNL     1       7.838  24.416  54.562  1.00  0.00    -0.027 A 
HETATM   18  C   UNL     1       7.879  24.111  53.185  1.00  0.00    -0.054 A 
HETATM   19  C   UNL     1       7.873  22.765  52.778  1.00  0.00     0.014 A 
HETATM   20  C   UNL     1       7.894  25.175  52.119  1.00  0.00     0.049 C 
HETATM   21  C   UNL     1       7.824  21.723  53.708  1.00  0.00    -0.061 A 
HETATM   22  C   UNL     1       7.803  20.289  53.261  1.00  0.00     0.048 C 
HETATM   23  C   UNL     1       7.793  22.030  55.069  1.00  0.00     0.007 A 
HETATM   24  C   UNL     1       7.797  23.360  55.493  1.00  0.00     0.010 A 
ENDBRANCH  16  17
ENDBRANCH  12  16
ENDBRANCH   1   9
BRANCH   1  25
HETATM   25  C   UNL     1       6.563  29.827  56.767  1.00  0.00     0.067 A 
HETATM   26  N   UNL     1       7.549  29.548  55.860  1.00  0.00    -0.263 NA
HETATM   27  C   UNL     1       8.813  29.423  56.328  1.00  0.00     0.117 A 
HETATM   28  C   UNL     1       9.150  29.535  57.663  1.00  0.00     0.019 A 
HETATM   29  C   UNL     1       8.135  29.789  58.577  1.00  0.00     0.003 A 
HETATM   30  C   UNL     1       6.824  29.931  58.130  1.00  0.00     0.030 A 
ENDBRANCH   1  25
BRANCH   5  31
HETATM   31  C   UNL     1       3.161  33.103  56.858  1.00  0.00     0.168 C 
BRANCH  31  32
HETATM   32  C   UNL     1       3.975  34.077  57.717  1.00  0.00     0.140 C 
HETATM   33  O   UNL     1       4.208  35.321  57.015  1.00  0.00    -0.384 OA
HETATM   34  C   UNL     1       4.165  36.386  57.985  1.00  0.00     0.168 C 
HETATM   35  C   UNL     1       3.975  35.753  59.348  1.00  0.00     0.029 C 
HETATM   36  C   UNL     1       3.273  34.462  59.008  1.00  0.00     0.036 C 
ENDBRANCH  31  32
ENDBRANCH   5  31
TORSDOF 6
ENDMDL
MODEL 7
REMARK VINA RESULT:      -8.8      3.367      8.742
REMARK  6 active torsions:
REMARK  status: ('A' for Active; 'I' for Inactive)
REMARK    1  A    between atoms: C_6  and  C_7 
REMARK    2  A    between atoms: C_7  and  N_8 
REMARK    3  A    between atoms: C_12  and  C_13 
REMARK    4  A    between atoms: C_13  and  C_14 
REMARK    5  A    between atoms: N_23  and  C_24 
REMARK    6  A    between atoms: C_24  and  C_25 
ROOT
HETATM    1  C   UNL     1       4.511  28.473  50.766  1.00  0.00     0.149 C 
HETATM    2  N   UNL     1       5.326  27.609  49.923  1.00  0.00    -0.220 NA
HETATM    3  C   UNL     1       4.599  27.123  48.859  1.00  0.00     0.304 C 
HETATM    4  O   UNL     1       5.119  26.583  47.899  1.00  0.00    -0.253 OA
HETATM    5  N   UNL     1       3.283  27.360  49.076  1.00  0.00    -0.270 N 
HETATM    6  C   UNL     1       3.128  28.214  50.130  1.00  0.00     0.257 C 
HETATM    7  O   UNL     1       2.071  28.682  50.535  1.00  0.00    -0.270 OA
HETATM    8  H   UNL     1       6.242  27.958  49.644  1.00  0.00     0.134 HD
ENDROOT
BRANCH   1   9
HETATM    9  C   UNL     1       4.531  28.045  52.270  1.00  0.00     0.028 C 
HETATM   10  C   UNL     1       5.840  28.375  53.017  1.00  0.00     0.035 C 
HETATM   11  C   UNL     1       6.998  27.440  52.690  1.00  0.00     0.235 C 
HETATM   12  N   UNL     1       6.595  26.003  52.926  1.00  0.00    -0.067 N 
HETATM   13  H   UNL     1       6.428  25.904  53.935  1.00  0.00     0.280 HD
HETATM   14  C   UNL     1       5.333  25.598  52.205  1.00  0.00     0.235 C 
HETATM   15  C   UNL     1       4.202  26.559  52.535  1.00  0.00     0.035 C 
BRANCH  12  16
HETATM   16  C   UNL     1       7.716  25.032  52.586  1.00  0.00     0.273 C 
BRANCH  16  17
HETATM   17  C   UNL     1       7.775  23.823  53.485  1.00  0.00    -0.027 A 
HETATM   18  C   UNL     1       7.743  23.922  54.893  1.00  0.00    -0.054 A 
HETATM   19  C   UNL     1       7.813  22.749  55.666  1.00  0.00     0.014 A 
HETATM   20  C   UNL     1       7.670  25.243  55.611  1.00  0.00     0.049 C 
HETATM   21  C   UNL     1       7.919  21.489  55.071  1.00  0.00    -0.061 A 
HETATM   22  C   UNL     1       8.009  20.245  55.908  1.00  0.00     0.048 C 
HETATM   23  C   UNL     1       7.941  21.396  53.679  1.00  0.00     0.007 A 
HETATM   24  C   UNL     1       7.873  22.548  52.894  1.00  0.00     0.010 A 
ENDBRANCH  16  17
ENDBRANCH  12  16
ENDBRANCH   1   9
BRANCH   1  25
HETATM   25  C   UNL     1       4.977  29.917  50.572  1.00  0.00     0.067 A 
HETATM   26  N   UNL     1       4.385  30.833  51.397  1.00  0.00    -0.263 NA
HETATM   27  C   UNL     1       4.767  32.126  51.275  1.00  0.00     0.117 A 
HETATM   28  C   UNL     1       5.696  32.566  50.352  1.00  0.00     0.019 A 
HETATM   29  C   UNL     1       6.268  31.629  49.499  1.00  0.00     0.003 A 
HETATM   30  C   UNL     1       5.904  30.289  49.602  1.00  0.00     0.030 A 
ENDBRANCH   1  25
BRANCH   5  31
HETATM   31  C   UNL     1       2.208  26.906  48.209  1.00  0.00     0.168 C 
BRANCH  31  32
HETATM   32  C   UNL     1       1.270  28.046  47.798  1.00  0.00     0.140 C 
HETATM   33  O   UNL     1       2.015  29.169  47.272  1.00  0.00    -0.384 OA
HETATM   34  C   UNL     1       1.235  29.754  46.211  1.00  0.00     0.168 C 
HETATM   35  C   UNL     1      -0.078  29.001  46.143  1.00  0.00     0.029 C 
HETATM   36  C   UNL     1       0.298  27.651  46.700  1.00  0.00     0.036 C 
ENDBRANCH  31  32
ENDBRANCH   5  31
TORSDOF 6
ENDMDL
MODEL 8
REMARK VINA RESULT:      -8.8      4.053      7.077
REMARK  6 active torsions:
REMARK  status: ('A' for Active; 'I' for Inactive)
REMARK    1  A    between atoms: C_6  and  C_7 
REMARK    2  A    between atoms: C_7  and  N_8 
REMARK    3  A    between atoms: C_12  and  C_13 
REMARK    4  A    between atoms: C_13  and  C_14 
REMARK    5  A    between atoms: N_23  and  C_24 
REMARK    6  A    between atoms: C_24  and  C_25 
ROOT
HETATM    1  C   UNL     1       5.030  30.130  56.151  1.00  0.00     0.149 C 
HETATM    2  N   UNL     1       5.189  30.900  54.926  1.00  0.00    -0.220 NA
HETATM    3  C   UNL     1       4.621  32.149  55.045  1.00  0.00     0.304 C 
HETATM    4  O   UNL     1       4.835  33.048  54.252  1.00  0.00    -0.253 OA
HETATM    5  N   UNL     1       3.841  32.177  56.154  1.00  0.00    -0.270 N 
HETATM    6  C   UNL     1       4.070  31.067  56.916  1.00  0.00     0.257 C 
HETATM    7  O   UNL     1       3.579  30.827  58.012  1.00  0.00    -0.270 OA
HETATM    8  H   UNL     1       6.120  30.932  54.512  1.00  0.00     0.134 HD
ENDROOT
BRANCH   1   9
HETATM    9  C   UNL     1       4.377  28.730  55.906  1.00  0.00     0.028 C 
HETATM   10  C   UNL     1       4.874  27.613  56.846  1.00  0.00     0.035 C 
HETATM   11  C   UNL     1       6.259  27.077  56.502  1.00  0.00     0.235 C 
HETATM   12  N   UNL     1       6.302  26.622  55.062  1.00  0.00    -0.067 N 
HETATM   13  H   UNL     1       5.662  25.822  54.985  1.00  0.00     0.280 HD
HETATM   14  C   UNL     1       5.852  27.673  54.078  1.00  0.00     0.235 C 
HETATM   15  C   UNL     1       4.478  28.202  54.457  1.00  0.00     0.035 C 
BRANCH  12  16
HETATM   16  C   UNL     1       7.677  26.102  54.668  1.00  0.00     0.273 C 
BRANCH  16  17
HETATM   17  C   UNL     1       7.716  24.622  54.383  1.00  0.00    -0.027 A 
HETATM   18  C   UNL     1       7.739  24.102  53.071  1.00  0.00    -0.054 A 
HETATM   19  C   UNL     1       7.765  22.709  52.884  1.00  0.00     0.014 A 
HETATM   20  C   UNL     1       7.705  24.982  51.849  1.00  0.00     0.049 C 
HETATM   21  C   UNL     1       7.762  21.828  53.970  1.00  0.00    -0.061 A 
HETATM   22  C   UNL     1       7.773  20.341  53.757  1.00  0.00     0.048 C 
HETATM   23  C   UNL     1       7.746  22.347  55.264  1.00  0.00     0.007 A 
HETATM   24  C   UNL     1       7.721  23.727  55.471  1.00  0.00     0.010 A 
ENDBRANCH  16  17
ENDBRANCH  12  16
ENDBRANCH   1   9
BRANCH   1  25
HETATM   25  C   UNL     1       6.395  30.017  56.833  1.00  0.00     0.067 A 
HETATM   26  N   UNL     1       7.432  29.686  56.004  1.00  0.00    -0.263 NA
HETATM   27  C   UNL     1       8.665  29.581  56.554  1.00  0.00     0.117 A 
HETATM   28  C   UNL     1       8.921  29.765  57.899  1.00  0.00     0.019 A 
HETATM   29  C   UNL     1       7.854  30.072  58.735  1.00  0.00     0.003 A 
HETATM   30  C   UNL     1       6.573  30.195  58.202  1.00  0.00     0.030 A 
ENDBRANCH   1  25
BRANCH   5  31
HETATM   31  C   UNL     1       3.011  33.302  56.551  1.00  0.00     0.168 C 
BRANCH  31  32
HETATM   32  C   UNL     1       1.956  33.650  55.495  1.00  0.00     0.140 C 
HETATM   33  O   UNL     1       1.038  32.550  55.295  1.00  0.00    -0.384 OA
HETATM   34  C   UNL     1      -0.266  33.109  55.044  1.00  0.00     0.168 C 
HETATM   35  C   UNL     1      -0.118  34.616  55.013  1.00  0.00     0.029 C 
HETATM   36  C   UNL     1       1.093  34.837  55.886  1.00  0.00     0.036 C 
ENDBRANCH  31  32
ENDBRANCH   5  31
TORSDOF 6
ENDMDL
MODEL 9
REMARK VINA RESULT:      -8.7      8.064     12.380
REMARK  6 active torsions:
REMARK  status: ('A' for Active; 'I' for Inactive)
REMARK    1  A    between atoms: C_6  and  C_7 
REMARK    2  A    between atoms: C_7  and  N_8 
REMARK    3  A    between atoms: C_12  and  C_13 
REMARK    4  A    between atoms: C_13  and  C_14 
REMARK    5  A    between atoms: N_23  and  C_24 
REMARK    6  A    between atoms: C_24  and  C_25 
ROOT
HETATM    1  C   UNL     1       5.290  33.740  64.090  1.00  0.00     0.149 C 
HETATM    2  N   UNL     1       6.149  34.687  63.393  1.00  0.00    -0.220 NA
HETATM    3  C   UNL     1       5.407  35.655  62.755  1.00  0.00     0.304 C 
HETATM    4  O   UNL     1       5.899  36.679  62.315  1.00  0.00    -0.253 OA
HETATM    5  N   UNL     1       4.107  35.272  62.727  1.00  0.00    -0.270 N 
HETATM    6  C   UNL     1       3.918  34.198  63.549  1.00  0.00     0.257 C 
HETATM    7  O   UNL     1       2.848  33.658  63.801  1.00  0.00    -0.270 OA
HETATM    8  H   UNL     1       6.934  35.075  63.914  1.00  0.00     0.134 HD
ENDROOT
BRANCH   1   9
HETATM    9  C   UNL     1       5.584  32.254  63.698  1.00  0.00     0.028 C 
HETATM   10  C   UNL     1       7.046  31.970  63.296  1.00  0.00     0.035 C 
HETATM   11  C   UNL     1       7.415  32.458  61.900  1.00  0.00     0.235 C 
HETATM   12  N   UNL     1       6.460  31.891  60.877  1.00  0.00    -0.067 N 
HETATM   13  H   UNL     1       6.604  30.874  60.868  1.00  0.00     0.280 HD
HETATM   14  C   UNL     1       5.007  32.151  61.190  1.00  0.00     0.235 C 
HETATM   15  C   UNL     1       4.673  31.672  62.594  1.00  0.00     0.035 C 
BRANCH  12  16
HETATM   16  C   UNL     1       6.777  32.374  59.469  1.00  0.00     0.273 C 
BRANCH  16  17
HETATM   17  C   UNL     1       7.839  31.566  58.767  1.00  0.00    -0.027 A 
HETATM   18  C   UNL     1       7.531  30.471  57.932  1.00  0.00    -0.054 A 
HETATM   19  C   UNL     1       8.577  29.758  57.319  1.00  0.00     0.014 A 
HETATM   20  C   UNL     1       6.119  30.007  57.691  1.00  0.00     0.049 C 
HETATM   21  C   UNL     1       9.915  30.108  57.523  1.00  0.00    -0.061 A 
HETATM   22  C   UNL     1      11.024  29.329  56.875  1.00  0.00     0.048 C 
HETATM   23  C   UNL     1      10.214  31.197  58.343  1.00  0.00     0.007 A 
HETATM   24  C   UNL     1       9.190  31.917  58.961  1.00  0.00     0.010 A 
ENDBRANCH  16  17
ENDBRANCH  12  16
ENDBRANCH   1   9
BRANCH   1  25
HETATM   25  C   UNL     1       5.428  33.976  65.594  1.00  0.00     0.067 A 
HETATM   26  N   UNL     1       4.247  34.079  66.276  1.00  0.00    -0.263 NA
HETATM   27  C   UNL     1       4.311  34.280  67.614  1.00  0.00     0.117 A 
HETATM   28  C   UNL     1       5.496  34.409  68.313  1.00  0.00     0.019 A 
HETATM   29  C   UNL     1       6.688  34.332  67.603  1.00  0.00     0.003 A 
HETATM   30  C   UNL     1       6.660  34.119  66.227  1.00  0.00     0.030 A 
ENDBRANCH   1  25
BRANCH   5  31
HETATM   31  C   UNL     1       3.045  36.000  62.053  1.00  0.00     0.168 C 
BRANCH  31  32
HETATM   32  C   UNL     1       2.673  35.373  60.705  1.00  0.00     0.140 C 
HETATM   33  O   UNL     1       1.310  35.695  60.340  1.00  0.00    -0.384 OA
HETATM   34  C   UNL     1       1.270  35.866  58.909  1.00  0.00     0.168 C 
HETATM   35  C   UNL     1       2.653  35.558  58.374  1.00  0.00     0.029 C 
HETATM   36  C   UNL     1       3.533  35.874  59.557  1.00  0.00     0.036 C 
ENDBRANCH  31  32
ENDBRANCH   5  31
TORSDOF 6
ENDMDL
MODEL 10
REMARK VINA RESULT:      -8.5      4.299      8.203
REMARK  6 active torsions:
REMARK  status: ('A' for Active; 'I' for Inactive)
REMARK    1  A    between atoms: C_6  and  C_7 
REMARK    2  A    between atoms: C_7  and  N_8 
REMARK    3  A    between atoms: C_12  and  C_13 
REMARK    4  A    between atoms: C_13  and  C_14 
REMARK    5  A    between atoms: N_23  and  C_24 
REMARK    6  A    between atoms: C_24  and  C_25 
ROOT
HETATM    1  C   UNL     1       4.135  31.875  56.597  1.00  0.00     0.149 C 
HETATM    2  N   UNL     1       3.460  30.918  57.461  1.00  0.00    -0.220 NA
HETATM    3  C   UNL     1       3.505  31.318  58.778  1.00  0.00     0.304 C 
HETATM    4  O   UNL     1       2.811  30.814  59.643  1.00  0.00    -0.253 OA
HETATM    5  N   UNL     1       4.404  32.323  58.906  1.00  0.00    -0.270 N 
HETATM    6  C   UNL     1       4.776  32.779  57.674  1.00  0.00     0.257 C 
HETATM    7  O   UNL     1       5.519  33.726  57.444  1.00  0.00    -0.270 OA
HETATM    8  H   UNL     1       2.532  30.607  57.178  1.00  0.00     0.134 HD
ENDROOT
BRANCH   1   9
HETATM    9  C   UNL     1       5.226  31.212  55.693  1.00  0.00     0.028 C 
HETATM   10  C   UNL     1       4.677  30.255  54.616  1.00  0.00     0.035 C 
HETATM   11  C   UNL     1       4.233  28.899  55.153  1.00  0.00     0.235 C 
HETATM   12  N   UNL     1       5.357  28.247  55.923  1.00  0.00    -0.067 N 
HETATM   13  H   UNL     1       6.105  28.053  55.248  1.00  0.00     0.280 HD
HETATM   14  C   UNL     1       5.931  29.116  57.014  1.00  0.00     0.235 C 
HETATM   15  C   UNL     1       6.346  30.467  56.454  1.00  0.00     0.035 C 
BRANCH  12  16
HETATM   16  C   UNL     1       4.948  26.900  56.500  1.00  0.00     0.273 C 
BRANCH  16  17
HETATM   17  C   UNL     1       5.922  25.786  56.211  1.00  0.00    -0.027 A 
HETATM   18  C   UNL     1       5.952  25.107  54.974  1.00  0.00    -0.054 A 
HETATM   19  C   UNL     1       6.882  24.070  54.781  1.00  0.00     0.014 A 
HETATM   20  C   UNL     1       4.999  25.424  53.851  1.00  0.00     0.049 C 
HETATM   21  C   UNL     1       7.775  23.695  55.790  1.00  0.00    -0.061 A 
HETATM   22  C   UNL     1       8.753  22.576  55.577  1.00  0.00     0.048 C 
HETATM   23  C   UNL     1       7.746  24.375  57.007  1.00  0.00     0.007 A 
HETATM   24  C   UNL     1       6.830  25.407  57.218  1.00  0.00     0.010 A 
ENDBRANCH  16  17
ENDBRANCH  12  16
ENDBRANCH   1   9
BRANCH   1  25
HETATM   25  C   UNL     1       3.079  32.615  55.774  1.00  0.00     0.067 A 
HETATM   26  N   UNL     1       1.829  32.058  55.801  1.00  0.00    -0.263 NA
HETATM   27  C   UNL     1       0.853  32.678  55.097  1.00  0.00     0.117 A 
HETATM   28  C   UNL     1       1.058  33.816  54.341  1.00  0.00     0.019 A 
HETATM   29  C   UNL     1       2.339  34.354  54.299  1.00  0.00     0.003 A 
HETATM   30  C   UNL     1       3.366  33.747  55.017  1.00  0.00     0.030 A 
ENDBRANCH   1  25
BRANCH   5  31
HETATM   31  C   UNL     1       4.786  32.936  60.168  1.00  0.00     0.168 C 
BRANCH  31  32
HETATM   32  C   UNL     1       5.978  32.228  60.822  1.00  0.00     0.140 C 
HETATM   33  O   UNL     1       6.892  31.719  59.823  1.00  0.00    -0.384 OA
HETATM   34  C   UNL     1       8.229  31.858  60.343  1.00  0.00     0.168 C 
HETATM   35  C   UNL     1       8.116  32.403  61.751  1.00  0.00     0.029 C 
HETATM   36  C   UNL     1       6.806  33.148  61.703  1.00  0.00     0.036 C 
ENDBRANCH  31  32
ENDBRANCH   5  31
TORSDOF 6
ENDMDL
