MODEL 1
REMARK VINA RESULT:      -9.6      0.000      0.000
REMARK  2 active torsions:
REMARK  status: ('A' for Active; 'I' for Inactive)
REMARK    1  A    between atoms: C_6  and  O_7 
REMARK    2  A    between atoms: C_6  and  C_8 
ROOT
HETATM    1  C   UNL     1       6.451  30.145  57.328  1.00  0.00     0.048 C 
HETATM    2  C   UNL     1       6.496  28.834  56.596  1.00  0.00    -0.059 A 
HETATM    3  C   UNL     1       7.250  28.692  55.427  1.00  0.00     0.037 A 
HETATM    4  C   UNL     1       7.251  27.458  54.807  1.00  0.00     0.046 A 
HETATM    5  C   UNL     1       6.544  26.352  55.300  1.00  0.00     0.023 A 
HETATM    6  C   UNL     1       6.761  25.177  54.363  1.00  0.00     0.199 A 
HETATM    7  C   UNL     1       7.615  25.842  53.225  1.00  0.00     0.266 A 
HETATM    8  O   UNL     1       7.944  25.345  52.158  1.00  0.00    -0.269 OA
HETATM    9  N   UNL     1       7.890  27.148  53.615  1.00  0.00    -0.323 N 
HETATM   10  C   UNL     1       5.757  26.486  56.444  1.00  0.00    -0.049 A 
HETATM   11  C   UNL     1       4.965  25.354  57.027  1.00  0.00     0.049 C 
HETATM   12  C   UNL     1       5.764  27.735  57.096  1.00  0.00     0.014 A 
HETATM   13  H   UNL     1       8.407  27.793  53.039  1.00  0.00     0.169 HD
ENDROOT
BRANCH   6  14
HETATM   14  O   UNL     1       5.502  24.717  53.898  1.00  0.00    -0.371 OA
HETATM   15  H   UNL     1       5.703  24.024  53.248  1.00  0.00     0.212 HD
ENDBRANCH   6  14
BRANCH   6  16
HETATM   16  C   UNL     1       7.565  24.099  55.068  1.00  0.00     0.018 A 
HETATM   17  C   UNL     1       7.865  22.788  54.533  1.00  0.00     0.002 A 
HETATM   18  C   UNL     1       8.578  22.080  55.503  1.00  0.00     0.043 A 
HETATM   19  C   UNL     1       7.600  22.133  53.308  1.00  0.00     0.014 A 
HETATM   20  C   UNL     1       9.000  20.756  55.330  1.00  0.00     0.030 A 
HETATM   21  N   UNL     1       8.758  22.925  56.568  1.00  0.00    -0.365 N 
HETATM   22  C   UNL     1       8.701  20.130  54.119  1.00  0.00     0.002 A 
HETATM   23  C   UNL     1       8.018  20.809  53.116  1.00  0.00     0.001 A 
HETATM   24  H   UNL     1       9.256  22.683  57.413  1.00  0.00     0.165 HD
HETATM   25  C   UNL     1       8.184  24.138  56.311  1.00  0.00     0.100 A 
ENDBRANCH   6  16
TORSDOF 2
ENDMDL
MODEL 2
REMARK VINA RESULT:      -8.8      1.924      2.565
REMARK  2 active torsions:
REMARK  status: ('A' for Active; 'I' for Inactive)
REMARK    1  A    between atoms: C_6  and  O_7 
REMARK    2  A    between atoms: C_6  and  C_8 
ROOT
HETATM    1  C   UNL     1       9.454  30.073  57.544  1.00  0.00     0.048 C 
HETATM    2  C   UNL     1       8.613  29.012  56.893  1.00  0.00    -0.059 A 
HETATM    3  C   UNL     1       7.705  29.338  55.882  1.00  0.00     0.037 A 
HETATM    4  C   UNL     1       6.966  28.313  55.323  1.00  0.00     0.046 A 
HETATM    5  C   UNL     1       7.095  26.974  55.715  1.00  0.00     0.023 A 
HETATM    6  C   UNL     1       6.127  26.132  54.904  1.00  0.00     0.199 A 
HETATM    7  C   UNL     1       5.374  27.236  54.078  1.00  0.00     0.266 A 
HETATM    8  O   UNL     1       4.396  27.087  53.360  1.00  0.00    -0.269 OA
HETATM    9  N   UNL     1       5.982  28.454  54.355  1.00  0.00    -0.323 N 
HETATM   10  C   UNL     1       7.971  26.636  56.747  1.00  0.00    -0.049 A 
HETATM   11  C   UNL     1       8.158  25.228  57.230  1.00  0.00     0.049 C 
HETATM   12  C   UNL     1       8.743  27.670  57.312  1.00  0.00     0.014 A 
HETATM   13  H   UNL     1       5.663  29.327  53.963  1.00  0.00     0.169 HD
ENDROOT
BRANCH   6  14
HETATM   14  O   UNL     1       5.265  25.435  55.790  1.00  0.00    -0.371 OA
HETATM   15  H   UNL     1       5.753  25.364  56.626  1.00  0.00     0.212 HD
ENDBRANCH   6  14
BRANCH   6  16
HETATM   16  C   UNL     1       6.898  25.210  53.976  1.00  0.00     0.018 A 
HETATM   17  C   UNL     1       7.288  23.848  54.275  1.00  0.00     0.002 A 
HETATM   18  C   UNL     1       8.022  23.363  53.191  1.00  0.00     0.043 A 
HETATM   19  C   UNL     1       7.084  22.977  55.370  1.00  0.00     0.014 A 
HETATM   20  C   UNL     1       8.588  22.083  53.160  1.00  0.00     0.030 A 
HETATM   21  N   UNL     1       8.044  24.354  52.242  1.00  0.00    -0.365 N 
HETATM   22  C   UNL     1       8.388  21.256  54.267  1.00  0.00     0.002 A 
HETATM   23  C   UNL     1       7.640  21.691  55.354  1.00  0.00     0.001 A 
HETATM   24  H   UNL     1       8.494  24.275  51.341  1.00  0.00     0.165 HD
HETATM   25  C   UNL     1       7.356  25.448  52.686  1.00  0.00     0.100 A 
ENDBRANCH   6  16
TORSDOF 2
ENDMDL
MODEL 3
REMARK VINA RESULT:      -8.2      3.569      6.963
REMARK  2 active torsions:
REMARK  status: ('A' for Active; 'I' for Inactive)
REMARK    1  A    between atoms: C_6  and  O_7 
REMARK    2  A    between atoms: C_6  and  C_8 
ROOT
HETATM    1  C   UNL     1       4.968  25.011  52.864  1.00  0.00     0.048 C 
HETATM    2  C   UNL     1       5.789  25.820  53.829  1.00  0.00    -0.059 A 
HETATM    3  C   UNL     1       6.658  26.815  53.371  1.00  0.00     0.037 A 
HETATM    4  C   UNL     1       7.379  27.523  54.312  1.00  0.00     0.046 A 
HETATM    5  C   UNL     1       7.271  27.296  55.690  1.00  0.00     0.023 A 
HETATM    6  C   UNL     1       8.213  28.240  56.416  1.00  0.00     0.199 A 
HETATM    7  C   UNL     1       8.929  28.950  55.212  1.00  0.00     0.266 A 
HETATM    8  O   UNL     1       9.881  29.716  55.261  1.00  0.00    -0.269 OA
HETATM    9  N   UNL     1       8.326  28.501  54.042  1.00  0.00    -0.323 N 
HETATM   10  C   UNL     1       6.437  26.283  56.162  1.00  0.00    -0.049 A 
HETATM   11  C   UNL     1       6.274  25.972  57.620  1.00  0.00     0.049 C 
HETATM   12  C   UNL     1       5.682  25.567  55.213  1.00  0.00     0.014 A 
HETATM   13  H   UNL     1       8.627  28.793  53.125  1.00  0.00     0.169 HD
ENDROOT
BRANCH   6  14
HETATM   14  O   UNL     1       9.110  27.480  57.210  1.00  0.00    -0.371 OA
HETATM   15  H   UNL     1       8.938  26.553  56.981  1.00  0.00     0.212 HD
ENDBRANCH   6  14
BRANCH   6  16
HETATM   16  C   UNL     1       7.412  29.247  57.223  1.00  0.00     0.018 A 
HETATM   17  C   UNL     1       7.964  30.224  58.138  1.00  0.00     0.002 A 
HETATM   18  C   UNL     1       6.902  30.921  58.716  1.00  0.00     0.043 A 
HETATM   19  C   UNL     1       9.274  30.584  58.529  1.00  0.00     0.014 A 
HETATM   20  C   UNL     1       7.076  31.920  59.681  1.00  0.00     0.030 A 
HETATM   21  N   UNL     1       5.748  30.439  58.152  1.00  0.00    -0.365 N 
HETATM   22  C   UNL     1       8.381  32.236  60.063  1.00  0.00     0.002 A 
HETATM   23  C   UNL     1       9.467  31.585  59.490  1.00  0.00     0.001 A 
HETATM   24  H   UNL     1       4.820  30.773  58.372  1.00  0.00     0.165 HD
HETATM   25  C   UNL     1       6.039  29.462  57.242  1.00  0.00     0.100 A 
ENDBRANCH   6  16
TORSDOF 2
ENDMDL
MODEL 4
REMARK VINA RESULT:      -8.2      2.385      3.166
REMARK  2 active torsions:
REMARK  status: ('A' for Active; 'I' for Inactive)
REMARK    1  A    between atoms: C_6  and  O_7 
REMARK    2  A    between atoms: C_6  and  C_8 
ROOT
HETATM    1  C   UNL     1       2.825  30.587  56.922  1.00  0.00     0.048 C 
HETATM    2  C   UNL     1       4.055  29.806  56.556  1.00  0.00    -0.059 A 
HETATM    3  C   UNL     1       5.246  29.969  57.270  1.00  0.00     0.037 A 
HETATM    4  C   UNL     1       6.337  29.216  56.883  1.00  0.00     0.046 A 
HETATM    5  C   UNL     1       6.298  28.298  55.825  1.00  0.00     0.023 A 
HETATM    6  C   UNL     1       7.670  27.666  55.676  1.00  0.00     0.199 A 
HETATM    7  C   UNL     1       8.495  28.457  56.754  1.00  0.00     0.266 A 
HETATM    8  O   UNL     1       9.702  28.415  56.944  1.00  0.00    -0.269 OA
HETATM    9  N   UNL     1       7.609  29.286  57.433  1.00  0.00    -0.323 N 
HETATM   10  C   UNL     1       5.129  28.149  55.080  1.00  0.00    -0.049 A 
HETATM   11  C   UNL     1       5.011  27.195  53.928  1.00  0.00     0.049 C 
HETATM   12  C   UNL     1       4.004  28.898  55.476  1.00  0.00     0.014 A 
HETATM   13  H   UNL     1       7.901  29.918  58.162  1.00  0.00     0.169 HD
ENDROOT
BRANCH   6  14
HETATM   14  O   UNL     1       8.144  27.892  54.357  1.00  0.00    -0.371 OA
HETATM   15  H   UNL     1       8.869  28.530  54.448  1.00  0.00     0.212 HD
ENDBRANCH   6  14
BRANCH   6  16
HETATM   16  C   UNL     1       7.602  26.193  56.039  1.00  0.00     0.018 A 
HETATM   17  C   UNL     1       7.668  25.091  55.103  1.00  0.00     0.002 A 
HETATM   18  C   UNL     1       7.519  23.904  55.823  1.00  0.00     0.043 A 
HETATM   19  C   UNL     1       7.845  24.989  53.704  1.00  0.00     0.014 A 
HETATM   20  C   UNL     1       7.497  22.640  55.222  1.00  0.00     0.030 A 
HETATM   21  N   UNL     1       7.416  24.247  57.148  1.00  0.00    -0.365 N 
HETATM   22  C   UNL     1       7.650  22.575  53.836  1.00  0.00     0.002 A 
HETATM   23  C   UNL     1       7.831  23.732  53.086  1.00  0.00     0.001 A 
HETATM   24  H   UNL     1       7.314  23.585  57.904  1.00  0.00     0.165 HD
HETATM   25  C   UNL     1       7.492  25.603  57.293  1.00  0.00     0.100 A 
ENDBRANCH   6  16
TORSDOF 2
ENDMDL
MODEL 5
REMARK VINA RESULT:      -8.1     10.254     13.513
REMARK  2 active torsions:
REMARK  status: ('A' for Active; 'I' for Inactive)
REMARK    1  A    between atoms: C_6  and  O_7 
REMARK    2  A    between atoms: C_6  and  C_8 
ROOT
HETATM    1  C   UNL     1       9.722  31.827  61.526  1.00  0.00     0.048 C 
HETATM    2  C   UNL     1       8.301  32.218  61.817  1.00  0.00    -0.059 A 
HETATM    3  C   UNL     1       7.914  32.602  63.104  1.00  0.00     0.037 A 
HETATM    4  C   UNL     1       6.593  32.953  63.302  1.00  0.00     0.046 A 
HETATM    5  C   UNL     1       5.637  32.951  62.276  1.00  0.00     0.023 A 
HETATM    6  C   UNL     1       4.299  33.375  62.854  1.00  0.00     0.199 A 
HETATM    7  C   UNL     1       4.650  33.512  64.379  1.00  0.00     0.266 A 
HETATM    8  O   UNL     1       3.875  33.709  65.304  1.00  0.00    -0.269 OA
HETATM    9  N   UNL     1       6.017  33.303  64.515  1.00  0.00    -0.323 N 
HETATM   10  C   UNL     1       5.998  32.535  60.995  1.00  0.00    -0.049 A 
HETATM   11  C   UNL     1       5.033  32.496  59.847  1.00  0.00     0.049 C 
HETATM   12  C   UNL     1       7.347  32.193  60.777  1.00  0.00     0.014 A 
HETATM   13  H   UNL     1       6.486  33.314  65.408  1.00  0.00     0.169 HD
ENDROOT
BRANCH   6  14
HETATM   14  O   UNL     1       3.343  32.356  62.606  1.00  0.00    -0.371 OA
HETATM   15  H   UNL     1       3.167  31.951  63.470  1.00  0.00     0.212 HD
ENDBRANCH   6  14
BRANCH   6  16
HETATM   16  C   UNL     1       3.895  34.722  62.281  1.00  0.00     0.018 A 
HETATM   17  C   UNL     1       4.566  35.980  62.532  1.00  0.00     0.002 A 
HETATM   18  C   UNL     1       3.860  36.985  61.868  1.00  0.00     0.043 A 
HETATM   19  C   UNL     1       5.715  36.361  63.262  1.00  0.00     0.014 A 
HETATM   20  C   UNL     1       4.215  38.338  61.927  1.00  0.00     0.030 A 
HETATM   21  N   UNL     1       2.831  36.377  61.195  1.00  0.00    -0.365 N 
HETATM   22  C   UNL     1       5.341  38.684  62.676  1.00  0.00     0.002 A 
HETATM   23  C   UNL     1       6.088  37.710  63.329  1.00  0.00     0.001 A 
HETATM   24  H   UNL     1       2.161  36.862  60.614  1.00  0.00     0.165 HD
HETATM   25  C   UNL     1       2.856  35.028  61.410  1.00  0.00     0.100 A 
ENDBRANCH   6  16
TORSDOF 2
ENDMDL
MODEL 6
REMARK VINA RESULT:      -8.1      2.159      6.095
REMARK  2 active torsions:
REMARK  status: ('A' for Active; 'I' for Inactive)
REMARK    1  A    between atoms: C_6  and  O_7 
REMARK    2  A    between atoms: C_6  and  C_8 
ROOT
HETATM    1  C   UNL     1       8.556  20.763  56.145  1.00  0.00     0.048 C 
HETATM    2  C   UNL     1       8.157  22.151  55.734  1.00  0.00    -0.059 A 
HETATM    3  C   UNL     1       7.405  22.366  54.574  1.00  0.00     0.037 A 
HETATM    4  C   UNL     1       7.069  23.668  54.257  1.00  0.00     0.046 A 
HETATM    5  C   UNL     1       7.435  24.768  55.044  1.00  0.00     0.023 A 
HETATM    6  C   UNL     1       6.910  26.033  54.390  1.00  0.00     0.199 A 
HETATM    7  C   UNL     1       6.287  25.461  53.066  1.00  0.00     0.266 A 
HETATM    8  O   UNL     1       5.844  26.096  52.119  1.00  0.00    -0.269 OA
HETATM    9  N   UNL     1       6.382  24.076  53.122  1.00  0.00    -0.323 N 
HETATM   10  C   UNL     1       8.214  24.575  56.184  1.00  0.00    -0.049 A 
HETATM   11  C   UNL     1       8.654  25.700  57.073  1.00  0.00     0.049 C 
HETATM   12  C   UNL     1       8.548  23.250  56.528  1.00  0.00     0.014 A 
HETATM   13  H   UNL     1       6.071  23.475  52.374  1.00  0.00     0.169 HD
ENDROOT
BRANCH   6  14
HETATM   14  O   UNL     1       7.996  26.912  54.143  1.00  0.00    -0.371 OA
HETATM   15  H   UNL     1       8.045  26.999  53.177  1.00  0.00     0.212 HD
ENDBRANCH   6  14
BRANCH   6  16
HETATM   16  C   UNL     1       5.829  26.653  55.259  1.00  0.00     0.018 A 
HETATM   17  C   UNL     1       5.201  27.937  55.033  1.00  0.00     0.002 A 
HETATM   18  C   UNL     1       4.302  28.165  56.077  1.00  0.00     0.043 A 
HETATM   19  C   UNL     1       5.310  28.931  54.033  1.00  0.00     0.014 A 
HETATM   20  C   UNL     1       3.545  29.337  56.194  1.00  0.00     0.030 A 
HETATM   21  N   UNL     1       4.331  27.056  56.884  1.00  0.00    -0.365 N 
HETATM   22  C   UNL     1       3.693  30.309  55.203  1.00  0.00     0.002 A 
HETATM   23  C   UNL     1       4.556  30.108  54.131  1.00  0.00     0.001 A 
HETATM   24  H   UNL     1       3.766  26.937  57.714  1.00  0.00     0.165 HD
HETATM   25  C   UNL     1       5.215  26.138  56.394  1.00  0.00     0.100 A 
ENDBRANCH   6  16
TORSDOF 2
ENDMDL
MODEL 7
REMARK VINA RESULT:      -8.0     11.344     13.431
REMARK  2 active torsions:
REMARK  status: ('A' for Active; 'I' for Inactive)
REMARK    1  A    between atoms: C_6  and  O_7 
REMARK    2  A    between atoms: C_6  and  C_8 
ROOT
HETATM    1  C   UNL     1       4.587  38.385  59.127  1.00  0.00     0.048 C 
HETATM    2  C   UNL     1       4.436  37.623  60.413  1.00  0.00    -0.059 A 
HETATM    3  C   UNL     1       3.635  36.479  60.478  1.00  0.00     0.037 A 
HETATM    4  C   UNL     1       3.544  35.824  61.690  1.00  0.00     0.046 A 
HETATM    5  C   UNL     1       4.220  36.247  62.843  1.00  0.00     0.023 A 
HETATM    6  C   UNL     1       3.879  35.305  63.983  1.00  0.00     0.199 A 
HETATM    7  C   UNL     1       2.828  34.359  63.299  1.00  0.00     0.266 A 
HETATM    8  O   UNL     1       2.144  33.499  63.835  1.00  0.00    -0.269 OA
HETATM    9  N   UNL     1       2.756  34.713  61.957  1.00  0.00    -0.323 N 
HETATM   10  C   UNL     1       4.994  37.407  62.805  1.00  0.00    -0.049 A 
HETATM   11  C   UNL     1       5.740  37.929  63.997  1.00  0.00     0.049 C 
HETATM   12  C   UNL     1       5.110  38.073  61.569  1.00  0.00     0.014 A 
HETATM   13  H   UNL     1       2.130  34.266  61.306  1.00  0.00     0.169 HD
ENDROOT
BRANCH   6  14
HETATM   14  O   UNL     1       3.320  36.053  65.051  1.00  0.00    -0.371 OA
HETATM   15  H   UNL     1       3.100  36.920  64.674  1.00  0.00     0.212 HD
ENDBRANCH   6  14
BRANCH   6  16
HETATM   16  C   UNL     1       5.113  34.519  64.389  1.00  0.00     0.018 A 
HETATM   17  C   UNL     1       6.041  33.879  63.480  1.00  0.00     0.002 A 
HETATM   18  C   UNL     1       7.006  33.220  64.244  1.00  0.00     0.043 A 
HETATM   19  C   UNL     1       6.153  33.800  62.073  1.00  0.00     0.014 A 
HETATM   20  C   UNL     1       8.042  32.463  63.684  1.00  0.00     0.030 A 
HETATM   21  N   UNL     1       6.724  33.480  65.562  1.00  0.00    -0.365 N 
HETATM   22  C   UNL     1       8.111  32.385  62.291  1.00  0.00     0.002 A 
HETATM   23  C   UNL     1       7.186  33.051  61.494  1.00  0.00     0.001 A 
HETATM   24  H   UNL     1       7.270  33.140  66.341  1.00  0.00     0.165 HD
HETATM   25  C   UNL     1       5.617  34.274  65.661  1.00  0.00     0.100 A 
ENDBRANCH   6  16
TORSDOF 2
ENDMDL
MODEL 8
REMARK VINA RESULT:      -7.9      5.924      7.563
REMARK  2 active torsions:
REMARK  status: ('A' for Active; 'I' for Inactive)
REMARK    1  A    between atoms: C_6  and  O_7 
REMARK    2  A    between atoms: C_6  and  C_8 
ROOT
HETATM    1  C   UNL     1      -0.121  27.824  46.462  1.00  0.00     0.048 C 
HETATM    2  C   UNL     1       1.117  27.894  47.309  1.00  0.00    -0.059 A 
HETATM    3  C   UNL     1       1.582  29.119  47.798  1.00  0.00     0.037 A 
HETATM    4  C   UNL     1       2.724  29.112  48.574  1.00  0.00     0.046 A 
HETATM    5  C   UNL     1       3.422  27.941  48.898  1.00  0.00     0.023 A 
HETATM    6  C   UNL     1       4.625  28.309  49.749  1.00  0.00     0.199 A 
HETATM    7  C   UNL     1       4.532  29.877  49.754  1.00  0.00     0.266 A 
HETATM    8  O   UNL     1       5.352  30.668  50.198  1.00  0.00    -0.269 OA
HETATM    9  N   UNL     1       3.360  30.230  49.094  1.00  0.00    -0.323 N 
HETATM   10  C   UNL     1       2.994  26.715  48.390  1.00  0.00    -0.049 A 
HETATM   11  C   UNL     1       3.692  25.420  48.682  1.00  0.00     0.049 C 
HETATM   12  C   UNL     1       1.819  26.708  47.612  1.00  0.00     0.014 A 
HETATM   13  H   UNL     1       3.085  31.188  48.943  1.00  0.00     0.169 HD
ENDROOT
BRANCH   6  14
HETATM   14  O   UNL     1       5.803  27.838  49.114  1.00  0.00    -0.371 OA
HETATM   15  H   UNL     1       6.156  28.597  48.624  1.00  0.00     0.212 HD
ENDBRANCH   6  14
BRANCH   6  16
HETATM   16  C   UNL     1       4.448  27.764  51.155  1.00  0.00     0.018 A 
HETATM   17  C   UNL     1       5.210  26.681  51.740  1.00  0.00     0.002 A 
HETATM   18  C   UNL     1       4.711  26.449  53.024  1.00  0.00     0.043 A 
HETATM   19  C   UNL     1       6.283  25.873  51.299  1.00  0.00     0.014 A 
HETATM   20  C   UNL     1       5.197  25.439  53.864  1.00  0.00     0.030 A 
HETATM   21  N   UNL     1       3.724  27.375  53.247  1.00  0.00    -0.365 N 
HETATM   22  C   UNL     1       6.241  24.644  53.389  1.00  0.00     0.002 A 
HETATM   23  C   UNL     1       6.785  24.861  52.128  1.00  0.00     0.001 A 
HETATM   24  H   UNL     1       3.195  27.452  54.104  1.00  0.00     0.165 HD
HETATM   25  C   UNL     1       3.576  28.180  52.153  1.00  0.00     0.100 A 
ENDBRANCH   6  16
TORSDOF 2
ENDMDL
MODEL 9
REMARK VINA RESULT:      -7.7      2.535      3.966
REMARK  2 active torsions:
REMARK  status: ('A' for Active; 'I' for Inactive)
REMARK    1  A    between atoms: C_6  and  O_7 
REMARK    2  A    between atoms: C_6  and  C_8 
ROOT
HETATM    1  C   UNL     1       8.334  31.513  59.262  1.00  0.00     0.048 C 
HETATM    2  C   UNL     1       7.598  30.513  58.417  1.00  0.00    -0.059 A 
HETATM    3  C   UNL     1       6.545  30.913  57.588  1.00  0.00     0.037 A 
HETATM    4  C   UNL     1       5.915  29.943  56.834  1.00  0.00     0.046 A 
HETATM    5  C   UNL     1       6.289  28.592  56.856  1.00  0.00     0.023 A 
HETATM    6  C   UNL     1       5.377  27.818  55.922  1.00  0.00     0.199 A 
HETATM    7  C   UNL     1       4.378  28.940  55.463  1.00  0.00     0.266 A 
HETATM    8  O   UNL     1       3.361  28.803  54.799  1.00  0.00    -0.269 OA
HETATM    9  N   UNL     1       4.820  30.141  56.005  1.00  0.00    -0.323 N 
HETATM   10  C   UNL     1       7.313  28.170  57.703  1.00  0.00    -0.049 A 
HETATM   11  C   UNL     1       7.765  26.743  57.791  1.00  0.00     0.049 C 
HETATM   12  C   UNL     1       7.976  29.154  58.463  1.00  0.00     0.014 A 
HETATM   13  H   UNL     1       4.331  31.013  55.875  1.00  0.00     0.169 HD
ENDROOT
BRANCH   6  14
HETATM   14  O   UNL     1       4.733  26.785  56.652  1.00  0.00    -0.371 OA
HETATM   15  H   UNL     1       5.282  25.995  56.524  1.00  0.00     0.212 HD
ENDBRANCH   6  14
BRANCH   6  16
HETATM   16  C   UNL     1       6.172  27.300  54.736  1.00  0.00     0.018 A 
HETATM   17  C   UNL     1       6.579  25.926  54.530  1.00  0.00     0.002 A 
HETATM   18  C   UNL     1       7.332  25.872  53.356  1.00  0.00     0.043 A 
HETATM   19  C   UNL     1       6.374  24.717  55.233  1.00  0.00     0.014 A 
HETATM   20  C   UNL     1       7.918  24.695  52.874  1.00  0.00     0.030 A 
HETATM   21  N   UNL     1       7.351  27.139  52.830  1.00  0.00    -0.365 N 
HETATM   22  C   UNL     1       7.716  23.522  53.605  1.00  0.00     0.002 A 
HETATM   23  C   UNL     1       6.948  23.528  54.763  1.00  0.00     0.001 A 
HETATM   24  H   UNL     1       7.814  27.394  51.968  1.00  0.00     0.165 HD
HETATM   25  C   UNL     1       6.642  27.992  53.627  1.00  0.00     0.100 A 
ENDBRANCH   6  16
TORSDOF 2
ENDMDL
MODEL 10
REMARK VINA RESULT:      -7.7      2.264      3.431
REMARK  2 active torsions:
REMARK  status: ('A' for Active; 'I' for Inactive)
REMARK    1  A    between atoms: C_6  and  O_7 
REMARK    2  A    between atoms: C_6  and  C_8 
ROOT
HETATM    1  C   UNL     1       5.266  28.658  51.380  1.00  0.00     0.048 C 
HETATM    2  C   UNL     1       5.662  28.101  52.718  1.00  0.00    -0.059 A 
HETATM    3  C   UNL     1       4.802  27.255  53.425  1.00  0.00     0.037 A 
HETATM    4  C   UNL     1       5.231  26.775  54.646  1.00  0.00     0.046 A 
HETATM    5  C   UNL     1       6.482  27.087  55.196  1.00  0.00     0.023 A 
HETATM    6  C   UNL     1       6.608  26.400  56.544  1.00  0.00     0.199 A 
HETATM    7  C   UNL     1       5.188  25.745  56.692  1.00  0.00     0.266 A 
HETATM    8  O   UNL     1       4.730  25.180  57.675  1.00  0.00    -0.269 OA
HETATM    9  N   UNL     1       4.495  25.976  55.510  1.00  0.00    -0.323 N 
HETATM   10  C   UNL     1       7.337  27.957  54.522  1.00  0.00    -0.049 A 
HETATM   11  C   UNL     1       8.687  28.347  55.048  1.00  0.00     0.049 C 
HETATM   12  C   UNL     1       6.919  28.439  53.266  1.00  0.00     0.014 A 
HETATM   13  H   UNL     1       3.544  25.674  55.365  1.00  0.00     0.169 HD
ENDROOT
BRANCH   6  14
HETATM   14  O   UNL     1       6.861  27.378  57.541  1.00  0.00    -0.371 OA
HETATM   15  H   UNL     1       5.993  27.600  57.912  1.00  0.00     0.212 HD
ENDBRANCH   6  14
BRANCH   6  16
HETATM   16  C   UNL     1       7.681  25.327  56.478  1.00  0.00     0.018 A 
HETATM   17  C   UNL     1       7.856  24.377  55.400  1.00  0.00     0.002 A 
HETATM   18  C   UNL     1       8.914  23.531  55.739  1.00  0.00     0.043 A 
HETATM   19  C   UNL     1       7.213  24.156  54.160  1.00  0.00     0.014 A 
HETATM   20  C   UNL     1       9.333  22.466  54.932  1.00  0.00     0.030 A 
HETATM   21  N   UNL     1       9.407  23.965  56.943  1.00  0.00    -0.365 N 
HETATM   22  C   UNL     1       8.662  22.260  53.726  1.00  0.00     0.002 A 
HETATM   23  C   UNL     1       7.622  23.098  53.338  1.00  0.00     0.001 A 
HETATM   24  H   UNL     1      10.190  23.547  57.426  1.00  0.00     0.165 HD
HETATM   25  C   UNL     1       8.700  25.049  57.381  1.00  0.00     0.100 A 
ENDBRANCH   6  16
TORSDOF 2
ENDMDL
