MODEL 1
REMARK VINA RESULT:     -10.3      0.000      0.000
REMARK  5 active torsions:
REMARK  status: ('A' for Active; 'I' for Inactive)
REMARK    1  A    between atoms: C_7  and  C_8 
REMARK    2  A    between atoms: N_9  and  N_10 
REMARK       I    between atoms: N_10  and  C_11 
REMARK    3  A    between atoms: C_11  and  C_12 
REMARK    4  A    between atoms: C_12  and  O_13 
REMARK    5  A    between atoms: O_13  and  C_14 
ROOT
HETATM    1  N   UNL     1       7.375  27.321  55.903  1.00  0.00    -0.246 N 
HETATM    2  C   UNL     1       7.409  27.560  57.273  1.00  0.00     0.261 C 
HETATM    3  O   UNL     1       7.963  26.852  58.114  1.00  0.00    -0.269 OA
HETATM    4  H   UNL     1       6.661  27.819  55.375  1.00  0.00     0.192 HD
ENDROOT
BRANCH   1   5
HETATM    5  N   UNL     1       7.850  26.184  55.285  1.00  0.00    -0.184 NA
HETATM    6  C   UNL     1       7.012  25.217  55.077  1.00  0.00     0.153 C 
BRANCH   6   7
HETATM    7  C   UNL     1       7.418  24.010  54.377  1.00  0.00     0.018 A 
HETATM    8  C   UNL     1       7.565  23.946  52.995  1.00  0.00     0.018 A 
HETATM    9  C   UNL     1       7.390  24.988  51.949  1.00  0.00     0.069 C 
HETATM   10  N   UNL     1       7.950  22.669  52.673  1.00  0.00    -0.358 N 
HETATM   11  H   UNL     1       8.136  22.334  51.738  1.00  0.00     0.166 HD
HETATM   12  C   UNL     1       8.061  21.897  53.804  1.00  0.00     0.043 A 
HETATM   13  C   UNL     1       7.739  22.710  54.892  1.00  0.00     0.004 A 
HETATM   14  C   UNL     1       8.422  20.551  53.936  1.00  0.00     0.030 A 
HETATM   15  C   UNL     1       7.783  22.136  56.180  1.00  0.00     0.014 A 
HETATM   16  C   UNL     1       8.143  20.791  56.332  1.00  0.00     0.001 A 
HETATM   17  C   UNL     1       8.456  20.011  55.223  1.00  0.00     0.002 A 
ENDBRANCH   6   7
ENDBRANCH   1   5
BRANCH   2  18
HETATM   18  C   UNL     1       6.734  28.866  57.683  1.00  0.00     0.280 C 
BRANCH  18  19
HETATM   19  O   UNL     1       7.654  29.958  57.783  1.00  0.00    -0.341 OA
BRANCH  19  20
HETATM   20  C   UNL     1       7.101  30.939  58.579  1.00  0.00     0.080 A 
HETATM   21  C   UNL     1       7.663  31.282  59.829  1.00  0.00     0.009 A 
HETATM   22  C   UNL     1       6.994  32.234  60.643  1.00  0.00    -0.006 A 
HETATM   23  C   UNL     1       8.867  30.706  60.294  1.00  0.00     0.015 A 
HETATM   24  C   UNL     1       7.551  32.527  61.913  1.00  0.00     0.014 A 
HETATM   25  C   UNL     1       5.809  32.833  60.139  1.00  0.00     0.022 A 
HETATM   26  C   UNL     1       8.730  31.926  62.359  1.00  0.00     0.001 A 
HETATM   27  C   UNL     1       9.393  31.021  61.545  1.00  0.00     0.001 A 
HETATM   28 BR   UNL     1       4.808  34.118  61.133  1.00  0.00    -0.050 Br
HETATM   29  C   UNL     1       5.308  32.514  58.872  1.00  0.00     0.023 A 
HETATM   30  C   UNL     1       5.957  31.569  58.089  1.00  0.00     0.039 A 
ENDBRANCH  19  20
ENDBRANCH  18  19
ENDBRANCH   2  18
TORSDOF 5
ENDMDL
MODEL 2
REMARK VINA RESULT:     -10.0      1.041      2.238
REMARK  5 active torsions:
REMARK  status: ('A' for Active; 'I' for Inactive)
REMARK    1  A    between atoms: C_7  and  C_8 
REMARK    2  A    between atoms: N_9  and  N_10 
REMARK       I    between atoms: N_10  and  C_11 
REMARK    3  A    between atoms: C_11  and  C_12 
REMARK    4  A    between atoms: C_12  and  O_13 
REMARK    5  A    between atoms: O_13  and  C_14 
ROOT
HETATM    1  N   UNL     1       7.156  27.285  56.184  1.00  0.00    -0.246 N 
HETATM    2  C   UNL     1       7.865  28.068  57.090  1.00  0.00     0.261 C 
HETATM    3  O   UNL     1       9.074  27.999  57.310  1.00  0.00    -0.269 OA
HETATM    4  H   UNL     1       6.145  27.254  56.307  1.00  0.00     0.192 HD
ENDROOT
BRANCH   1   5
HETATM    5  N   UNL     1       7.676  26.220  55.481  1.00  0.00    -0.184 NA
HETATM    6  C   UNL     1       6.880  25.234  55.205  1.00  0.00     0.153 C 
BRANCH   6   7
HETATM    7  C   UNL     1       7.334  24.102  54.415  1.00  0.00     0.018 A 
HETATM    8  C   UNL     1       7.529  24.164  53.039  1.00  0.00     0.018 A 
HETATM    9  C   UNL     1       7.368  25.293  52.084  1.00  0.00     0.069 C 
HETATM   10  N   UNL     1       7.950  22.929  52.618  1.00  0.00    -0.358 N 
HETATM   11  H   UNL     1       8.173  22.682  51.664  1.00  0.00     0.166 HD
HETATM   12  C   UNL     1       8.039  22.060  53.679  1.00  0.00     0.043 A 
HETATM   13  C   UNL     1       7.663  22.767  54.823  1.00  0.00     0.004 A 
HETATM   14  C   UNL     1       8.422  20.714  53.704  1.00  0.00     0.030 A 
HETATM   15  C   UNL     1       7.676  22.081  56.057  1.00  0.00     0.014 A 
HETATM   16  C   UNL     1       8.058  20.734  56.101  1.00  0.00     0.001 A 
HETATM   17  C   UNL     1       8.424  20.062  54.938  1.00  0.00     0.002 A 
ENDBRANCH   6   7
ENDBRANCH   1   5
BRANCH   2  18
HETATM   18  C   UNL     1       7.009  29.125  57.784  1.00  0.00     0.280 C 
BRANCH  18  19
HETATM   19  O   UNL     1       7.630  30.415  57.805  1.00  0.00    -0.341 OA
BRANCH  19  20
HETATM   20  C   UNL     1       7.586  30.913  59.090  1.00  0.00     0.080 A 
HETATM   21  C   UNL     1       6.614  31.862  59.482  1.00  0.00     0.009 A 
HETATM   22  C   UNL     1       6.679  32.407  60.792  1.00  0.00    -0.006 A 
HETATM   23  C   UNL     1       5.585  32.286  58.612  1.00  0.00     0.015 A 
HETATM   24  C   UNL     1       5.723  33.391  61.147  1.00  0.00     0.014 A 
HETATM   25  C   UNL     1       7.696  31.935  61.666  1.00  0.00     0.022 A 
HETATM   26  C   UNL     1       4.730  33.810  60.259  1.00  0.00     0.001 A 
HETATM   27  C   UNL     1       4.655  33.251  58.994  1.00  0.00     0.001 A 
HETATM   28 BR   UNL     1       7.900  32.590  63.446  1.00  0.00    -0.050 Br
HETATM   29  C   UNL     1       8.608  30.954  61.265  1.00  0.00     0.023 A 
HETATM   30  C   UNL     1       8.550  30.438  59.978  1.00  0.00     0.039 A 
ENDBRANCH  19  20
ENDBRANCH  18  19
ENDBRANCH   2  18
TORSDOF 5
ENDMDL
MODEL 3
REMARK VINA RESULT:      -9.7      3.665      9.614
REMARK  5 active torsions:
REMARK  status: ('A' for Active; 'I' for Inactive)
REMARK    1  A    between atoms: C_7  and  C_8 
REMARK    2  A    between atoms: N_9  and  N_10 
REMARK       I    between atoms: N_10  and  C_11 
REMARK    3  A    between atoms: C_11  and  C_12 
REMARK    4  A    between atoms: C_12  and  O_13 
REMARK    5  A    between atoms: O_13  and  C_14 
ROOT
HETATM    1  N   UNL     1       6.580  28.417  55.924  1.00  0.00    -0.246 N 
HETATM    2  C   UNL     1       5.739  28.275  54.825  1.00  0.00     0.261 C 
HETATM    3  O   UNL     1       4.713  28.922  54.615  1.00  0.00    -0.269 OA
HETATM    4  H   UNL     1       7.218  27.645  56.108  1.00  0.00     0.192 HD
ENDROOT
BRANCH   1   5
HETATM    5  N   UNL     1       6.329  29.220  57.016  1.00  0.00    -0.184 NA
HETATM    6  C   UNL     1       7.247  30.068  57.363  1.00  0.00     0.153 C 
BRANCH   6   7
HETATM    7  C   UNL     1       7.036  30.992  58.464  1.00  0.00     0.018 A 
HETATM    8  C   UNL     1       6.019  31.942  58.477  1.00  0.00     0.018 A 
HETATM    9  C   UNL     1       4.954  32.239  57.483  1.00  0.00     0.069 C 
HETATM   10  N   UNL     1       6.113  32.641  59.653  1.00  0.00    -0.358 N 
HETATM   11  H   UNL     1       5.499  33.392  59.935  1.00  0.00     0.166 HD
HETATM   12  C   UNL     1       7.160  32.176  60.411  1.00  0.00     0.043 A 
HETATM   13  C   UNL     1       7.758  31.137  59.695  1.00  0.00     0.004 A 
HETATM   14  C   UNL     1       7.612  32.599  61.667  1.00  0.00     0.030 A 
HETATM   15  C   UNL     1       8.869  30.489  60.277  1.00  0.00     0.014 A 
HETATM   16  C   UNL     1       9.335  30.898  61.533  1.00  0.00     0.001 A 
HETATM   17  C   UNL     1       8.713  31.940  62.216  1.00  0.00     0.002 A 
ENDBRANCH   6   7
ENDBRANCH   1   5
BRANCH   2  18
HETATM   18  C   UNL     1       6.233  27.253  53.805  1.00  0.00     0.280 C 
BRANCH  18  19
HETATM   19  O   UNL     1       7.578  26.829  54.052  1.00  0.00    -0.341 OA
BRANCH  19  20
HETATM   20  C   UNL     1       7.651  25.460  53.905  1.00  0.00     0.080 A 
HETATM   21  C   UNL     1       7.883  24.609  55.010  1.00  0.00     0.009 A 
HETATM   22  C   UNL     1       8.041  23.216  54.780  1.00  0.00    -0.006 A 
HETATM   23  C   UNL     1       7.966  25.100  56.332  1.00  0.00     0.015 A 
HETATM   24  C   UNL     1       8.320  22.389  55.897  1.00  0.00     0.014 A 
HETATM   25  C   UNL     1       7.912  22.737  53.449  1.00  0.00     0.022 A 
HETATM   26  C   UNL     1       8.420  22.904  57.191  1.00  0.00     0.001 A 
HETATM   27  C   UNL     1       8.233  24.259  57.410  1.00  0.00     0.001 A 
HETATM   28 BR   UNL     1       8.110  20.893  53.001  1.00  0.00    -0.050 Br
HETATM   29  C   UNL     1       7.626  23.598  52.385  1.00  0.00     0.023 A 
HETATM   30  C   UNL     1       7.490  24.961  52.613  1.00  0.00     0.039 A 
ENDBRANCH  19  20
ENDBRANCH  18  19
ENDBRANCH   2  18
TORSDOF 5
ENDMDL
MODEL 4
REMARK VINA RESULT:      -9.5      3.991     10.679
REMARK  5 active torsions:
REMARK  status: ('A' for Active; 'I' for Inactive)
REMARK    1  A    between atoms: C_7  and  C_8 
REMARK    2  A    between atoms: N_9  and  N_10 
REMARK       I    between atoms: N_10  and  C_11 
REMARK    3  A    between atoms: C_11  and  C_12 
REMARK    4  A    between atoms: C_12  and  O_13 
REMARK    5  A    between atoms: O_13  and  C_14 
ROOT
HETATM    1  N   UNL     1       6.856  31.083  58.071  1.00  0.00    -0.246 N 
HETATM    2  C   UNL     1       7.595  29.907  58.161  1.00  0.00     0.261 C 
HETATM    3  O   UNL     1       8.228  29.529  59.147  1.00  0.00    -0.269 OA
HETATM    4  H   UNL     1       6.624  31.400  57.131  1.00  0.00     0.192 HD
ENDROOT
BRANCH   1   5
HETATM    5  N   UNL     1       6.820  32.072  59.030  1.00  0.00    -0.184 NA
HETATM    6  C   UNL     1       5.759  32.153  59.771  1.00  0.00     0.153 C 
BRANCH   6   7
HETATM    7  C   UNL     1       5.666  33.128  60.845  1.00  0.00     0.018 A 
HETATM    8  C   UNL     1       4.809  34.223  60.806  1.00  0.00     0.018 A 
HETATM    9  C   UNL     1       3.830  34.655  59.774  1.00  0.00     0.069 C 
HETATM   10  N   UNL     1       4.980  34.931  61.968  1.00  0.00    -0.358 N 
HETATM   11  H   UNL     1       4.483  35.775  62.215  1.00  0.00     0.166 HD
HETATM   12  C   UNL     1       5.922  34.330  62.768  1.00  0.00     0.043 A 
HETATM   13  C   UNL     1       6.369  33.191  62.094  1.00  0.00     0.004 A 
HETATM   14  C   UNL     1       6.401  34.710  64.027  1.00  0.00     0.030 A 
HETATM   15  C   UNL     1       7.350  32.395  62.723  1.00  0.00     0.014 A 
HETATM   16  C   UNL     1       7.841  32.760  63.983  1.00  0.00     0.001 A 
HETATM   17  C   UNL     1       7.372  33.904  64.623  1.00  0.00     0.002 A 
ENDBRANCH   6   7
ENDBRANCH   1   5
BRANCH   2  18
HETATM   18  C   UNL     1       7.511  29.035  56.912  1.00  0.00     0.280 C 
BRANCH  18  19
HETATM   19  O   UNL     1       6.481  28.043  56.996  1.00  0.00    -0.341 OA
BRANCH  19  20
HETATM   20  C   UNL     1       6.992  26.830  56.585  1.00  0.00     0.080 A 
HETATM   21  C   UNL     1       6.510  26.180  55.426  1.00  0.00     0.009 A 
HETATM   22  C   UNL     1       7.011  24.889  55.108  1.00  0.00    -0.006 A 
HETATM   23  C   UNL     1       5.547  26.771  54.579  1.00  0.00     0.015 A 
HETATM   24  C   UNL     1       6.479  24.236  53.968  1.00  0.00     0.014 A 
HETATM   25  C   UNL     1       8.010  24.330  55.949  1.00  0.00     0.022 A 
HETATM   26  C   UNL     1       5.509  24.834  53.160  1.00  0.00     0.001 A 
HETATM   27  C   UNL     1       5.049  26.106  53.460  1.00  0.00     0.001 A 
HETATM   28 BR   UNL     1       8.760  22.603  55.641  1.00  0.00    -0.050 Br
HETATM   29  C   UNL     1       8.506  25.025  57.057  1.00  0.00     0.023 A 
HETATM   30  C   UNL     1       8.001  26.278  57.373  1.00  0.00     0.039 A 
ENDBRANCH  19  20
ENDBRANCH  18  19
ENDBRANCH   2  18
TORSDOF 5
ENDMDL
MODEL 5
REMARK VINA RESULT:      -9.5      3.829     10.616
REMARK  5 active torsions:
REMARK  status: ('A' for Active; 'I' for Inactive)
REMARK    1  A    between atoms: C_7  and  C_8 
REMARK    2  A    between atoms: N_9  and  N_10 
REMARK       I    between atoms: N_10  and  C_11 
REMARK    3  A    between atoms: C_11  and  C_12 
REMARK    4  A    between atoms: C_12  and  O_13 
REMARK    5  A    between atoms: O_13  and  C_14 
ROOT
HETATM    1  N   UNL     1       6.952  30.913  58.882  1.00  0.00    -0.246 N 
HETATM    2  C   UNL     1       7.959  29.958  58.789  1.00  0.00     0.261 C 
HETATM    3  O   UNL     1       8.878  29.801  59.593  1.00  0.00    -0.269 OA
HETATM    4  H   UNL     1       6.436  31.111  58.026  1.00  0.00     0.192 HD
ENDROOT
BRANCH   1   5
HETATM    5  N   UNL     1       6.896  31.918  59.824  1.00  0.00    -0.184 NA
HETATM    6  C   UNL     1       5.725  32.336  60.190  1.00  0.00     0.153 C 
BRANCH   6   7
HETATM    7  C   UNL     1       5.578  33.348  61.222  1.00  0.00     0.018 A 
HETATM    8  C   UNL     1       4.745  34.456  61.088  1.00  0.00     0.018 A 
HETATM    9  C   UNL     1       3.845  34.867  59.978  1.00  0.00     0.069 C 
HETATM   10  N   UNL     1       4.850  35.200  62.235  1.00  0.00    -0.358 N 
HETATM   11  H   UNL     1       4.353  36.060  62.420  1.00  0.00     0.166 HD
HETATM   12  C   UNL     1       5.724  34.611  63.117  1.00  0.00     0.043 A 
HETATM   13  C   UNL     1       6.195  33.444  62.513  1.00  0.00     0.004 A 
HETATM   14  C   UNL     1       6.125  35.028  64.392  1.00  0.00     0.030 A 
HETATM   15  C   UNL     1       7.117  32.654  63.234  1.00  0.00     0.014 A 
HETATM   16  C   UNL     1       7.529  33.054  64.511  1.00  0.00     0.001 A 
HETATM   17  C   UNL     1       7.038  34.226  65.079  1.00  0.00     0.002 A 
ENDBRANCH   6   7
ENDBRANCH   1   5
BRANCH   2  18
HETATM   18  C   UNL     1       7.804  29.021  57.594  1.00  0.00     0.280 C 
BRANCH  18  19
HETATM   19  O   UNL     1       7.596  27.658  57.982  1.00  0.00    -0.341 OA
BRANCH  19  20
HETATM   20  C   UNL     1       6.996  26.982  56.941  1.00  0.00     0.080 A 
HETATM   21  C   UNL     1       7.397  25.677  56.578  1.00  0.00     0.009 A 
HETATM   22  C   UNL     1       6.805  25.070  55.437  1.00  0.00    -0.006 A 
HETATM   23  C   UNL     1       8.369  24.959  57.310  1.00  0.00     0.015 A 
HETATM   24  C   UNL     1       7.257  23.780  55.065  1.00  0.00     0.014 A 
HETATM   25  C   UNL     1       5.799  25.792  54.740  1.00  0.00     0.022 A 
HETATM   26  C   UNL     1       8.237  23.101  55.794  1.00  0.00     0.001 A 
HETATM   27  C   UNL     1       8.786  23.688  56.923  1.00  0.00     0.001 A 
HETATM   28 BR   UNL     1       4.931  25.098  53.189  1.00  0.00    -0.050 Br
HETATM   29  C   UNL     1       5.384  27.060  55.159  1.00  0.00     0.023 A 
HETATM   30  C   UNL     1       5.979  27.655  56.263  1.00  0.00     0.039 A 
ENDBRANCH  19  20
ENDBRANCH  18  19
ENDBRANCH   2  18
TORSDOF 5
ENDMDL
MODEL 6
REMARK VINA RESULT:      -9.5      1.593      2.612
REMARK  5 active torsions:
REMARK  status: ('A' for Active; 'I' for Inactive)
REMARK    1  A    between atoms: C_7  and  C_8 
REMARK    2  A    between atoms: N_9  and  N_10 
REMARK       I    between atoms: N_10  and  C_11 
REMARK    3  A    between atoms: C_11  and  C_12 
REMARK    4  A    between atoms: C_12  and  O_13 
REMARK    5  A    between atoms: O_13  and  C_14 
ROOT
HETATM    1  N   UNL     1       7.178  28.548  56.856  1.00  0.00    -0.246 N 
HETATM    2  C   UNL     1       7.456  29.405  57.915  1.00  0.00     0.261 C 
HETATM    3  O   UNL     1       8.392  29.292  58.707  1.00  0.00    -0.269 OA
HETATM    4  H   UNL     1       6.237  28.598  56.468  1.00  0.00     0.192 HD
ENDROOT
BRANCH   1   5
HETATM    5  N   UNL     1       7.835  27.363  56.601  1.00  0.00    -0.184 NA
HETATM    6  C   UNL     1       7.112  26.319  56.340  1.00  0.00     0.153 C 
BRANCH   6   7
HETATM    7  C   UNL     1       7.727  25.046  56.001  1.00  0.00     0.018 A 
HETATM    8  C   UNL     1       8.490  24.307  56.899  1.00  0.00     0.018 A 
HETATM    9  C   UNL     1       8.841  24.566  58.321  1.00  0.00     0.069 C 
HETATM   10  N   UNL     1       8.917  23.174  56.254  1.00  0.00    -0.358 N 
HETATM   11  H   UNL     1       9.487  22.448  56.665  1.00  0.00     0.166 HD
HETATM   12  C   UNL     1       8.454  23.150  54.961  1.00  0.00     0.043 A 
HETATM   13  C   UNL     1       7.699  24.309  54.771  1.00  0.00     0.004 A 
HETATM   14  C   UNL     1       8.648  22.192  53.959  1.00  0.00     0.030 A 
HETATM   15  C   UNL     1       7.109  24.512  53.505  1.00  0.00     0.014 A 
HETATM   16  C   UNL     1       7.292  23.564  52.490  1.00  0.00     0.001 A 
HETATM   17  C   UNL     1       8.053  22.421  52.717  1.00  0.00     0.002 A 
ENDBRANCH   6   7
ENDBRANCH   1   5
BRANCH   2  18
HETATM   18  C   UNL     1       6.511  30.601  57.998  1.00  0.00     0.280 C 
BRANCH  18  19
HETATM   19  O   UNL     1       7.169  31.799  58.425  1.00  0.00    -0.341 OA
BRANCH  19  20
HETATM   20  C   UNL     1       6.455  32.357  59.464  1.00  0.00     0.080 A 
HETATM   21  C   UNL     1       6.983  32.421  60.774  1.00  0.00     0.009 A 
HETATM   22  C   UNL     1       6.162  32.921  61.820  1.00  0.00    -0.006 A 
HETATM   23  C   UNL     1       8.298  31.999  61.075  1.00  0.00     0.015 A 
HETATM   24  C   UNL     1       6.696  32.932  63.133  1.00  0.00     0.014 A 
HETATM   25  C   UNL     1       4.859  33.379  61.489  1.00  0.00     0.022 A 
HETATM   26  C   UNL     1       7.992  32.487  63.407  1.00  0.00     0.001 A 
HETATM   27  C   UNL     1       8.796  32.030  62.376  1.00  0.00     0.001 A 
HETATM   28 BR   UNL     1       3.652  34.066  62.797  1.00  0.00    -0.050 Br
HETATM   29  C   UNL     1       4.386  33.355  60.172  1.00  0.00     0.023 A 
HETATM   30  C   UNL     1       5.187  32.848  59.158  1.00  0.00     0.039 A 
ENDBRANCH  19  20
ENDBRANCH  18  19
ENDBRANCH   2  18
TORSDOF 5
ENDMDL
MODEL 7
REMARK VINA RESULT:      -9.4      2.103      3.160
REMARK  5 active torsions:
REMARK  status: ('A' for Active; 'I' for Inactive)
REMARK    1  A    between atoms: C_7  and  C_8 
REMARK    2  A    between atoms: N_9  and  N_10 
REMARK       I    between atoms: N_10  and  C_11 
REMARK    3  A    between atoms: C_11  and  C_12 
REMARK    4  A    between atoms: C_12  and  O_13 
REMARK    5  A    between atoms: O_13  and  C_14 
ROOT
HETATM    1  N   UNL     1       6.399  29.535  57.839  1.00  0.00    -0.246 N 
HETATM    2  C   UNL     1       7.437  30.080  58.587  1.00  0.00     0.261 C 
HETATM    3  O   UNL     1       8.493  29.514  58.874  1.00  0.00    -0.269 OA
HETATM    4  H   UNL     1       5.494  29.996  57.918  1.00  0.00     0.192 HD
ENDROOT
BRANCH   1   5
HETATM    5  N   UNL     1       6.335  28.228  57.406  1.00  0.00    -0.184 NA
HETATM    6  C   UNL     1       6.507  28.004  56.141  1.00  0.00     0.153 C 
BRANCH   6   7
HETATM    7  C   UNL     1       6.515  26.650  55.613  1.00  0.00     0.018 A 
HETATM    8  C   UNL     1       5.748  26.254  54.522  1.00  0.00     0.018 A 
HETATM    9  C   UNL     1       4.813  27.025  53.659  1.00  0.00     0.069 C 
HETATM   10  N   UNL     1       5.992  24.924  54.298  1.00  0.00    -0.358 N 
HETATM   11  H   UNL     1       5.574  24.369  53.563  1.00  0.00     0.166 HD
HETATM   12  C   UNL     1       6.898  24.438  55.208  1.00  0.00     0.043 A 
HETATM   13  C   UNL     1       7.251  25.498  56.046  1.00  0.00     0.004 A 
HETATM   14  C   UNL     1       7.425  23.147  55.346  1.00  0.00     0.030 A 
HETATM   15  C   UNL     1       8.184  25.244  57.074  1.00  0.00     0.014 A 
HETATM   16  C   UNL     1       8.721  23.959  57.227  1.00  0.00     0.001 A 
HETATM   17  C   UNL     1       8.344  22.927  56.372  1.00  0.00     0.002 A 
ENDBRANCH   6   7
ENDBRANCH   1   5
BRANCH   2  18
HETATM   18  C   UNL     1       7.199  31.531  58.997  1.00  0.00     0.280 C 
BRANCH  18  19
HETATM   19  O   UNL     1       7.532  31.782  60.367  1.00  0.00    -0.341 OA
BRANCH  19  20
HETATM   20  C   UNL     1       6.455  32.377  60.989  1.00  0.00     0.080 A 
HETATM   21  C   UNL     1       6.524  32.812  62.332  1.00  0.00     0.009 A 
HETATM   22  C   UNL     1       5.352  33.331  62.945  1.00  0.00    -0.006 A 
HETATM   23  C   UNL     1       7.719  32.743  63.083  1.00  0.00     0.015 A 
HETATM   24  C   UNL     1       5.433  33.717  64.306  1.00  0.00     0.014 A 
HETATM   25  C   UNL     1       4.173  33.432  62.160  1.00  0.00     0.022 A 
HETATM   26  C   UNL     1       6.622  33.617  65.033  1.00  0.00     0.001 A 
HETATM   27  C   UNL     1       7.768  33.139  64.418  1.00  0.00     0.001 A 
HETATM   28 BR   UNL     1       2.530  34.102  62.861  1.00  0.00    -0.050 Br
HETATM   29  C   UNL     1       4.152  33.044  60.816  1.00  0.00     0.023 A 
HETATM   30  C   UNL     1       5.296  32.521  60.227  1.00  0.00     0.039 A 
ENDBRANCH  19  20
ENDBRANCH  18  19
ENDBRANCH   2  18
TORSDOF 5
ENDMDL
MODEL 8
REMARK VINA RESULT:      -9.4      1.498      2.070
REMARK  5 active torsions:
REMARK  status: ('A' for Active; 'I' for Inactive)
REMARK    1  A    between atoms: C_7  and  C_8 
REMARK    2  A    between atoms: N_9  and  N_10 
REMARK       I    between atoms: N_10  and  C_11 
REMARK    3  A    between atoms: C_11  and  C_12 
REMARK    4  A    between atoms: C_12  and  O_13 
REMARK    5  A    between atoms: O_13  and  C_14 
ROOT
HETATM    1  N   UNL     1       6.243  29.001  56.339  1.00  0.00    -0.246 N 
HETATM    2  C   UNL     1       6.656  29.613  57.518  1.00  0.00     0.261 C 
HETATM    3  O   UNL     1       7.561  29.220  58.254  1.00  0.00    -0.269 OA
HETATM    4  H   UNL     1       5.323  29.266  55.991  1.00  0.00     0.192 HD
ENDROOT
BRANCH   1   5
HETATM    5  N   UNL     1       6.699  27.786  55.874  1.00  0.00    -0.184 NA
HETATM    6  C   UNL     1       5.816  26.878  55.596  1.00  0.00     0.153 C 
BRANCH   6   7
HETATM    7  C   UNL     1       6.210  25.593  55.043  1.00  0.00     0.018 A 
HETATM    8  C   UNL     1       5.815  25.154  53.783  1.00  0.00     0.018 A 
HETATM    9  C   UNL     1       4.983  25.811  52.740  1.00  0.00     0.069 C 
HETATM   10  N   UNL     1       6.356  23.910  53.584  1.00  0.00    -0.358 N 
HETATM   11  H   UNL     1       6.240  23.349  52.752  1.00  0.00     0.166 HD
HETATM   12  C   UNL     1       7.096  23.523  54.676  1.00  0.00     0.043 A 
HETATM   13  C   UNL     1       7.028  24.560  55.608  1.00  0.00     0.004 A 
HETATM   14  C   UNL     1       7.812  22.340  54.898  1.00  0.00     0.030 A 
HETATM   15  C   UNL     1       7.720  24.396  56.828  1.00  0.00     0.014 A 
HETATM   16  C   UNL     1       8.442  23.220  57.068  1.00  0.00     0.001 A 
HETATM   17  C   UNL     1       8.484  22.208  56.114  1.00  0.00     0.002 A 
ENDBRANCH   6   7
ENDBRANCH   1   5
BRANCH   2  18
HETATM   18  C   UNL     1       5.918  30.913  57.823  1.00  0.00     0.280 C 
BRANCH  18  19
HETATM   19  O   UNL     1       6.782  31.936  58.331  1.00  0.00    -0.341 OA
BRANCH  19  20
HETATM   20  C   UNL     1       6.220  32.475  59.469  1.00  0.00     0.080 A 
HETATM   21  C   UNL     1       6.899  32.459  60.708  1.00  0.00     0.009 A 
HETATM   22  C   UNL     1       6.229  32.945  61.862  1.00  0.00    -0.006 A 
HETATM   23  C   UNL     1       8.220  31.973  60.834  1.00  0.00     0.015 A 
HETATM   24  C   UNL     1       6.913  32.876  63.102  1.00  0.00     0.014 A 
HETATM   25  C   UNL     1       4.918  33.468  61.707  1.00  0.00     0.022 A 
HETATM   26  C   UNL     1       8.211  32.369  63.203  1.00  0.00     0.001 A 
HETATM   27  C   UNL     1       8.868  31.926  62.066  1.00  0.00     0.001 A 
HETATM   28 BR   UNL     1       3.904  34.143  63.175  1.00  0.00    -0.050 Br
HETATM   29  C   UNL     1       4.294  33.521  60.456  1.00  0.00     0.023 A 
HETATM   30  C   UNL     1       4.947  33.029  59.334  1.00  0.00     0.039 A 
ENDBRANCH  19  20
ENDBRANCH  18  19
ENDBRANCH   2  18
TORSDOF 5
ENDMDL
MODEL 9
REMARK VINA RESULT:      -9.3      5.676      9.031
REMARK  5 active torsions:
REMARK  status: ('A' for Active; 'I' for Inactive)
REMARK    1  A    between atoms: C_7  and  C_8 
REMARK    2  A    between atoms: N_9  and  N_10 
REMARK       I    between atoms: N_10  and  C_11 
REMARK    3  A    between atoms: C_11  and  C_12 
REMARK    4  A    between atoms: C_12  and  O_13 
REMARK    5  A    between atoms: O_13  and  C_14 
ROOT
HETATM    1  N   UNL     1       6.112  26.287  52.540  1.00  0.00    -0.246 N 
HETATM    2  C   UNL     1       6.105  27.670  52.687  1.00  0.00     0.261 C 
HETATM    3  O   UNL     1       6.886  28.324  53.379  1.00  0.00    -0.269 OA
HETATM    4  H   UNL     1       5.259  25.866  52.176  1.00  0.00     0.192 HD
ENDROOT
BRANCH   1   5
HETATM    5  N   UNL     1       6.918  25.418  53.245  1.00  0.00    -0.184 NA
HETATM    6  C   UNL     1       6.392  24.792  54.251  1.00  0.00     0.153 C 
BRANCH   6   7
HETATM    7  C   UNL     1       7.156  23.814  55.008  1.00  0.00     0.018 A 
HETATM    8  C   UNL     1       7.523  24.000  56.337  1.00  0.00     0.018 A 
HETATM    9  C   UNL     1       7.252  25.122  57.274  1.00  0.00     0.069 C 
HETATM   10  N   UNL     1       8.232  22.895  56.735  1.00  0.00    -0.358 N 
HETATM   11  H   UNL     1       8.621  22.752  57.656  1.00  0.00     0.166 HD
HETATM   12  C   UNL     1       8.337  21.991  55.706  1.00  0.00     0.043 A 
HETATM   13  C   UNL     1       7.667  22.535  54.608  1.00  0.00     0.004 A 
HETATM   14  C   UNL     1       8.970  20.743  55.672  1.00  0.00     0.030 A 
HETATM   15  C   UNL     1       7.634  21.781  53.415  1.00  0.00     0.014 A 
HETATM   16  C   UNL     1       8.261  20.530  53.363  1.00  0.00     0.001 A 
HETATM   17  C   UNL     1       8.921  20.021  54.478  1.00  0.00     0.002 A 
ENDBRANCH   6   7
ENDBRANCH   1   5
BRANCH   2  18
HETATM   18  C   UNL     1       5.049  28.370  51.837  1.00  0.00     0.280 C 
BRANCH  18  19
HETATM   19  O   UNL     1       5.318  28.280  50.433  1.00  0.00    -0.341 OA
BRANCH  19  20
HETATM   20  C   UNL     1       4.177  28.614  49.735  1.00  0.00     0.080 A 
HETATM   21  C   UNL     1       3.578  27.715  48.824  1.00  0.00     0.009 A 
HETATM   22  C   UNL     1       2.460  28.152  48.065  1.00  0.00    -0.006 A 
HETATM   23  C   UNL     1       4.059  26.399  48.642  1.00  0.00     0.015 A 
HETATM   24  C   UNL     1       1.905  27.249  47.124  1.00  0.00     0.014 A 
HETATM   25  C   UNL     1       1.965  29.464  48.294  1.00  0.00     0.022 A 
HETATM   26  C   UNL     1       2.415  25.961  46.947  1.00  0.00     0.001 A 
HETATM   27  C   UNL     1       3.487  25.532  47.713  1.00  0.00     0.001 A 
HETATM   28 BR   UNL     1       0.477  30.178  47.338  1.00  0.00    -0.050 Br
HETATM   29  C   UNL     1       2.546  30.310  49.244  1.00  0.00     0.023 A 
HETATM   30  C   UNL     1       3.650  29.883  49.970  1.00  0.00     0.039 A 
ENDBRANCH  19  20
ENDBRANCH  18  19
ENDBRANCH   2  18
TORSDOF 5
ENDMDL
MODEL 10
REMARK VINA RESULT:      -9.2      2.469      4.004
REMARK  5 active torsions:
REMARK  status: ('A' for Active; 'I' for Inactive)
REMARK    1  A    between atoms: C_7  and  C_8 
REMARK    2  A    between atoms: N_9  and  N_10 
REMARK       I    between atoms: N_10  and  C_11 
REMARK    3  A    between atoms: C_11  and  C_12 
REMARK    4  A    between atoms: C_12  and  O_13 
REMARK    5  A    between atoms: O_13  and  C_14 
ROOT
HETATM    1  N   UNL     1       8.676  29.675  56.542  1.00  0.00    -0.246 N 
HETATM    2  C   UNL     1       8.601  29.534  57.924  1.00  0.00     0.261 C 
HETATM    3  O   UNL     1       8.046  28.614  58.525  1.00  0.00    -0.269 OA
HETATM    4  H   UNL     1       8.909  30.603  56.194  1.00  0.00     0.192 HD
ENDROOT
BRANCH   1   5
HETATM    5  N   UNL     1       8.032  28.870  55.627  1.00  0.00    -0.184 NA
HETATM    6  C   UNL     1       6.838  28.460  55.921  1.00  0.00     0.153 C 
BRANCH   6   7
HETATM    7  C   UNL     1       6.068  27.658  54.985  1.00  0.00     0.018 A 
HETATM    8  C   UNL     1       4.817  28.038  54.508  1.00  0.00     0.018 A 
HETATM    9  C   UNL     1       4.003  29.254  54.774  1.00  0.00     0.069 C 
HETATM   10  N   UNL     1       4.377  27.058  53.656  1.00  0.00    -0.358 N 
HETATM   11  H   UNL     1       3.498  27.070  53.157  1.00  0.00     0.166 HD
HETATM   12  C   UNL     1       5.305  26.050  53.558  1.00  0.00     0.043 A 
HETATM   13  C   UNL     1       6.381  26.398  54.377  1.00  0.00     0.004 A 
HETATM   14  C   UNL     1       5.266  24.867  52.809  1.00  0.00     0.030 A 
HETATM   15  C   UNL     1       7.475  25.508  54.443  1.00  0.00     0.014 A 
HETATM   16  C   UNL     1       7.454  24.321  53.700  1.00  0.00     0.001 A 
HETATM   17  C   UNL     1       6.361  24.007  52.896  1.00  0.00     0.002 A 
ENDBRANCH   6   7
ENDBRANCH   1   5
BRANCH   2  18
HETATM   18  C   UNL     1       9.349  30.622  58.690  1.00  0.00     0.280 C 
BRANCH  18  19
HETATM   19  O   UNL     1       8.639  31.864  58.725  1.00  0.00    -0.341 OA
BRANCH  19  20
HETATM   20  C   UNL     1       8.233  32.113  60.019  1.00  0.00     0.080 A 
HETATM   21  C   UNL     1       6.910  32.513  60.316  1.00  0.00     0.009 A 
HETATM   22  C   UNL     1       6.580  32.846  61.656  1.00  0.00    -0.006 A 
HETATM   23  C   UNL     1       5.910  32.595  59.321  1.00  0.00     0.015 A 
HETATM   24  C   UNL     1       5.260  33.289  61.922  1.00  0.00     0.014 A 
HETATM   25  C   UNL     1       7.588  32.716  62.648  1.00  0.00     0.022 A 
HETATM   26  C   UNL     1       4.296  33.383  60.915  1.00  0.00     0.001 A 
HETATM   27  C   UNL     1       4.619  33.027  59.616  1.00  0.00     0.001 A 
HETATM   28 BR   UNL     1       7.280  33.138  64.483  1.00  0.00    -0.050 Br
HETATM   29  C   UNL     1       8.873  32.263  62.331  1.00  0.00     0.023 A 
HETATM   30  C   UNL     1       9.196  31.957  61.016  1.00  0.00     0.039 A 
ENDBRANCH  19  20
ENDBRANCH  18  19
ENDBRANCH   2  18
TORSDOF 5
ENDMDL
