MODEL 1
REMARK VINA RESULT:      -8.4      0.000      0.000
REMARK  5 active torsions:
REMARK  status: ('A' for Active; 'I' for Inactive)
REMARK    1  A    between atoms: C_2  and  C_3 
REMARK    2  A    between atoms: C_3  and  C_4 
REMARK       I    between atoms: C_4  and  N_5 
REMARK    3  A    between atoms: N_5  and  C_6 
REMARK    4  A    between atoms: C_9  and  N_10 
REMARK       I    between atoms: N_10  and  C_11 
REMARK       I    between atoms: C_11  and  N_12 
REMARK    5  A    between atoms: N_12  and  C_13 
ROOT
HETATM    1  C   UNL     1       6.391  25.407  55.013  1.00  0.00     0.043 C 
HETATM    2  C   UNL     1       6.533  26.811  54.954  1.00  0.00    -0.008 C 
HETATM    3  C   UNL     1       7.465  27.489  53.977  1.00  0.00     0.053 C 
HETATM    4  C   UNL     1       5.862  27.614  55.915  1.00  0.00     0.044 C 
HETATM    5  C   UNL     1       5.163  27.013  56.967  1.00  0.00     0.030 C 
HETATM    6  C   UNL     1       5.122  25.628  57.081  1.00  0.00     0.005 C 
HETATM    7  C   UNL     1       5.729  24.833  56.111  1.00  0.00     0.030 C 
ENDROOT
BRANCH   4   8
HETATM    8  N   UNL     1       5.843  29.014  55.727  1.00  0.00    -0.308 N 
HETATM    9  C   UNL     1       6.436  30.037  56.419  1.00  0.00     0.325 C 
HETATM   10  N   UNL     1       7.586  29.714  57.084  1.00  0.00    -0.305 N 
HETATM   11  O   UNL     1       5.969  31.166  56.294  1.00  0.00    -0.247 OA
HETATM   12  H   UNL     1       8.050  28.885  56.743  1.00  0.00     0.171 HD
HETATM   13  H   UNL     1       5.193  29.365  55.034  1.00  0.00     0.170 HD
BRANCH  10  14
HETATM   14  C   UNL     1       8.345  30.576  57.856  1.00  0.00     0.086 A 
HETATM   15  C   UNL     1       8.004  31.505  58.883  1.00  0.00     0.079 A 
HETATM   16  C   UNL     1       6.688  31.815  59.497  1.00  0.00     0.075 C 
HETATM   17  N   UNL     1       9.094  32.130  59.358  1.00  0.00    -0.177 NA
HETATM   18  N   UNL     1      10.103  31.610  58.654  1.00  0.00    -0.280 N 
HETATM   19  H   UNL     1      11.038  31.955  58.841  1.00  0.00     0.189 HD
HETATM   20  C   UNL     1       9.721  30.655  57.754  1.00  0.00     0.052 A 
HETATM   21  C   UNL     1      10.717  29.970  56.900  1.00  0.00     0.072 C 
ENDBRANCH  10  14
ENDBRANCH   4   8
BRANCH   1  22
HETATM   22  N   UNL     1       6.882  24.482  54.060  1.00  0.00    -0.327 N 
HETATM   23  C   UNL     1       7.997  23.671  54.187  1.00  0.00     0.222 C 
HETATM   24  O   UNL     1       8.795  23.667  55.118  1.00  0.00    -0.273 OA
HETATM   25  H   UNL     1       6.565  24.622  53.108  1.00  0.00     0.169 HD
BRANCH  23  26
HETATM   26  C   UNL     1       8.223  22.785  52.975  1.00  0.00     0.103 C 
BRANCH  26  27
HETATM   27  C   UNL     1       7.696  21.371  53.196  1.00  0.00     0.005 C 
HETATM   28  C   UNL     1       8.796  20.319  53.133  1.00  0.00     0.005 C 
ENDBRANCH  26  27
ENDBRANCH  23  26
ENDBRANCH   1  22
TORSDOF 5
ENDMDL
MODEL 2
REMARK VINA RESULT:      -8.2      2.487      7.857
REMARK  5 active torsions:
REMARK  status: ('A' for Active; 'I' for Inactive)
REMARK    1  A    between atoms: C_2  and  C_3 
REMARK    2  A    between atoms: C_3  and  C_4 
REMARK       I    between atoms: C_4  and  N_5 
REMARK    3  A    between atoms: N_5  and  C_6 
REMARK    4  A    between atoms: C_9  and  N_10 
REMARK       I    between atoms: N_10  and  C_11 
REMARK       I    between atoms: C_11  and  N_12 
REMARK    5  A    between atoms: N_12  and  C_13 
ROOT
HETATM    1  C   UNL     1       7.197  30.311  58.388  1.00  0.00     0.043 C 
HETATM    2  C   UNL     1       7.654  29.825  57.143  1.00  0.00    -0.008 C 
HETATM    3  C   UNL     1       9.112  29.522  56.880  1.00  0.00     0.053 C 
HETATM    4  C   UNL     1       6.738  29.720  56.063  1.00  0.00     0.044 C 
HETATM    5  C   UNL     1       5.429  30.193  56.204  1.00  0.00     0.030 C 
HETATM    6  C   UNL     1       5.019  30.773  57.400  1.00  0.00     0.005 C 
HETATM    7  C   UNL     1       5.894  30.828  58.482  1.00  0.00     0.030 C 
ENDROOT
BRANCH   4   8
HETATM    8  N   UNL     1       7.152  29.046  54.892  1.00  0.00    -0.308 N 
HETATM    9  C   UNL     1       7.478  27.736  54.659  1.00  0.00     0.325 C 
HETATM   10  N   UNL     1       6.891  26.822  55.489  1.00  0.00    -0.305 N 
HETATM   11  O   UNL     1       8.160  27.478  53.671  1.00  0.00    -0.247 OA
HETATM   12  H   UNL     1       6.055  27.149  55.949  1.00  0.00     0.171 HD
HETATM   13  H   UNL     1       7.364  29.629  54.091  1.00  0.00     0.170 HD
BRANCH  10  14
HETATM   14  C   UNL     1       7.082  25.452  55.450  1.00  0.00     0.086 A 
HETATM   15  C   UNL     1       7.888  24.568  56.227  1.00  0.00     0.079 A 
HETATM   16  C   UNL     1       8.768  24.846  57.390  1.00  0.00     0.075 C 
HETATM   17  N   UNL     1       7.746  23.296  55.823  1.00  0.00    -0.177 NA
HETATM   18  N   UNL     1       6.871  23.366  54.816  1.00  0.00    -0.280 N 
HETATM   19  H   UNL     1       6.623  22.505  54.343  1.00  0.00     0.189 HD
HETATM   20  C   UNL     1       6.417  24.630  54.561  1.00  0.00     0.052 A 
HETATM   21  C   UNL     1       5.434  24.884  53.484  1.00  0.00     0.072 C 
ENDBRANCH  10  14
ENDBRANCH   4   8
BRANCH   1  22
HETATM   22  N   UNL     1       7.946  30.352  59.589  1.00  0.00    -0.327 N 
HETATM   23  C   UNL     1       8.711  31.408  60.055  1.00  0.00     0.222 C 
HETATM   24  O   UNL     1       8.932  32.463  59.472  1.00  0.00    -0.273 OA
HETATM   25  H   UNL     1       8.167  29.453  60.000  1.00  0.00     0.169 HD
BRANCH  23  26
HETATM   26  C   UNL     1       9.367  31.115  61.392  1.00  0.00     0.103 C 
BRANCH  26  27
HETATM   27  C   UNL     1       8.349  31.063  62.528  1.00  0.00     0.005 C 
HETATM   28  C   UNL     1       8.088  32.432  63.144  1.00  0.00     0.005 C 
ENDBRANCH  26  27
ENDBRANCH  23  26
ENDBRANCH   1  22
TORSDOF 5
ENDMDL
MODEL 3
REMARK VINA RESULT:      -8.2      4.842      8.217
REMARK  5 active torsions:
REMARK  status: ('A' for Active; 'I' for Inactive)
REMARK    1  A    between atoms: C_2  and  C_3 
REMARK    2  A    between atoms: C_3  and  C_4 
REMARK       I    between atoms: C_4  and  N_5 
REMARK    3  A    between atoms: N_5  and  C_6 
REMARK    4  A    between atoms: C_9  and  N_10 
REMARK       I    between atoms: N_10  and  C_11 
REMARK       I    between atoms: C_11  and  N_12 
REMARK    5  A    between atoms: N_12  and  C_13 
ROOT
HETATM    1  C   UNL     1       8.520  30.805  60.177  1.00  0.00     0.043 C 
HETATM    2  C   UNL     1       7.277  31.460  60.318  1.00  0.00    -0.008 C 
HETATM    3  C   UNL     1       6.506  31.993  59.132  1.00  0.00     0.053 C 
HETATM    4  C   UNL     1       6.781  31.729  61.621  1.00  0.00     0.044 C 
HETATM    5  C   UNL     1       7.566  31.445  62.743  1.00  0.00     0.030 C 
HETATM    6  C   UNL     1       8.837  30.901  62.590  1.00  0.00     0.005 C 
HETATM    7  C   UNL     1       9.308  30.582  61.319  1.00  0.00     0.030 C 
ENDROOT
BRANCH   4   8
HETATM    8  N   UNL     1       5.454  32.195  61.753  1.00  0.00    -0.308 N 
HETATM    9  C   UNL     1       4.886  33.103  62.608  1.00  0.00     0.325 C 
HETATM   10  N   UNL     1       5.725  34.068  63.092  1.00  0.00    -0.305 N 
HETATM   11  O   UNL     1       3.671  33.055  62.777  1.00  0.00    -0.247 OA
HETATM   12  H   UNL     1       6.556  34.217  62.538  1.00  0.00     0.171 HD
HETATM   13  H   UNL     1       4.751  31.709  61.210  1.00  0.00     0.170 HD
BRANCH  10  14
HETATM   14  C   UNL     1       5.379  35.075  63.975  1.00  0.00     0.086 A 
HETATM   15  C   UNL     1       4.909  35.058  65.322  1.00  0.00     0.079 A 
HETATM   16  C   UNL     1       4.681  33.915  66.243  1.00  0.00     0.075 C 
HETATM   17  N   UNL     1       4.705  36.302  65.784  1.00  0.00    -0.177 NA
HETATM   18  N   UNL     1       5.039  37.092  64.759  1.00  0.00    -0.280 N 
HETATM   19  H   UNL     1       4.947  38.093  64.884  1.00  0.00     0.189 HD
HETATM   20  C   UNL     1       5.475  36.415  63.654  1.00  0.00     0.052 A 
HETATM   21  C   UNL     1       5.895  37.140  62.433  1.00  0.00     0.072 C 
ENDBRANCH  10  14
ENDBRANCH   4   8
BRANCH   1  22
HETATM   22  N   UNL     1       9.087  30.351  58.961  1.00  0.00    -0.327 N 
HETATM   23  C   UNL     1      10.036  31.003  58.193  1.00  0.00     0.222 C 
HETATM   24  O   UNL     1      10.497  32.121  58.394  1.00  0.00    -0.273 OA
HETATM   25  H   UNL     1       8.562  29.636  58.472  1.00  0.00     0.169 HD
BRANCH  23  26
HETATM   26  C   UNL     1      10.434  30.218  56.956  1.00  0.00     0.103 C 
BRANCH  26  27
HETATM   27  C   UNL     1       9.597  28.953  56.790  1.00  0.00     0.005 C 
HETATM   28  C   UNL     1       8.614  29.049  55.630  1.00  0.00     0.005 C 
ENDBRANCH  26  27
ENDBRANCH  23  26
ENDBRANCH   1  22
TORSDOF 5
ENDMDL
MODEL 4
REMARK VINA RESULT:      -8.0      4.143      6.341
REMARK  5 active torsions:
REMARK  status: ('A' for Active; 'I' for Inactive)
REMARK    1  A    between atoms: C_2  and  C_3 
REMARK    2  A    between atoms: C_3  and  C_4 
REMARK       I    between atoms: C_4  and  N_5 
REMARK    3  A    between atoms: N_5  and  C_6 
REMARK    4  A    between atoms: C_9  and  N_10 
REMARK       I    between atoms: N_10  and  C_11 
REMARK       I    between atoms: C_11  and  N_12 
REMARK    5  A    between atoms: N_12  and  C_13 
ROOT
HETATM    1  C   UNL     1       6.659  24.785  54.628  1.00  0.00     0.043 C 
HETATM    2  C   UNL     1       5.597  25.401  53.931  1.00  0.00    -0.008 C 
HETATM    3  C   UNL     1       4.792  24.674  52.879  1.00  0.00     0.053 C 
HETATM    4  C   UNL     1       5.340  26.782  54.141  1.00  0.00     0.044 C 
HETATM    5  C   UNL     1       6.199  27.541  54.944  1.00  0.00     0.030 C 
HETATM    6  C   UNL     1       7.308  26.950  55.538  1.00  0.00     0.005 C 
HETATM    7  C   UNL     1       7.534  25.584  55.383  1.00  0.00     0.030 C 
ENDROOT
BRANCH   4   8
HETATM    8  N   UNL     1       4.159  27.338  53.601  1.00  0.00    -0.308 N 
HETATM    9  C   UNL     1       3.926  28.052  52.456  1.00  0.00     0.325 C 
HETATM   10  N   UNL     1       4.796  27.822  51.426  1.00  0.00    -0.305 N 
HETATM   11  O   UNL     1       2.909  28.738  52.400  1.00  0.00    -0.247 OA
HETATM   12  H   UNL     1       5.292  26.946  51.484  1.00  0.00     0.171 HD
HETATM   13  H   UNL     1       3.341  27.320  54.199  1.00  0.00     0.170 HD
BRANCH  10  14
HETATM   14  C   UNL     1       4.765  28.436  50.186  1.00  0.00     0.086 A 
HETATM   15  C   UNL     1       5.021  29.774  49.766  1.00  0.00     0.079 A 
HETATM   16  C   UNL     1       5.460  30.957  50.549  1.00  0.00     0.075 C 
HETATM   17  N   UNL     1       4.868  29.907  48.439  1.00  0.00    -0.177 NA
HETATM   18  N   UNL     1       4.527  28.684  48.023  1.00  0.00    -0.280 N 
HETATM   19  H   UNL     1       4.345  28.554  47.034  1.00  0.00     0.189 HD
HETATM   20  C   UNL     1       4.472  27.752  49.021  1.00  0.00     0.052 A 
HETATM   21  C   UNL     1       4.119  26.344  48.732  1.00  0.00     0.072 C 
ENDBRANCH  10  14
ENDBRANCH   4   8
BRANCH   1  22
HETATM   22  N   UNL     1       6.960  23.401  54.631  1.00  0.00    -0.327 N 
HETATM   23  C   UNL     1       7.707  22.712  53.690  1.00  0.00     0.222 C 
HETATM   24  O   UNL     1       8.177  23.168  52.654  1.00  0.00    -0.273 OA
HETATM   25  H   UNL     1       6.356  22.822  55.202  1.00  0.00     0.169 HD
BRANCH  23  26
HETATM   26  C   UNL     1       7.845  21.236  54.015  1.00  0.00     0.103 C 
BRANCH  26  27
HETATM   27  C   UNL     1       7.716  20.966  55.511  1.00  0.00     0.005 C 
HETATM   28  C   UNL     1       9.005  20.430  56.123  1.00  0.00     0.005 C 
ENDBRANCH  26  27
ENDBRANCH  23  26
ENDBRANCH   1  22
TORSDOF 5
ENDMDL
MODEL 5
REMARK VINA RESULT:      -7.9      2.424      3.536
REMARK  5 active torsions:
REMARK  status: ('A' for Active; 'I' for Inactive)
REMARK    1  A    between atoms: C_2  and  C_3 
REMARK    2  A    between atoms: C_3  and  C_4 
REMARK       I    between atoms: C_4  and  N_5 
REMARK    3  A    between atoms: N_5  and  C_6 
REMARK    4  A    between atoms: C_9  and  N_10 
REMARK       I    between atoms: N_10  and  C_11 
REMARK       I    between atoms: C_11  and  N_12 
REMARK    5  A    between atoms: N_12  and  C_13 
ROOT
HETATM    1  C   UNL     1       6.016  27.668  56.409  1.00  0.00     0.043 C 
HETATM    2  C   UNL     1       7.052  28.413  57.016  1.00  0.00    -0.008 C 
HETATM    3  C   UNL     1       8.365  27.785  57.425  1.00  0.00     0.053 C 
HETATM    4  C   UNL     1       6.819  29.772  57.356  1.00  0.00     0.044 C 
HETATM    5  C   UNL     1       5.547  30.328  57.190  1.00  0.00     0.030 C 
HETATM    6  C   UNL     1       4.502  29.555  56.695  1.00  0.00     0.005 C 
HETATM    7  C   UNL     1       4.736  28.239  56.305  1.00  0.00     0.030 C 
ENDROOT
BRANCH   4   8
HETATM    8  N   UNL     1       7.916  30.559  57.770  1.00  0.00    -0.308 N 
HETATM    9  C   UNL     1       8.113  31.339  58.880  1.00  0.00     0.325 C 
HETATM   10  N   UNL     1       7.406  30.976  59.992  1.00  0.00    -0.305 N 
HETATM   11  O   UNL     1       8.978  32.209  58.828  1.00  0.00    -0.247 OA
HETATM   12  H   UNL     1       7.086  30.019  59.993  1.00  0.00     0.171 HD
HETATM   13  H   UNL     1       8.661  30.682  57.095  1.00  0.00     0.170 HD
BRANCH  10  14
HETATM   14  C   UNL     1       7.434  31.621  61.216  1.00  0.00     0.086 A 
HETATM   15  C   UNL     1       6.663  32.689  61.762  1.00  0.00     0.079 A 
HETATM   16  C   UNL     1       5.519  33.438  61.184  1.00  0.00     0.075 C 
HETATM   17  N   UNL     1       7.052  32.983  63.013  1.00  0.00    -0.177 NA
HETATM   18  N   UNL     1       8.044  32.122  63.260  1.00  0.00    -0.280 N 
HETATM   19  H   UNL     1       8.504  32.176  64.161  1.00  0.00     0.189 HD
HETATM   20  C   UNL     1       8.304  31.263  62.229  1.00  0.00     0.052 A 
HETATM   21  C   UNL     1       9.366  30.237  62.340  1.00  0.00     0.072 C 
ENDBRANCH  10  14
ENDBRANCH   4   8
BRANCH   1  22
HETATM   22  N   UNL     1       6.129  26.354  55.893  1.00  0.00    -0.327 N 
HETATM   23  C   UNL     1       6.824  25.964  54.760  1.00  0.00     0.222 C 
HETATM   24  O   UNL     1       7.400  26.699  53.968  1.00  0.00    -0.273 OA
HETATM   25  H   UNL     1       5.427  25.697  56.209  1.00  0.00     0.169 HD
BRANCH  23  26
HETATM   26  C   UNL     1       6.748  24.468  54.510  1.00  0.00     0.103 C 
BRANCH  26  27
HETATM   27  C   UNL     1       7.993  23.944  53.801  1.00  0.00     0.005 C 
HETATM   28  C   UNL     1       7.715  22.696  52.973  1.00  0.00     0.005 C 
ENDBRANCH  26  27
ENDBRANCH  23  26
ENDBRANCH   1  22
TORSDOF 5
ENDMDL
MODEL 6
REMARK VINA RESULT:      -7.8      2.772      4.206
REMARK  5 active torsions:
REMARK  status: ('A' for Active; 'I' for Inactive)
REMARK    1  A    between atoms: C_2  and  C_3 
REMARK    2  A    between atoms: C_3  and  C_4 
REMARK       I    between atoms: C_4  and  N_5 
REMARK    3  A    between atoms: N_5  and  C_6 
REMARK    4  A    between atoms: C_9  and  N_10 
REMARK       I    between atoms: N_10  and  C_11 
REMARK       I    between atoms: C_11  and  N_12 
REMARK    5  A    between atoms: N_12  and  C_13 
ROOT
HETATM    1  C   UNL     1       7.005  24.464  54.363  1.00  0.00     0.043 C 
HETATM    2  C   UNL     1       6.878  25.567  55.237  1.00  0.00    -0.008 C 
HETATM    3  C   UNL     1       6.553  25.403  56.704  1.00  0.00     0.053 C 
HETATM    4  C   UNL     1       6.947  26.882  54.705  1.00  0.00     0.044 C 
HETATM    5  C   UNL     1       7.031  27.076  53.322  1.00  0.00     0.030 C 
HETATM    6  C   UNL     1       7.043  25.984  52.460  1.00  0.00     0.005 C 
HETATM    7  C   UNL     1       7.033  24.691  52.977  1.00  0.00     0.030 C 
ENDROOT
BRANCH   4   8
HETATM    8  N   UNL     1       7.024  27.969  55.604  1.00  0.00    -0.308 N 
HETATM    9  C   UNL     1       6.243  29.083  55.758  1.00  0.00     0.325 C 
HETATM   10  N   UNL     1       4.942  28.956  55.358  1.00  0.00    -0.305 N 
HETATM   11  O   UNL     1       6.725  30.051  56.341  1.00  0.00    -0.247 OA
HETATM   12  H   UNL     1       4.610  28.004  55.308  1.00  0.00     0.171 HD
HETATM   13  H   UNL     1       7.860  28.022  56.174  1.00  0.00     0.170 HD
BRANCH  10  14
HETATM   14  C   UNL     1       3.978  29.947  55.406  1.00  0.00     0.086 A 
HETATM   15  C   UNL     1       3.384  30.664  56.486  1.00  0.00     0.079 A 
HETATM   16  C   UNL     1       3.658  30.600  57.944  1.00  0.00     0.075 C 
HETATM   17  N   UNL     1       2.479  31.552  56.045  1.00  0.00    -0.177 NA
HETATM   18  N   UNL     1       2.497  31.407  54.717  1.00  0.00    -0.280 N 
HETATM   19  H   UNL     1       1.866  31.981  54.169  1.00  0.00     0.189 HD
HETATM   20  C   UNL     1       3.393  30.476  54.271  1.00  0.00     0.052 A 
HETATM   21  C   UNL     1       3.549  30.199  52.825  1.00  0.00     0.072 C 
ENDBRANCH  10  14
ENDBRANCH   4   8
BRANCH   1  22
HETATM   22  N   UNL     1       7.089  23.104  54.749  1.00  0.00    -0.327 N 
HETATM   23  C   UNL     1       8.207  22.448  55.236  1.00  0.00     0.222 C 
HETATM   24  O   UNL     1       9.336  22.911  55.348  1.00  0.00    -0.273 OA
HETATM   25  H   UNL     1       6.366  22.498  54.382  1.00  0.00     0.169 HD
BRANCH  23  26
HETATM   26  C   UNL     1       7.936  20.991  55.567  1.00  0.00     0.103 C 
BRANCH  26  27
HETATM   27  C   UNL     1       8.566  20.047  54.548  1.00  0.00     0.005 C 
HETATM   28  C   UNL     1       8.228  20.425  53.111  1.00  0.00     0.005 C 
ENDBRANCH  26  27
ENDBRANCH  23  26
ENDBRANCH   1  22
TORSDOF 5
ENDMDL
MODEL 7
REMARK VINA RESULT:      -7.8      2.020      2.815
REMARK  5 active torsions:
REMARK  status: ('A' for Active; 'I' for Inactive)
REMARK    1  A    between atoms: C_2  and  C_3 
REMARK    2  A    between atoms: C_3  and  C_4 
REMARK       I    between atoms: C_4  and  N_5 
REMARK    3  A    between atoms: N_5  and  C_6 
REMARK    4  A    between atoms: C_9  and  N_10 
REMARK       I    between atoms: N_10  and  C_11 
REMARK       I    between atoms: C_11  and  N_12 
REMARK    5  A    between atoms: N_12  and  C_13 
ROOT
HETATM    1  C   UNL     1       7.094  24.428  55.664  1.00  0.00     0.043 C 
HETATM    2  C   UNL     1       7.816  25.310  56.498  1.00  0.00    -0.008 C 
HETATM    3  C   UNL     1       8.624  24.825  57.680  1.00  0.00     0.053 C 
HETATM    4  C   UNL     1       7.695  26.710  56.292  1.00  0.00     0.044 C 
HETATM    5  C   UNL     1       6.789  27.205  55.348  1.00  0.00     0.030 C 
HETATM    6  C   UNL     1       6.000  26.331  54.608  1.00  0.00     0.005 C 
HETATM    7  C   UNL     1       6.154  24.955  54.763  1.00  0.00     0.030 C 
ENDROOT
BRANCH   4   8
HETATM    8  N   UNL     1       8.570  27.571  56.990  1.00  0.00    -0.308 N 
HETATM    9  C   UNL     1       8.428  28.865  57.420  1.00  0.00     0.325 C 
HETATM   10  N   UNL     1       7.147  29.271  57.668  1.00  0.00    -0.305 N 
HETATM   11  O   UNL     1       9.447  29.508  57.660  1.00  0.00    -0.247 OA
HETATM   12  H   UNL     1       6.493  28.520  57.831  1.00  0.00     0.171 HD
HETATM   13  H   UNL     1       9.521  27.244  57.111  1.00  0.00     0.170 HD
BRANCH  10  14
HETATM   14  C   UNL     1       6.764  30.530  58.093  1.00  0.00     0.086 A 
HETATM   15  C   UNL     1       7.113  31.311  59.234  1.00  0.00     0.079 A 
HETATM   16  C   UNL     1       8.065  31.024  60.337  1.00  0.00     0.075 C 
HETATM   17  N   UNL     1       6.484  32.497  59.226  1.00  0.00    -0.177 NA
HETATM   18  N   UNL     1       5.755  32.475  58.107  1.00  0.00    -0.280 N 
HETATM   19  H   UNL     1       5.176  33.282  57.903  1.00  0.00     0.189 HD
HETATM   20  C   UNL     1       5.899  31.331  57.372  1.00  0.00     0.052 A 
HETATM   21  C   UNL     1       5.169  31.147  56.097  1.00  0.00     0.072 C 
ENDBRANCH  10  14
ENDBRANCH   4   8
BRANCH   1  22
HETATM   22  N   UNL     1       7.206  23.016  55.653  1.00  0.00    -0.327 N 
HETATM   23  C   UNL     1       8.341  22.276  55.366  1.00  0.00     0.222 C 
HETATM   24  O   UNL     1       9.425  22.714  54.999  1.00  0.00    -0.273 OA
HETATM   25  H   UNL     1       6.335  22.507  55.573  1.00  0.00     0.169 HD
BRANCH  23  26
HETATM   26  C   UNL     1       8.108  20.779  55.465  1.00  0.00     0.103 C 
BRANCH  26  27
HETATM   27  C   UNL     1       8.695  20.030  54.272  1.00  0.00     0.005 C 
HETATM   28  C   UNL     1       8.084  20.466  52.947  1.00  0.00     0.005 C 
ENDBRANCH  26  27
ENDBRANCH  23  26
ENDBRANCH   1  22
TORSDOF 5
ENDMDL
MODEL 8
REMARK VINA RESULT:      -7.8      2.017      2.606
REMARK  5 active torsions:
REMARK  status: ('A' for Active; 'I' for Inactive)
REMARK    1  A    between atoms: C_2  and  C_3 
REMARK    2  A    between atoms: C_3  and  C_4 
REMARK       I    between atoms: C_4  and  N_5 
REMARK    3  A    between atoms: N_5  and  C_6 
REMARK    4  A    between atoms: C_9  and  N_10 
REMARK       I    between atoms: N_10  and  C_11 
REMARK       I    between atoms: C_11  and  N_12 
REMARK    5  A    between atoms: N_12  and  C_13 
ROOT
HETATM    1  C   UNL     1       6.892  24.620  55.391  1.00  0.00     0.043 C 
HETATM    2  C   UNL     1       7.768  25.426  56.151  1.00  0.00    -0.008 C 
HETATM    3  C   UNL     1       8.831  24.839  57.051  1.00  0.00     0.053 C 
HETATM    4  C   UNL     1       7.578  26.834  56.161  1.00  0.00     0.044 C 
HETATM    5  C   UNL     1       6.473  27.397  55.514  1.00  0.00     0.030 C 
HETATM    6  C   UNL     1       5.553  26.584  54.861  1.00  0.00     0.005 C 
HETATM    7  C   UNL     1       5.763  25.209  54.798  1.00  0.00     0.030 C 
ENDROOT
BRANCH   4   8
HETATM    8  N   UNL     1       8.572  27.643  56.754  1.00  0.00    -0.308 N 
HETATM    9  C   UNL     1       8.527  28.907  57.279  1.00  0.00     0.325 C 
HETATM   10  N   UNL     1       7.312  29.306  57.764  1.00  0.00    -0.305 N 
HETATM   11  O   UNL     1       9.582  29.527  57.383  1.00  0.00    -0.247 OA
HETATM   12  H   UNL     1       6.682  28.550  57.989  1.00  0.00     0.171 HD
HETATM   13  H   UNL     1       9.524  27.302  56.692  1.00  0.00     0.170 HD
BRANCH  10  14
HETATM   14  C   UNL     1       7.027  30.538  58.324  1.00  0.00     0.086 A 
HETATM   15  C   UNL     1       6.144  31.591  57.942  1.00  0.00     0.079 A 
HETATM   16  C   UNL     1       5.188  31.676  56.810  1.00  0.00     0.075 C 
HETATM   17  N   UNL     1       6.201  32.615  58.809  1.00  0.00    -0.177 NA
HETATM   18  N   UNL     1       7.095  32.224  59.722  1.00  0.00    -0.280 N 
HETATM   19  H   UNL     1       7.309  32.863  60.479  1.00  0.00     0.189 HD
HETATM   20  C   UNL     1       7.608  30.977  59.499  1.00  0.00     0.052 A 
HETATM   21  C   UNL     1       8.604  30.386  60.421  1.00  0.00     0.072 C 
ENDBRANCH  10  14
ENDBRANCH   4   8
BRANCH   1  22
HETATM   22  N   UNL     1       7.025  23.227  55.172  1.00  0.00    -0.327 N 
HETATM   23  C   UNL     1       7.820  22.608  54.221  1.00  0.00     0.222 C 
HETATM   24  O   UNL     1       8.490  23.161  53.358  1.00  0.00    -0.273 OA
HETATM   25  H   UNL     1       6.279  22.651  55.542  1.00  0.00     0.169 HD
BRANCH  23  26
HETATM   26  C   UNL     1       7.734  21.093  54.278  1.00  0.00     0.103 C 
BRANCH  26  27
HETATM   27  C   UNL     1       7.769  20.573  55.711  1.00  0.00     0.005 C 
HETATM   28  C   UNL     1       9.188  20.381  56.231  1.00  0.00     0.005 C 
ENDBRANCH  26  27
ENDBRANCH  23  26
ENDBRANCH   1  22
TORSDOF 5
ENDMDL
MODEL 9
REMARK VINA RESULT:      -7.7      3.158      8.208
REMARK  5 active torsions:
REMARK  status: ('A' for Active; 'I' for Inactive)
REMARK    1  A    between atoms: C_2  and  C_3 
REMARK    2  A    between atoms: C_3  and  C_4 
REMARK       I    between atoms: C_4  and  N_5 
REMARK    3  A    between atoms: N_5  and  C_6 
REMARK    4  A    between atoms: C_9  and  N_10 
REMARK       I    between atoms: N_10  and  C_11 
REMARK       I    between atoms: C_11  and  N_12 
REMARK    5  A    between atoms: N_12  and  C_13 
ROOT
HETATM    1  C   UNL     1       7.706  30.140  58.359  1.00  0.00     0.043 C 
HETATM    2  C   UNL     1       8.312  29.584  57.211  1.00  0.00    -0.008 C 
HETATM    3  C   UNL     1       9.798  29.318  57.130  1.00  0.00     0.053 C 
HETATM    4  C   UNL     1       7.524  29.366  56.050  1.00  0.00     0.044 C 
HETATM    5  C   UNL     1       6.194  29.798  56.012  1.00  0.00     0.030 C 
HETATM    6  C   UNL     1       5.637  30.447  57.109  1.00  0.00     0.005 C 
HETATM    7  C   UNL     1       6.386  30.613  58.272  1.00  0.00     0.030 C 
ENDROOT
BRANCH   4   8
HETATM    8  N   UNL     1       8.085  28.626  54.985  1.00  0.00    -0.308 N 
HETATM    9  C   UNL     1       7.517  28.023  53.893  1.00  0.00     0.325 C 
HETATM   10  N   UNL     1       6.342  28.570  53.458  1.00  0.00    -0.305 N 
HETATM   11  O   UNL     1       8.151  27.135  53.329  1.00  0.00    -0.247 OA
HETATM   12  H   UNL     1       6.188  29.522  53.753  1.00  0.00     0.171 HD
HETATM   13  H   UNL     1       9.064  28.383  55.073  1.00  0.00     0.170 HD
BRANCH  10  14
HETATM   14  C   UNL     1       5.586  28.121  52.389  1.00  0.00     0.086 A 
HETATM   15  C   UNL     1       5.259  28.701  51.128  1.00  0.00     0.079 A 
HETATM   16  C   UNL     1       5.681  29.993  50.529  1.00  0.00     0.075 C 
HETATM   17  N   UNL     1       4.487  27.880  50.398  1.00  0.00    -0.177 NA
HETATM   18  N   UNL     1       4.327  26.804  51.173  1.00  0.00    -0.280 N 
HETATM   19  H   UNL     1       3.754  26.047  50.819  1.00  0.00     0.189 HD
HETATM   20  C   UNL     1       4.983  26.878  52.370  1.00  0.00     0.052 A 
HETATM   21  C   UNL     1       4.920  25.765  53.345  1.00  0.00     0.072 C 
ENDBRANCH  10  14
ENDBRANCH   4   8
BRANCH   1  22
HETATM   22  N   UNL     1       8.315  30.297  59.628  1.00  0.00    -0.327 N 
HETATM   23  C   UNL     1       8.946  31.430  60.112  1.00  0.00     0.222 C 
HETATM   24  O   UNL     1       9.149  32.471  59.498  1.00  0.00    -0.273 OA
HETATM   25  H   UNL     1       8.557  29.438  60.107  1.00  0.00     0.169 HD
BRANCH  23  26
HETATM   26  C   UNL     1       9.474  31.253  61.524  1.00  0.00     0.103 C 
BRANCH  26  27
HETATM   27  C   UNL     1       8.346  31.166  62.548  1.00  0.00     0.005 C 
HETATM   28  C   UNL     1       8.059  32.503  63.219  1.00  0.00     0.005 C 
ENDBRANCH  26  27
ENDBRANCH  23  26
ENDBRANCH   1  22
TORSDOF 5
ENDMDL
MODEL 10
REMARK VINA RESULT:      -7.6      2.268      7.360
REMARK  5 active torsions:
REMARK  status: ('A' for Active; 'I' for Inactive)
REMARK    1  A    between atoms: C_2  and  C_3 
REMARK    2  A    between atoms: C_3  and  C_4 
REMARK       I    between atoms: C_4  and  N_5 
REMARK    3  A    between atoms: N_5  and  C_6 
REMARK    4  A    between atoms: C_9  and  N_10 
REMARK       I    between atoms: N_10  and  C_11 
REMARK       I    between atoms: C_11  and  N_12 
REMARK    5  A    between atoms: N_12  and  C_13 
ROOT
HETATM    1  C   UNL     1       6.234  29.036  55.873  1.00  0.00     0.043 C 
HETATM    2  C   UNL     1       6.903  28.330  54.848  1.00  0.00    -0.008 C 
HETATM    3  C   UNL     1       8.396  28.436  54.637  1.00  0.00     0.053 C 
HETATM    4  C   UNL     1       6.141  27.581  53.913  1.00  0.00     0.044 C 
HETATM    5  C   UNL     1       4.743  27.633  53.945  1.00  0.00     0.030 C 
HETATM    6  C   UNL     1       4.092  28.420  54.890  1.00  0.00     0.005 C 
HETATM    7  C   UNL     1       4.832  29.112  55.846  1.00  0.00     0.030 C 
ENDROOT
BRANCH   4   8
HETATM    8  N   UNL     1       6.822  26.721  53.024  1.00  0.00    -0.308 N 
HETATM    9  C   UNL     1       7.582  25.602  53.239  1.00  0.00     0.325 C 
HETATM   10  N   UNL     1       7.291  24.896  54.373  1.00  0.00    -0.305 N 
HETATM   11  O   UNL     1       8.367  25.259  52.358  1.00  0.00    -0.247 OA
HETATM   12  H   UNL     1       6.369  25.063  54.746  1.00  0.00     0.171 HD
HETATM   13  H   UNL     1       6.872  27.022  52.058  1.00  0.00     0.170 HD
BRANCH  10  14
HETATM   14  C   UNL     1       7.933  23.747  54.799  1.00  0.00     0.086 A 
HETATM   15  C   UNL     1       8.139  22.473  54.191  1.00  0.00     0.079 A 
HETATM   16  C   UNL     1       7.754  21.982  52.844  1.00  0.00     0.075 C 
HETATM   17  N   UNL     1       8.836  21.655  54.995  1.00  0.00    -0.177 NA
HETATM   18  N   UNL     1       9.071  22.388  56.087  1.00  0.00    -0.280 N 
HETATM   19  H   UNL     1       9.582  21.954  56.848  1.00  0.00     0.189 HD
HETATM   20  C   UNL     1       8.576  23.660  56.020  1.00  0.00     0.052 A 
HETATM   21  C   UNL     1       8.757  24.609  57.142  1.00  0.00     0.072 C 
ENDBRANCH  10  14
ENDBRANCH   4   8
BRANCH   1  22
HETATM   22  N   UNL     1       6.850  29.715  56.953  1.00  0.00    -0.327 N 
HETATM   23  C   UNL     1       7.580  29.147  57.982  1.00  0.00     0.222 C 
HETATM   24  O   UNL     1       7.759  27.951  58.178  1.00  0.00    -0.273 OA
HETATM   25  H   UNL     1       6.498  30.646  57.143  1.00  0.00     0.169 HD
BRANCH  23  26
HETATM   26  C   UNL     1       8.113  30.177  58.964  1.00  0.00     0.103 C 
BRANCH  26  27
HETATM   27  C   UNL     1       9.462  30.738  58.527  1.00  0.00     0.005 C 
HETATM   28  C   UNL     1       9.868  31.974  59.319  1.00  0.00     0.005 C 
ENDBRANCH  26  27
ENDBRANCH  23  26
ENDBRANCH   1  22
TORSDOF 5
ENDMDL
