MODEL 1
REMARK VINA RESULT:      -9.8      0.000      0.000
REMARK  7 active torsions:
REMARK  status: ('A' for Active; 'I' for Inactive)
REMARK    1  A    between atoms: C_5  and  S_6 
REMARK    2  A    between atoms: S_6  and  C_7 
REMARK    3  A    between atoms: C_7  and  C_8 
REMARK       I    between atoms: C_8  and  N_9 
REMARK    4  A    between atoms: N_9  and  C_10 
REMARK    5  A    between atoms: C_10  and  C_11 
REMARK    6  A    between atoms: C_11  and  C_12 
REMARK    7  A    between atoms: C_26  and  O_27 
ROOT
HETATM    1  C   UNL     1       6.061  25.907  51.403  1.00  0.00     0.052 C 
HETATM    2  C   UNL     1       6.612  25.538  52.759  1.00  0.00    -0.013 A 
HETATM    3  C   UNL     1       6.879  26.517  53.763  1.00  0.00     0.165 A 
HETATM    4  N   UNL     1       7.412  26.149  55.000  1.00  0.00    -0.271 N 
HETATM    5  C   UNL     1       7.528  27.355  55.671  1.00  0.00     0.197 A 
HETATM    6  N   UNL     1       7.089  28.339  54.917  1.00  0.00    -0.122 NA
HETATM    7  N   UNL     1       6.689  27.820  53.724  1.00  0.00    -0.128 NA
HETATM    8  C   UNL     1       7.686  24.794  55.340  1.00  0.00     0.053 A 
HETATM    9  C   UNL     1       7.396  23.835  54.352  1.00  0.00    -0.005 A 
HETATM   10  C   UNL     1       6.864  24.247  53.047  1.00  0.00     0.024 A 
HETATM   11  C   UNL     1       8.195  24.372  56.570  1.00  0.00     0.034 A 
HETATM   12  C   UNL     1       8.405  23.007  56.818  1.00  0.00     0.039 A 
HETATM   13  C   UNL     1       8.110  22.054  55.845  1.00  0.00     0.069 A 
HETATM   14  C   UNL     1       7.612  22.476  54.612  1.00  0.00     0.050 A 
ENDROOT
BRANCH   5  15
HETATM   15  S   UNL     1       8.154  27.624  57.263  1.00  0.00    -0.080 SA
BRANCH  15  16
HETATM   16  C   UNL     1       7.222  29.093  57.774  1.00  0.00     0.185 C 
BRANCH  16  17
HETATM   17  C   UNL     1       8.090  30.050  58.574  1.00  0.00     0.227 C 
HETATM   18  N   UNL     1       7.429  30.707  59.590  1.00  0.00    -0.360 N 
HETATM   19  H   UNL     1       6.419  30.809  59.476  1.00  0.00     0.162 HD
HETATM   20  O   UNL     1       9.289  30.191  58.347  1.00  0.00    -0.273 OA
BRANCH  18  21
HETATM   21  C   UNL     1       8.112  31.685  60.415  1.00  0.00     0.127 C 
BRANCH  21  22
HETATM   22  C   UNL     1       8.267  31.194  61.853  1.00  0.00     0.058 C 
BRANCH  22  23
HETATM   23  C   UNL     1       7.435  31.994  62.824  1.00  0.00    -0.057 A 
HETATM   24  C   UNL     1       8.045  32.796  63.797  1.00  0.00     0.007 A 
HETATM   25  C   UNL     1       7.267  33.522  64.702  1.00  0.00     0.001 A 
HETATM   26  C   UNL     1       5.877  33.453  64.642  1.00  0.00     0.000 A 
HETATM   27  C   UNL     1       5.261  32.656  63.680  1.00  0.00     0.001 A 
HETATM   28  C   UNL     1       6.035  31.928  62.776  1.00  0.00     0.007 A 
ENDBRANCH  22  23
ENDBRANCH  21  22
ENDBRANCH  18  21
ENDBRANCH  16  17
ENDBRANCH  15  16
ENDBRANCH   5  15
BRANCH  13  29
HETATM   29  O   UNL     1       8.260  20.702  55.970  1.00  0.00    -0.356 OA
HETATM   30  C   UNL     1       8.755  20.001  54.836  1.00  0.00     0.210 C 
ENDBRANCH  13  29
TORSDOF 7
ENDMDL
MODEL 2
REMARK VINA RESULT:      -9.5      1.966      3.687
REMARK  7 active torsions:
REMARK  status: ('A' for Active; 'I' for Inactive)
REMARK    1  A    between atoms: C_5  and  S_6 
REMARK    2  A    between atoms: S_6  and  C_7 
REMARK    3  A    between atoms: C_7  and  C_8 
REMARK       I    between atoms: C_8  and  N_9 
REMARK    4  A    between atoms: N_9  and  C_10 
REMARK    5  A    between atoms: C_10  and  C_11 
REMARK    6  A    between atoms: C_11  and  C_12 
REMARK    7  A    between atoms: C_26  and  O_27 
ROOT
HETATM    1  C   UNL     1       9.066  22.017  55.766  1.00  0.00     0.052 C 
HETATM    2  C   UNL     1       8.217  23.222  55.441  1.00  0.00    -0.013 A 
HETATM    3  C   UNL     1       8.111  24.338  56.326  1.00  0.00     0.165 A 
HETATM    4  N   UNL     1       7.298  25.428  56.011  1.00  0.00    -0.271 N 
HETATM    5  C   UNL     1       7.458  26.272  57.098  1.00  0.00     0.197 A 
HETATM    6  N   UNL     1       8.297  25.745  57.964  1.00  0.00    -0.122 NA
HETATM    7  N   UNL     1       8.701  24.536  57.487  1.00  0.00    -0.128 NA
HETATM    8  C   UNL     1       6.565  25.507  54.793  1.00  0.00     0.053 A 
HETATM    9  C   UNL     1       6.696  24.413  53.918  1.00  0.00    -0.005 A 
HETATM   10  C   UNL     1       7.532  23.264  54.283  1.00  0.00     0.024 A 
HETATM   11  C   UNL     1       5.759  26.585  54.421  1.00  0.00     0.034 A 
HETATM   12  C   UNL     1       5.097  26.579  53.183  1.00  0.00     0.039 A 
HETATM   13  C   UNL     1       5.233  25.502  52.310  1.00  0.00     0.069 A 
HETATM   14  C   UNL     1       6.029  24.419  52.686  1.00  0.00     0.050 A 
ENDROOT
BRANCH   5  15
HETATM   15  S   UNL     1       6.700  27.805  57.367  1.00  0.00    -0.080 SA
BRANCH  15  16
HETATM   16  C   UNL     1       8.130  28.855  57.744  1.00  0.00     0.185 C 
BRANCH  16  17
HETATM   17  C   UNL     1       7.715  30.111  58.489  1.00  0.00     0.227 C 
HETATM   18  N   UNL     1       8.473  30.388  59.608  1.00  0.00    -0.360 N 
HETATM   19  H   UNL     1       8.937  29.589  60.044  1.00  0.00     0.162 HD
HETATM   20  O   UNL     1       6.801  30.833  58.098  1.00  0.00    -0.273 OA
BRANCH  18  21
HETATM   21  C   UNL     1       8.173  31.530  60.449  1.00  0.00     0.127 C 
BRANCH  21  22
HETATM   22  C   UNL     1       8.463  31.236  61.920  1.00  0.00     0.058 C 
BRANCH  22  23
HETATM   23  C   UNL     1       7.524  31.967  62.846  1.00  0.00    -0.057 A 
HETATM   24  C   UNL     1       6.137  31.829  62.713  1.00  0.00     0.007 A 
HETATM   25  C   UNL     1       5.274  32.521  63.565  1.00  0.00     0.001 A 
HETATM   26  C   UNL     1       5.789  33.356  64.555  1.00  0.00     0.000 A 
HETATM   27  C   UNL     1       7.167  33.503  64.693  1.00  0.00     0.001 A 
HETATM   28  C   UNL     1       8.032  32.814  63.841  1.00  0.00     0.007 A 
ENDBRANCH  22  23
ENDBRANCH  21  22
ENDBRANCH  18  21
ENDBRANCH  16  17
ENDBRANCH  15  16
ENDBRANCH   5  15
BRANCH  13  29
HETATM   29  O   UNL     1       4.650  25.384  51.080  1.00  0.00    -0.356 OA
HETATM   30  C   UNL     1       4.959  26.388  50.121  1.00  0.00     0.210 C 
ENDBRANCH  13  29
TORSDOF 7
ENDMDL
MODEL 3
REMARK VINA RESULT:      -9.3      2.808     10.841
REMARK  7 active torsions:
REMARK  status: ('A' for Active; 'I' for Inactive)
REMARK    1  A    between atoms: C_5  and  S_6 
REMARK    2  A    between atoms: S_6  and  C_7 
REMARK    3  A    between atoms: C_7  and  C_8 
REMARK       I    between atoms: C_8  and  N_9 
REMARK    4  A    between atoms: N_9  and  C_10 
REMARK    5  A    between atoms: C_10  and  C_11 
REMARK    6  A    between atoms: C_11  and  C_12 
REMARK    7  A    between atoms: C_26  and  O_27 
ROOT
HETATM    1  C   UNL     1       8.316  32.244  62.598  1.00  0.00     0.052 C 
HETATM    2  C   UNL     1       7.501  32.093  61.337  1.00  0.00    -0.013 A 
HETATM    3  C   UNL     1       7.863  31.177  60.303  1.00  0.00     0.165 A 
HETATM    4  N   UNL     1       7.103  31.076  59.136  1.00  0.00    -0.271 N 
HETATM    5  C   UNL     1       7.771  30.110  58.401  1.00  0.00     0.197 A 
HETATM    6  N   UNL     1       8.812  29.667  59.072  1.00  0.00    -0.122 NA
HETATM    7  N   UNL     1       8.874  30.334  60.257  1.00  0.00    -0.128 NA
HETATM    8  C   UNL     1       5.923  31.844  58.925  1.00  0.00     0.053 A 
HETATM    9  C   UNL     1       5.562  32.725  59.961  1.00  0.00    -0.005 A 
HETATM   10  C   UNL     1       6.392  32.837  61.167  1.00  0.00     0.024 A 
HETATM   11  C   UNL     1       5.116  31.762  57.788  1.00  0.00     0.034 A 
HETATM   12  C   UNL     1       3.954  32.543  57.688  1.00  0.00     0.039 A 
HETATM   13  C   UNL     1       3.589  33.409  58.716  1.00  0.00     0.069 A 
HETATM   14  C   UNL     1       4.401  33.500  59.847  1.00  0.00     0.050 A 
ENDROOT
BRANCH   5  15
HETATM   15  S   UNL     1       7.373  29.519  56.823  1.00  0.00    -0.080 SA
BRANCH  15  16
HETATM   16  C   UNL     1       6.314  28.102  57.224  1.00  0.00     0.185 C 
BRANCH  16  17
HETATM   17  C   UNL     1       7.105  26.806  57.238  1.00  0.00     0.227 C 
HETATM   18  N   UNL     1       7.043  26.086  56.063  1.00  0.00    -0.360 N 
HETATM   19  H   UNL     1       6.220  26.249  55.480  1.00  0.00     0.162 HD
HETATM   20  O   UNL     1       7.770  26.455  58.210  1.00  0.00    -0.273 OA
BRANCH  18  21
HETATM   21  C   UNL     1       7.711  24.805  55.936  1.00  0.00     0.127 C 
BRANCH  21  22
HETATM   22  C   UNL     1       7.874  24.400  54.472  1.00  0.00     0.058 C 
BRANCH  22  23
HETATM   23  C   UNL     1       8.154  22.927  54.313  1.00  0.00    -0.057 A 
HETATM   24  C   UNL     1       7.839  22.264  53.121  1.00  0.00     0.007 A 
HETATM   25  C   UNL     1       8.088  20.897  52.986  1.00  0.00     0.001 A 
HETATM   26  C   UNL     1       8.653  20.182  54.040  1.00  0.00     0.000 A 
HETATM   27  C   UNL     1       8.968  20.831  55.232  1.00  0.00     0.001 A 
HETATM   28  C   UNL     1       8.717  22.197  55.369  1.00  0.00     0.007 A 
ENDBRANCH  22  23
ENDBRANCH  21  22
ENDBRANCH  18  21
ENDBRANCH  16  17
ENDBRANCH  15  16
ENDBRANCH   5  15
BRANCH  13  29
HETATM   29  O   UNL     1       2.482  34.210  58.740  1.00  0.00    -0.356 OA
HETATM   30  C   UNL     1       2.245  34.946  59.933  1.00  0.00     0.210 C 
ENDBRANCH  13  29
TORSDOF 7
ENDMDL
MODEL 4
REMARK VINA RESULT:      -9.3      2.642      9.991
REMARK  7 active torsions:
REMARK  status: ('A' for Active; 'I' for Inactive)
REMARK    1  A    between atoms: C_5  and  S_6 
REMARK    2  A    between atoms: S_6  and  C_7 
REMARK    3  A    between atoms: C_7  and  C_8 
REMARK       I    between atoms: C_8  and  N_9 
REMARK    4  A    between atoms: N_9  and  C_10 
REMARK    5  A    between atoms: C_10  and  C_11 
REMARK    6  A    between atoms: C_11  and  C_12 
REMARK    7  A    between atoms: C_26  and  O_27 
ROOT
HETATM    1  C   UNL     1      11.397  29.722  57.183  1.00  0.00     0.052 C 
HETATM    2  C   UNL     1      10.008  30.156  57.583  1.00  0.00    -0.013 A 
HETATM    3  C   UNL     1       8.849  29.770  56.844  1.00  0.00     0.165 A 
HETATM    4  N   UNL     1       7.578  30.207  57.223  1.00  0.00    -0.271 N 
HETATM    5  C   UNL     1       6.746  29.637  56.273  1.00  0.00     0.197 A 
HETATM    6  N   UNL     1       7.449  28.917  55.426  1.00  0.00    -0.122 NA
HETATM    7  N   UNL     1       8.762  29.003  55.777  1.00  0.00    -0.128 NA
HETATM    8  C   UNL     1       7.363  31.024  58.369  1.00  0.00     0.053 A 
HETATM    9  C   UNL     1       8.509  31.378  59.103  1.00  0.00    -0.005 A 
HETATM   10  C   UNL     1       9.839  30.932  58.670  1.00  0.00     0.024 A 
HETATM   11  C   UNL     1       6.112  31.466  58.804  1.00  0.00     0.034 A 
HETATM   12  C   UNL     1       6.001  32.246  59.965  1.00  0.00     0.039 A 
HETATM   13  C   UNL     1       7.133  32.590  60.700  1.00  0.00     0.069 A 
HETATM   14  C   UNL     1       8.385  32.158  60.260  1.00  0.00     0.050 A 
ENDROOT
BRANCH   5  15
HETATM   15  S   UNL     1       5.028  29.801  56.137  1.00  0.00    -0.080 SA
BRANCH  15  16
HETATM   16  C   UNL     1       4.615  28.399  55.064  1.00  0.00     0.185 C 
BRANCH  16  17
HETATM   17  C   UNL     1       5.027  27.079  55.692  1.00  0.00     0.227 C 
HETATM   18  N   UNL     1       5.720  26.236  54.849  1.00  0.00    -0.360 N 
HETATM   19  H   UNL     1       5.556  26.368  53.849  1.00  0.00     0.162 HD
HETATM   20  O   UNL     1       4.789  26.810  56.867  1.00  0.00    -0.273 OA
BRANCH  18  21
HETATM   21  C   UNL     1       6.144  24.922  55.290  1.00  0.00     0.127 C 
BRANCH  21  22
HETATM   22  C   UNL     1       7.564  24.605  54.823  1.00  0.00     0.058 C 
BRANCH  22  23
HETATM   23  C   UNL     1       7.760  23.136  54.542  1.00  0.00    -0.057 A 
HETATM   24  C   UNL     1       7.985  22.682  53.236  1.00  0.00     0.007 A 
HETATM   25  C   UNL     1       8.150  21.319  52.981  1.00  0.00     0.001 A 
HETATM   26  C   UNL     1       8.094  20.400  54.027  1.00  0.00     0.000 A 
HETATM   27  C   UNL     1       7.868  20.841  55.329  1.00  0.00     0.001 A 
HETATM   28  C   UNL     1       7.699  22.203  55.586  1.00  0.00     0.007 A 
ENDBRANCH  22  23
ENDBRANCH  21  22
ENDBRANCH  18  21
ENDBRANCH  16  17
ENDBRANCH  15  16
ENDBRANCH   5  15
BRANCH  13  29
HETATM   29  O   UNL     1       7.155  33.332  61.847  1.00  0.00    -0.356 OA
HETATM   30  C   UNL     1       6.062  34.217  62.063  1.00  0.00     0.210 C 
ENDBRANCH  13  29
TORSDOF 7
ENDMDL
MODEL 5
REMARK VINA RESULT:      -9.2      2.825     10.492
REMARK  7 active torsions:
REMARK  status: ('A' for Active; 'I' for Inactive)
REMARK    1  A    between atoms: C_5  and  S_6 
REMARK    2  A    between atoms: S_6  and  C_7 
REMARK    3  A    between atoms: C_7  and  C_8 
REMARK       I    between atoms: C_8  and  N_9 
REMARK    4  A    between atoms: N_9  and  C_10 
REMARK    5  A    between atoms: C_10  and  C_11 
REMARK    6  A    between atoms: C_11  and  C_12 
REMARK    7  A    between atoms: C_26  and  O_27 
ROOT
HETATM    1  C   UNL     1       3.448  34.270  59.515  1.00  0.00     0.052 C 
HETATM    2  C   UNL     1       4.618  33.786  60.337  1.00  0.00    -0.013 A 
HETATM    3  C   UNL     1       5.687  33.030  59.768  1.00  0.00     0.165 A 
HETATM    4  N   UNL     1       6.744  32.574  60.558  1.00  0.00    -0.271 N 
HETATM    5  C   UNL     1       7.548  31.894  59.658  1.00  0.00     0.197 A 
HETATM    6  N   UNL     1       7.031  31.956  58.450  1.00  0.00    -0.122 NA
HETATM    7  N   UNL     1       5.868  32.660  58.516  1.00  0.00    -0.128 NA
HETATM    8  C   UNL     1       6.833  32.859  61.950  1.00  0.00     0.053 A 
HETATM    9  C   UNL     1       5.787  33.625  62.496  1.00  0.00    -0.005 A 
HETATM   10  C   UNL     1       4.671  34.069  61.652  1.00  0.00     0.024 A 
HETATM   11  C   UNL     1       7.880  32.448  62.778  1.00  0.00     0.034 A 
HETATM   12  C   UNL     1       7.891  32.805  64.135  1.00  0.00     0.039 A 
HETATM   13  C   UNL     1       6.861  33.572  64.676  1.00  0.00     0.069 A 
HETATM   14  C   UNL     1       5.809  33.973  63.852  1.00  0.00     0.050 A 
ENDROOT
BRANCH   5  15
HETATM   15  S   UNL     1       9.024  31.051  59.985  1.00  0.00    -0.080 SA
BRANCH  15  16
HETATM   16  C   UNL     1       9.928  31.287  58.431  1.00  0.00     0.185 C 
BRANCH  16  17
HETATM   17  C   UNL     1       9.912  30.028  57.583  1.00  0.00     0.227 C 
HETATM   18  N   UNL     1       8.660  29.481  57.396  1.00  0.00    -0.360 N 
HETATM   19  H   UNL     1       7.964  29.699  58.111  1.00  0.00     0.162 HD
HETATM   20  O   UNL     1      10.933  29.563  57.082  1.00  0.00    -0.273 OA
BRANCH  18  21
HETATM   21  C   UNL     1       8.487  28.253  56.645  1.00  0.00     0.127 C 
BRANCH  21  22
HETATM   22  C   UNL     1       7.928  27.133  57.521  1.00  0.00     0.058 C 
BRANCH  22  23
HETATM   23  C   UNL     1       7.921  25.801  56.814  1.00  0.00    -0.057 A 
HETATM   24  C   UNL     1       8.620  24.708  57.341  1.00  0.00     0.007 A 
HETATM   25  C   UNL     1       8.621  23.482  56.673  1.00  0.00     0.001 A 
HETATM   26  C   UNL     1       7.925  23.338  55.474  1.00  0.00     0.000 A 
HETATM   27  C   UNL     1       7.229  24.420  54.939  1.00  0.00     0.001 A 
HETATM   28  C   UNL     1       7.229  25.647  55.604  1.00  0.00     0.007 A 
ENDBRANCH  22  23
ENDBRANCH  21  22
ENDBRANCH  18  21
ENDBRANCH  16  17
ENDBRANCH  15  16
ENDBRANCH   5  15
BRANCH  13  29
HETATM   29  O   UNL     1       6.764  33.989  65.973  1.00  0.00    -0.356 OA
HETATM   30  C   UNL     1       5.481  34.411  66.421  1.00  0.00     0.210 C 
ENDBRANCH  13  29
TORSDOF 7
ENDMDL
MODEL 6
REMARK VINA RESULT:      -9.1      2.475     10.021
REMARK  7 active torsions:
REMARK  status: ('A' for Active; 'I' for Inactive)
REMARK    1  A    between atoms: C_5  and  S_6 
REMARK    2  A    between atoms: S_6  and  C_7 
REMARK    3  A    between atoms: C_7  and  C_8 
REMARK       I    between atoms: C_8  and  N_9 
REMARK    4  A    between atoms: N_9  and  C_10 
REMARK    5  A    between atoms: C_10  and  C_11 
REMARK    6  A    between atoms: C_11  and  C_12 
REMARK    7  A    between atoms: C_26  and  O_27 
ROOT
HETATM    1  C   UNL     1       3.519  33.034  57.772  1.00  0.00     0.052 C 
HETATM    2  C   UNL     1       4.788  32.307  58.145  1.00  0.00    -0.013 A 
HETATM    3  C   UNL     1       5.388  31.336  57.287  1.00  0.00     0.165 A 
HETATM    4  N   UNL     1       6.548  30.660  57.669  1.00  0.00    -0.271 N 
HETATM    5  C   UNL     1       6.800  29.821  56.596  1.00  0.00     0.197 A 
HETATM    6  N   UNL     1       5.891  29.995  55.660  1.00  0.00    -0.122 NA
HETATM    7  N   UNL     1       5.006  30.935  56.091  1.00  0.00    -0.128 NA
HETATM    8  C   UNL     1       7.210  30.918  58.903  1.00  0.00     0.053 A 
HETATM    9  C   UNL     1       6.624  31.894  59.729  1.00  0.00    -0.005 A 
HETATM   10  C   UNL     1       5.387  32.571  59.321  1.00  0.00     0.024 A 
HETATM   11  C   UNL     1       8.385  30.289  59.320  1.00  0.00     0.034 A 
HETATM   12  C   UNL     1       8.977  30.635  60.544  1.00  0.00     0.039 A 
HETATM   13  C   UNL     1       8.404  31.607  61.361  1.00  0.00     0.069 A 
HETATM   14  C   UNL     1       7.224  32.229  60.950  1.00  0.00     0.050 A 
ENDROOT
BRANCH   5  15
HETATM   15  S   UNL     1       8.087  28.676  56.427  1.00  0.00    -0.080 SA
BRANCH  15  16
HETATM   16  C   UNL     1       8.104  28.413  54.633  1.00  0.00     0.185 C 
BRANCH  16  17
HETATM   17  C   UNL     1       7.394  27.125  54.254  1.00  0.00     0.227 C 
HETATM   18  N   UNL     1       7.080  26.311  55.322  1.00  0.00    -0.360 N 
HETATM   19  H   UNL     1       7.660  26.421  56.156  1.00  0.00     0.162 HD
HETATM   20  O   UNL     1       7.096  26.859  53.092  1.00  0.00    -0.273 OA
BRANCH  18  21
HETATM   21  C   UNL     1       6.438  25.027  55.118  1.00  0.00     0.127 C 
BRANCH  21  22
HETATM   22  C   UNL     1       7.112  23.926  55.935  1.00  0.00     0.058 C 
BRANCH  22  23
HETATM   23  C   UNL     1       7.500  22.740  55.088  1.00  0.00    -0.057 A 
HETATM   24  C   UNL     1       7.593  22.856  53.696  1.00  0.00     0.007 A 
HETATM   25  C   UNL     1       7.939  21.750  52.916  1.00  0.00     0.001 A 
HETATM   26  C   UNL     1       8.194  20.521  53.522  1.00  0.00     0.000 A 
HETATM   27  C   UNL     1       8.102  20.395  54.906  1.00  0.00     0.001 A 
HETATM   28  C   UNL     1       7.755  21.498  55.686  1.00  0.00     0.007 A 
ENDBRANCH  22  23
ENDBRANCH  21  22
ENDBRANCH  18  21
ENDBRANCH  16  17
ENDBRANCH  15  16
ENDBRANCH   5  15
BRANCH  13  29
HETATM   29  O   UNL     1       8.888  32.036  62.564  1.00  0.00    -0.356 OA
HETATM   30  C   UNL     1       7.968  32.677  63.438  1.00  0.00     0.210 C 
ENDBRANCH  13  29
TORSDOF 7
ENDMDL
MODEL 7
REMARK VINA RESULT:      -8.8      4.263      9.861
REMARK  7 active torsions:
REMARK  status: ('A' for Active; 'I' for Inactive)
REMARK    1  A    between atoms: C_5  and  S_6 
REMARK    2  A    between atoms: S_6  and  C_7 
REMARK    3  A    between atoms: C_7  and  C_8 
REMARK       I    between atoms: C_8  and  N_9 
REMARK    4  A    between atoms: N_9  and  C_10 
REMARK    5  A    between atoms: C_10  and  C_11 
REMARK    6  A    between atoms: C_11  and  C_12 
REMARK    7  A    between atoms: C_26  and  O_27 
ROOT
HETATM    1  C   UNL     1       8.430  21.225  56.802  1.00  0.00     0.052 C 
HETATM    2  C   UNL     1       8.168  22.634  56.326  1.00  0.00    -0.013 A 
HETATM    3  C   UNL     1       7.827  22.927  54.971  1.00  0.00     0.165 A 
HETATM    4  N   UNL     1       7.616  24.242  54.553  1.00  0.00    -0.271 N 
HETATM    5  C   UNL     1       7.323  24.108  53.205  1.00  0.00     0.197 A 
HETATM    6  N   UNL     1       7.339  22.839  52.861  1.00  0.00    -0.122 NA
HETATM    7  N   UNL     1       7.659  22.100  53.959  1.00  0.00    -0.128 NA
HETATM    8  C   UNL     1       7.693  25.348  55.446  1.00  0.00     0.053 A 
HETATM    9  C   UNL     1       8.005  25.045  56.784  1.00  0.00    -0.005 A 
HETATM   10  C   UNL     1       8.253  23.658  57.195  1.00  0.00     0.024 A 
HETATM   11  C   UNL     1       7.466  26.678  55.084  1.00  0.00     0.034 A 
HETATM   12  C   UNL     1       7.538  27.696  56.047  1.00  0.00     0.039 A 
HETATM   13  C   UNL     1       7.838  27.398  57.374  1.00  0.00     0.069 A 
HETATM   14  C   UNL     1       8.076  26.071  57.735  1.00  0.00     0.050 A 
ENDROOT
BRANCH   5  15
HETATM   15  S   UNL     1       6.982  25.367  52.067  1.00  0.00    -0.080 SA
BRANCH  15  16
HETATM   16  C   UNL     1       5.318  25.875  52.576  1.00  0.00     0.185 C 
BRANCH  16  17
HETATM   17  C   UNL     1       4.931  27.206  51.957  1.00  0.00     0.227 C 
HETATM   18  N   UNL     1       5.784  27.645  50.966  1.00  0.00    -0.360 N 
HETATM   19  H   UNL     1       6.741  27.290  51.008  1.00  0.00     0.162 HD
HETATM   20  O   UNL     1       3.918  27.816  52.294  1.00  0.00    -0.273 OA
BRANCH  18  21
HETATM   21  C   UNL     1       5.572  28.920  50.309  1.00  0.00     0.127 C 
BRANCH  21  22
HETATM   22  C   UNL     1       5.438  28.756  48.796  1.00  0.00     0.058 C 
BRANCH  22  23
HETATM   23  C   UNL     1       4.267  27.885  48.416  1.00  0.00    -0.057 A 
HETATM   24  C   UNL     1       4.470  26.645  47.796  1.00  0.00     0.007 A 
HETATM   25  C   UNL     1       3.380  25.851  47.433  1.00  0.00     0.001 A 
HETATM   26  C   UNL     1       2.081  26.287  47.687  1.00  0.00     0.000 A 
HETATM   27  C   UNL     1       1.869  27.519  48.301  1.00  0.00     0.001 A 
HETATM   28  C   UNL     1       2.956  28.316  48.662  1.00  0.00     0.007 A 
ENDBRANCH  22  23
ENDBRANCH  21  22
ENDBRANCH  18  21
ENDBRANCH  16  17
ENDBRANCH  15  16
ENDBRANCH   5  15
BRANCH  13  29
HETATM   29  O   UNL     1       7.927  28.295  58.401  1.00  0.00    -0.356 OA
HETATM   30  C   UNL     1       8.509  29.559  58.105  1.00  0.00     0.210 C 
ENDBRANCH  13  29
TORSDOF 7
ENDMDL
MODEL 8
REMARK VINA RESULT:      -8.6      4.632     10.347
REMARK  7 active torsions:
REMARK  status: ('A' for Active; 'I' for Inactive)
REMARK    1  A    between atoms: C_5  and  S_6 
REMARK    2  A    between atoms: S_6  and  C_7 
REMARK    3  A    between atoms: C_7  and  C_8 
REMARK       I    between atoms: C_8  and  N_9 
REMARK    4  A    between atoms: N_9  and  C_10 
REMARK    5  A    between atoms: C_10  and  C_11 
REMARK    6  A    between atoms: C_11  and  C_12 
REMARK    7  A    between atoms: C_26  and  O_27 
ROOT
HETATM    1  C   UNL     1       7.905  27.728  57.749  1.00  0.00     0.052 C 
HETATM    2  C   UNL     1       7.792  26.730  56.622  1.00  0.00    -0.013 A 
HETATM    3  C   UNL     1       7.172  27.056  55.378  1.00  0.00     0.165 A 
HETATM    4  N   UNL     1       7.059  26.106  54.361  1.00  0.00    -0.271 N 
HETATM    5  C   UNL     1       6.408  26.793  53.350  1.00  0.00     0.197 A 
HETATM    6  N   UNL     1       6.174  28.033  53.720  1.00  0.00    -0.122 NA
HETATM    7  N   UNL     1       6.645  28.199  54.987  1.00  0.00    -0.128 NA
HETATM    8  C   UNL     1       7.578  24.786  54.490  1.00  0.00     0.053 A 
HETATM    9  C   UNL     1       8.209  24.484  55.711  1.00  0.00    -0.005 A 
HETATM   10  C   UNL     1       8.289  25.489  56.777  1.00  0.00     0.024 A 
HETATM   11  C   UNL     1       7.513  23.808  53.496  1.00  0.00     0.034 A 
HETATM   12  C   UNL     1       8.081  22.542  53.711  1.00  0.00     0.039 A 
HETATM   13  C   UNL     1       8.715  22.243  54.914  1.00  0.00     0.069 A 
HETATM   14  C   UNL     1       8.769  23.216  55.913  1.00  0.00     0.050 A 
ENDROOT
BRANCH   5  15
HETATM   15  S   UNL     1       5.925  26.188  51.801  1.00  0.00    -0.080 SA
BRANCH  15  16
HETATM   16  C   UNL     1       4.965  27.582  51.152  1.00  0.00     0.185 C 
BRANCH  16  17
HETATM   17  C   UNL     1       4.828  27.506  49.641  1.00  0.00     0.227 C 
HETATM   18  N   UNL     1       3.980  26.515  49.193  1.00  0.00    -0.360 N 
HETATM   19  H   UNL     1       3.848  25.720  49.821  1.00  0.00     0.162 HD
HETATM   20  O   UNL     1       5.404  28.291  48.891  1.00  0.00    -0.273 OA
BRANCH  18  21
HETATM   21  C   UNL     1       3.779  26.289  47.775  1.00  0.00     0.127 C 
BRANCH  21  22
HETATM   22  C   UNL     1       2.299  26.117  47.439  1.00  0.00     0.058 C 
BRANCH  22  23
HETATM   23  C   UNL     1       1.665  27.403  46.972  1.00  0.00    -0.057 A 
HETATM   24  C   UNL     1       2.369  28.612  47.037  1.00  0.00     0.007 A 
HETATM   25  C   UNL     1       1.770  29.802  46.617  1.00  0.00     0.001 A 
HETATM   26  C   UNL     1       0.465  29.792  46.128  1.00  0.00     0.000 A 
HETATM   27  C   UNL     1      -0.245  28.595  46.062  1.00  0.00     0.001 A 
HETATM   28  C   UNL     1       0.351  27.406  46.484  1.00  0.00     0.007 A 
ENDBRANCH  22  23
ENDBRANCH  21  22
ENDBRANCH  18  21
ENDBRANCH  16  17
ENDBRANCH  15  16
ENDBRANCH   5  15
BRANCH  13  29
HETATM   29  O   UNL     1       9.311  21.057  55.237  1.00  0.00    -0.356 OA
HETATM   30  C   UNL     1       8.668  20.260  56.225  1.00  0.00     0.210 C 
ENDBRANCH  13  29
TORSDOF 7
ENDMDL
MODEL 9
REMARK VINA RESULT:      -8.6      2.767     10.915
REMARK  7 active torsions:
REMARK  status: ('A' for Active; 'I' for Inactive)
REMARK    1  A    between atoms: C_5  and  S_6 
REMARK    2  A    between atoms: S_6  and  C_7 
REMARK    3  A    between atoms: C_7  and  C_8 
REMARK       I    between atoms: C_8  and  N_9 
REMARK    4  A    between atoms: N_9  and  C_10 
REMARK    5  A    between atoms: C_10  and  C_11 
REMARK    6  A    between atoms: C_11  and  C_12 
REMARK    7  A    between atoms: C_26  and  O_27 
ROOT
HETATM    1  C   UNL     1       3.543  34.700  59.428  1.00  0.00     0.052 C 
HETATM    2  C   UNL     1       4.669  34.059  60.202  1.00  0.00    -0.013 A 
HETATM    3  C   UNL     1       5.592  33.156  59.593  1.00  0.00     0.165 A 
HETATM    4  N   UNL     1       6.609  32.558  60.339  1.00  0.00    -0.271 N 
HETATM    5  C   UNL     1       7.266  31.766  59.411  1.00  0.00     0.197 A 
HETATM    6  N   UNL     1       6.707  31.895  58.227  1.00  0.00    -0.122 NA
HETATM    7  N   UNL     1       5.660  32.757  58.339  1.00  0.00    -0.128 NA
HETATM    8  C   UNL     1       6.804  32.834  61.722  1.00  0.00     0.053 A 
HETATM    9  C   UNL     1       5.904  33.744  62.306  1.00  0.00    -0.005 A 
HETATM   10  C   UNL     1       4.823  34.338  61.510  1.00  0.00     0.024 A 
HETATM   11  C   UNL     1       7.819  32.282  62.506  1.00  0.00     0.034 A 
HETATM   12  C   UNL     1       7.945  32.641  63.857  1.00  0.00     0.039 A 
HETATM   13  C   UNL     1       7.061  33.549  64.436  1.00  0.00     0.069 A 
HETATM   14  C   UNL     1       6.039  34.092  63.656  1.00  0.00     0.050 A 
ENDROOT
BRANCH   5  15
HETATM   15  S   UNL     1       8.621  30.723  59.681  1.00  0.00    -0.080 SA
BRANCH  15  16
HETATM   16  C   UNL     1       9.090  30.294  57.982  1.00  0.00     0.185 C 
BRANCH  16  17
HETATM   17  C   UNL     1       8.371  29.044  57.507  1.00  0.00     0.227 C 
HETATM   18  N   UNL     1       8.085  29.027  56.158  1.00  0.00    -0.360 N 
HETATM   19  H   UNL     1       8.009  29.939  55.704  1.00  0.00     0.162 HD
HETATM   20  O   UNL     1       8.103  28.114  58.265  1.00  0.00    -0.273 OA
BRANCH  18  21
HETATM   21  C   UNL     1       7.363  27.920  55.561  1.00  0.00     0.127 C 
BRANCH  21  22
HETATM   22  C   UNL     1       7.515  27.906  54.041  1.00  0.00     0.058 C 
BRANCH  22  23
HETATM   23  C   UNL     1       6.670  26.839  53.392  1.00  0.00    -0.057 A 
HETATM   24  C   UNL     1       5.996  27.093  52.190  1.00  0.00     0.007 A 
HETATM   25  C   UNL     1       5.204  26.105  51.602  1.00  0.00     0.001 A 
HETATM   26  C   UNL     1       5.079  24.856  52.208  1.00  0.00     0.000 A 
HETATM   27  C   UNL     1       5.743  24.594  53.405  1.00  0.00     0.001 A 
HETATM   28  C   UNL     1       6.533  25.581  53.996  1.00  0.00     0.007 A 
ENDBRANCH  22  23
ENDBRANCH  21  22
ENDBRANCH  18  21
ENDBRANCH  16  17
ENDBRANCH  15  16
ENDBRANCH   5  15
BRANCH  13  29
HETATM   29  O   UNL     1       7.085  33.983  65.731  1.00  0.00    -0.356 OA
HETATM   30  C   UNL     1       5.829  34.230  66.352  1.00  0.00     0.210 C 
ENDBRANCH  13  29
TORSDOF 7
ENDMDL
MODEL 10
REMARK VINA RESULT:      -8.4      3.141      9.220
REMARK  7 active torsions:
REMARK  status: ('A' for Active; 'I' for Inactive)
REMARK    1  A    between atoms: C_5  and  S_6 
REMARK    2  A    between atoms: S_6  and  C_7 
REMARK    3  A    between atoms: C_7  and  C_8 
REMARK       I    between atoms: C_8  and  N_9 
REMARK    4  A    between atoms: N_9  and  C_10 
REMARK    5  A    between atoms: C_10  and  C_11 
REMARK    6  A    between atoms: C_11  and  C_12 
REMARK    7  A    between atoms: C_26  and  O_27 
ROOT
HETATM    1  C   UNL     1       8.251  24.829  57.961  1.00  0.00     0.052 C 
HETATM    2  C   UNL     1       7.601  26.120  57.527  1.00  0.00    -0.013 A 
HETATM    3  C   UNL     1       6.605  26.163  56.504  1.00  0.00     0.165 A 
HETATM    4  N   UNL     1       6.038  27.375  56.105  1.00  0.00    -0.271 N 
HETATM    5  C   UNL     1       5.146  27.001  55.113  1.00  0.00     0.197 A 
HETATM    6  N   UNL     1       5.167  25.695  54.952  1.00  0.00    -0.122 NA
HETATM    7  N   UNL     1       6.080  25.171  55.815  1.00  0.00    -0.128 NA
HETATM    8  C   UNL     1       6.389  28.616  56.708  1.00  0.00     0.053 A 
HETATM    9  C   UNL     1       7.353  28.559  57.731  1.00  0.00    -0.005 A 
HETATM   10  C   UNL     1       7.958  27.278  58.114  1.00  0.00     0.024 A 
HETATM   11  C   UNL     1       5.834  29.850  56.362  1.00  0.00     0.034 A 
HETATM   12  C   UNL     1       6.228  31.016  57.036  1.00  0.00     0.039 A 
HETATM   13  C   UNL     1       7.174  30.962  58.057  1.00  0.00     0.069 A 
HETATM   14  C   UNL     1       7.738  29.731  58.394  1.00  0.00     0.050 A 
ENDROOT
BRANCH   5  15
HETATM   15  S   UNL     1       4.125  28.029  54.167  1.00  0.00    -0.080 SA
BRANCH  15  16
HETATM   16  C   UNL     1       5.166  28.336  52.714  1.00  0.00     0.185 C 
BRANCH  16  17
HETATM   17  C   UNL     1       6.524  27.670  52.855  1.00  0.00     0.227 C 
HETATM   18  N   UNL     1       6.572  26.369  52.398  1.00  0.00    -0.360 N 
HETATM   19  H   UNL     1       5.685  25.864  52.388  1.00  0.00     0.162 HD
HETATM   20  O   UNL     1       7.500  28.263  53.307  1.00  0.00    -0.273 OA
BRANCH  18  21
HETATM   21  C   UNL     1       7.788  25.586  52.504  1.00  0.00     0.127 C 
BRANCH  21  22
HETATM   22  C   UNL     1       7.565  24.141  52.060  1.00  0.00     0.058 C 
BRANCH  22  23
HETATM   23  C   UNL     1       8.017  23.147  53.099  1.00  0.00    -0.057 A 
HETATM   24  C   UNL     1       8.571  23.580  54.310  1.00  0.00     0.007 A 
HETATM   25  C   UNL     1       9.002  22.653  55.261  1.00  0.00     0.001 A 
HETATM   26  C   UNL     1       8.880  21.287  55.012  1.00  0.00     0.000 A 
HETATM   27  C   UNL     1       8.332  20.846  53.809  1.00  0.00     0.001 A 
HETATM   28  C   UNL     1       7.904  21.771  52.856  1.00  0.00     0.007 A 
ENDBRANCH  22  23
ENDBRANCH  21  22
ENDBRANCH  18  21
ENDBRANCH  16  17
ENDBRANCH  15  16
ENDBRANCH   5  15
BRANCH  13  29
HETATM   29  O   UNL     1       7.630  32.021  58.790  1.00  0.00    -0.356 OA
HETATM   30  C   UNL     1       8.368  31.719  59.968  1.00  0.00     0.210 C 
ENDBRANCH  13  29
TORSDOF 7
ENDMDL
