MODEL 1
REMARK VINA RESULT:      -9.8      0.000      0.000
REMARK  6 active torsions:
REMARK  status: ('A' for Active; 'I' for Inactive)
REMARK    1  A    between atoms: C_2  and  C_3 
REMARK    2  A    between atoms: C_5  and  S_6 
REMARK    3  A    between atoms: S_6  and  C_7 
REMARK    4  A    between atoms: C_7  and  C_8 
REMARK       I    between atoms: C_8  and  N_9 
REMARK    5  A    between atoms: N_9  and  C_10 
REMARK    6  A    between atoms: C_13  and  C_14 
ROOT
HETATM    1  C   UNL     1       5.880  28.555  56.201  1.00  0.00     0.233 C 
HETATM    2  N   UNL     1       7.127  27.991  56.094  1.00  0.00    -0.305 N 
HETATM    3  O   UNL     1       4.828  27.945  56.392  1.00  0.00    -0.272 OA
HETATM    4  H   UNL     1       7.925  28.584  55.915  1.00  0.00     0.171 HD
ENDROOT
BRANCH   1   5
HETATM    5  C   UNL     1       5.840  30.076  56.087  1.00  0.00     0.184 C 
BRANCH   5   6
HETATM    6  S   UNL     1       5.587  30.939  57.679  1.00  0.00    -0.100 SA
BRANCH   6   7
HETATM    7  C   UNL     1       7.232  30.889  58.337  1.00  0.00     0.109 A 
HETATM    8  N   UNL     1       8.196  30.318  57.585  1.00  0.00    -0.226 NA
HETATM    9  C   UNL     1       9.450  30.261  58.059  1.00  0.00     0.128 A 
HETATM   10  N   UNL     1       9.853  30.721  59.244  1.00  0.00    -0.225 NA
HETATM   11  C   UNL     1       8.871  31.286  59.962  1.00  0.00     0.113 A 
HETATM   12  C   UNL     1       7.538  31.424  59.602  1.00  0.00     0.042 A 
HETATM   13  S   UNL     1       9.226  31.926  61.493  1.00  0.00    -0.074 SA
HETATM   14  C   UNL     1       6.794  32.102  60.662  1.00  0.00    -0.033 A 
HETATM   15  C   UNL     1       7.612  32.417  61.741  1.00  0.00    -0.012 A 
HETATM   16  C   UNL     1       5.332  32.428  60.616  1.00  0.00     0.050 C 
HETATM   17  C   UNL     1       7.249  33.103  63.019  1.00  0.00     0.057 C 
BRANCH   9  18
HETATM   18  C   UNL     1      10.481  29.588  57.193  1.00  0.00     0.076 C 
HETATM   19  C   UNL     1      10.088  29.646  55.726  1.00  0.00     0.013 C 
ENDBRANCH   9  18
ENDBRANCH   6   7
ENDBRANCH   5   6
ENDBRANCH   1   5
BRANCH   2  20
HETATM   20  C   UNL     1       7.352  26.649  56.194  1.00  0.00     0.173 A 
HETATM   21  S   UNL     1       7.562  26.094  57.792  1.00  0.00    -0.061 SA
HETATM   22  C   UNL     1       7.776  24.500  57.186  1.00  0.00     0.085 A 
HETATM   23  C   UNL     1       7.663  24.497  55.807  1.00  0.00     0.076 A 
HETATM   24  N   UNL     1       7.427  25.748  55.253  1.00  0.00    -0.223 NA
BRANCH  23  25
HETATM   25  C   UNL     1       7.787  23.317  54.952  1.00  0.00    -0.007 A 
HETATM   26  C   UNL     1       7.748  22.008  55.460  1.00  0.00     0.017 A 
HETATM   27  C   UNL     1       7.865  20.907  54.603  1.00  0.00     0.043 A 
HETATM   28  C   UNL     1       8.017  21.110  53.237  1.00  0.00     0.116 A 
HETATM   29  F   UNL     1       8.127  20.054  52.422  1.00  0.00    -0.206 F 
HETATM   30  C   UNL     1       8.053  22.392  52.709  1.00  0.00     0.043 A 
HETATM   31  C   UNL     1       7.936  23.492  53.564  1.00  0.00     0.017 A 
ENDBRANCH  23  25
ENDBRANCH   2  20
TORSDOF 6
ENDMDL
MODEL 2
REMARK VINA RESULT:      -9.7      1.706      1.998
REMARK  6 active torsions:
REMARK  status: ('A' for Active; 'I' for Inactive)
REMARK    1  A    between atoms: C_2  and  C_3 
REMARK    2  A    between atoms: C_5  and  S_6 
REMARK    3  A    between atoms: S_6  and  C_7 
REMARK    4  A    between atoms: C_7  and  C_8 
REMARK       I    between atoms: C_8  and  N_9 
REMARK    5  A    between atoms: N_9  and  C_10 
REMARK    6  A    between atoms: C_13  and  C_14 
ROOT
HETATM    1  C   UNL     1       5.069  29.889  55.930  1.00  0.00     0.233 C 
HETATM    2  N   UNL     1       5.869  29.400  54.927  1.00  0.00    -0.305 N 
HETATM    3  O   UNL     1       4.175  29.267  56.504  1.00  0.00    -0.272 OA
HETATM    4  H   UNL     1       6.562  30.004  54.508  1.00  0.00     0.171 HD
ENDROOT
BRANCH   1   5
HETATM    5  C   UNL     1       5.359  31.325  56.356  1.00  0.00     0.184 C 
BRANCH   5   6
HETATM    6  S   UNL     1       5.293  31.598  58.163  1.00  0.00    -0.100 SA
BRANCH   6   7
HETATM    7  C   UNL     1       6.903  31.025  58.634  1.00  0.00     0.109 A 
HETATM    8  N   UNL     1       7.601  30.295  57.738  1.00  0.00    -0.226 NA
HETATM    9  C   UNL     1       8.822  29.844  58.068  1.00  0.00     0.128 A 
HETATM   10  N   UNL     1       9.432  30.043  59.237  1.00  0.00    -0.225 NA
HETATM   11  C   UNL     1       8.712  30.776  60.100  1.00  0.00     0.113 A 
HETATM   12  C   UNL     1       7.450  31.314  59.898  1.00  0.00     0.042 A 
HETATM   13  S   UNL     1       9.357  31.123  61.631  1.00  0.00    -0.074 SA
HETATM   14  C   UNL     1       7.017  32.052  61.083  1.00  0.00    -0.033 A 
HETATM   15  C   UNL     1       7.975  32.010  62.090  1.00  0.00    -0.012 A 
HETATM   16  C   UNL     1       5.709  32.771  61.222  1.00  0.00     0.050 C 
HETATM   17  C   UNL     1       7.926  32.628  63.451  1.00  0.00     0.057 C 
BRANCH   9  18
HETATM   18  C   UNL     1       9.544  29.011  57.045  1.00  0.00     0.076 C 
HETATM   19  C   UNL     1      10.940  29.553  56.781  1.00  0.00     0.013 C 
ENDBRANCH   9  18
ENDBRANCH   6   7
ENDBRANCH   5   6
ENDBRANCH   1   5
BRANCH   2  20
HETATM   20  C   UNL     1       5.765  28.131  54.437  1.00  0.00     0.173 A 
HETATM   21  S   UNL     1       4.453  27.900  53.373  1.00  0.00    -0.061 SA
HETATM   22  C   UNL     1       4.918  26.256  53.193  1.00  0.00     0.085 A 
HETATM   23  C   UNL     1       6.048  25.996  53.949  1.00  0.00     0.076 A 
HETATM   24  N   UNL     1       6.516  27.089  54.666  1.00  0.00    -0.223 NA
BRANCH  23  25
HETATM   25  C   UNL     1       6.727  24.703  54.038  1.00  0.00    -0.007 A 
HETATM   26  C   UNL     1       6.864  24.004  55.248  1.00  0.00     0.017 A 
HETATM   27  C   UNL     1       7.517  22.766  55.286  1.00  0.00     0.043 A 
HETATM   28  C   UNL     1       8.032  22.223  54.115  1.00  0.00     0.116 A 
HETATM   29  F   UNL     1       8.655  21.039  54.156  1.00  0.00    -0.206 F 
HETATM   30  C   UNL     1       7.906  22.891  52.906  1.00  0.00     0.043 A 
HETATM   31  C   UNL     1       7.253  24.126  52.868  1.00  0.00     0.017 A 
ENDBRANCH  23  25
ENDBRANCH   2  20
TORSDOF 6
ENDMDL
MODEL 3
REMARK VINA RESULT:      -9.6      2.069      2.970
REMARK  6 active torsions:
REMARK  status: ('A' for Active; 'I' for Inactive)
REMARK    1  A    between atoms: C_2  and  C_3 
REMARK    2  A    between atoms: C_5  and  S_6 
REMARK    3  A    between atoms: S_6  and  C_7 
REMARK    4  A    between atoms: C_7  and  C_8 
REMARK       I    between atoms: C_8  and  N_9 
REMARK    5  A    between atoms: N_9  and  C_10 
REMARK    6  A    between atoms: C_13  and  C_14 
ROOT
HETATM    1  C   UNL     1       7.967  28.662  57.227  1.00  0.00     0.233 C 
HETATM    2  N   UNL     1       7.369  28.195  56.083  1.00  0.00    -0.305 N 
HETATM    3  O   UNL     1       8.204  27.999  58.237  1.00  0.00    -0.272 OA
HETATM    4  H   UNL     1       7.202  28.832  55.316  1.00  0.00     0.171 HD
ENDROOT
BRANCH   1   5
HETATM    5  C   UNL     1       8.378  30.131  57.196  1.00  0.00     0.184 C 
BRANCH   5   6
HETATM    6  S   UNL     1       8.872  30.805  58.823  1.00  0.00    -0.100 SA
BRANCH   6   7
HETATM    7  C   UNL     1       7.418  31.724  59.247  1.00  0.00     0.109 A 
HETATM    8  N   UNL     1       6.495  31.927  58.282  1.00  0.00    -0.226 NA
HETATM    9  C   UNL     1       5.386  32.624  58.573  1.00  0.00     0.128 A 
HETATM   10  N   UNL     1       5.096  33.163  59.757  1.00  0.00    -0.225 NA
HETATM   11  C   UNL     1       6.030  32.937  60.693  1.00  0.00     0.113 A 
HETATM   12  C   UNL     1       7.217  32.232  60.544  1.00  0.00     0.042 A 
HETATM   13  S   UNL     1       5.803  33.553  62.257  1.00  0.00    -0.074 SA
HETATM   14  C   UNL     1       7.956  32.210  61.804  1.00  0.00    -0.033 A 
HETATM   15  C   UNL     1       7.281  32.902  62.804  1.00  0.00    -0.012 A 
HETATM   16  C   UNL     1       9.276  31.534  62.019  1.00  0.00     0.050 C 
HETATM   17  C   UNL     1       7.690  33.121  64.227  1.00  0.00     0.057 C 
BRANCH   9  18
HETATM   18  C   UNL     1       4.404  32.848  57.454  1.00  0.00     0.076 C 
HETATM   19  C   UNL     1       4.706  34.136  56.707  1.00  0.00     0.013 C 
ENDBRANCH   9  18
ENDBRANCH   6   7
ENDBRANCH   5   6
ENDBRANCH   1   5
BRANCH   2  20
HETATM   20  C   UNL     1       6.958  26.904  55.927  1.00  0.00     0.173 A 
HETATM   21  S   UNL     1       5.416  26.579  56.576  1.00  0.00    -0.061 SA
HETATM   22  C   UNL     1       5.567  24.947  56.059  1.00  0.00     0.085 A 
HETATM   23  C   UNL     1       6.779  24.762  55.418  1.00  0.00     0.076 A 
HETATM   24  N   UNL     1       7.571  25.901  55.359  1.00  0.00    -0.223 NA
BRANCH  23  25
HETATM   25  C   UNL     1       7.248  23.501  54.844  1.00  0.00    -0.007 A 
HETATM   26  C   UNL     1       7.449  22.347  55.619  1.00  0.00     0.017 A 
HETATM   27  C   UNL     1       7.893  21.159  55.027  1.00  0.00     0.043 A 
HETATM   28  C   UNL     1       8.137  21.120  53.660  1.00  0.00     0.116 A 
HETATM   29  F   UNL     1       8.561  19.982  53.098  1.00  0.00    -0.206 F 
HETATM   30  C   UNL     1       7.942  22.244  52.870  1.00  0.00     0.043 A 
HETATM   31  C   UNL     1       7.497  23.430  53.462  1.00  0.00     0.017 A 
ENDBRANCH  23  25
ENDBRANCH   2  20
TORSDOF 6
ENDMDL
MODEL 4
REMARK VINA RESULT:      -8.8      2.163      3.601
REMARK  6 active torsions:
REMARK  status: ('A' for Active; 'I' for Inactive)
REMARK    1  A    between atoms: C_2  and  C_3 
REMARK    2  A    between atoms: C_5  and  S_6 
REMARK    3  A    between atoms: S_6  and  C_7 
REMARK    4  A    between atoms: C_7  and  C_8 
REMARK       I    between atoms: C_8  and  N_9 
REMARK    5  A    between atoms: N_9  and  C_10 
REMARK    6  A    between atoms: C_13  and  C_14 
ROOT
HETATM    1  C   UNL     1       5.656  28.312  56.749  1.00  0.00     0.233 C 
HETATM    2  N   UNL     1       6.891  28.099  56.187  1.00  0.00    -0.305 N 
HETATM    3  O   UNL     1       4.642  27.650  56.527  1.00  0.00    -0.272 OA
HETATM    4  H   UNL     1       7.655  28.717  56.423  1.00  0.00     0.171 HD
ENDROOT
BRANCH   1   5
HETATM    5  C   UNL     1       5.582  29.464  57.745  1.00  0.00     0.184 C 
BRANCH   5   6
HETATM    6  S   UNL     1       7.043  30.564  57.728  1.00  0.00    -0.100 SA
BRANCH   6   7
HETATM    7  C   UNL     1       6.730  31.538  59.175  1.00  0.00     0.109 A 
HETATM    8  N   UNL     1       7.458  31.277  60.282  1.00  0.00    -0.226 NA
HETATM    9  C   UNL     1       7.239  31.995  61.395  1.00  0.00     0.128 A 
HETATM   10  N   UNL     1       6.337  32.968  61.525  1.00  0.00    -0.225 NA
HETATM   11  C   UNL     1       5.636  33.204  60.406  1.00  0.00     0.113 A 
HETATM   12  C   UNL     1       5.755  32.553  59.186  1.00  0.00     0.042 A 
HETATM   13  S   UNL     1       4.452  34.419  60.409  1.00  0.00    -0.074 SA
HETATM   14  C   UNL     1       4.812  33.111  58.219  1.00  0.00    -0.033 A 
HETATM   15  C   UNL     1       4.049  34.130  58.778  1.00  0.00    -0.012 A 
HETATM   16  C   UNL     1       4.666  32.660  56.797  1.00  0.00     0.050 C 
HETATM   17  C   UNL     1       2.977  34.953  58.137  1.00  0.00     0.057 C 
BRANCH   9  18
HETATM   18  C   UNL     1       8.057  31.645  62.608  1.00  0.00     0.076 C 
HETATM   19  C   UNL     1       7.903  32.695  63.696  1.00  0.00     0.013 C 
ENDBRANCH   9  18
ENDBRANCH   6   7
ENDBRANCH   5   6
ENDBRANCH   1   5
BRANCH   2  20
HETATM   20  C   UNL     1       7.145  27.100  55.294  1.00  0.00     0.173 A 
HETATM   21  S   UNL     1       7.271  27.625  53.677  1.00  0.00    -0.061 SA
HETATM   22  C   UNL     1       7.562  26.001  53.196  1.00  0.00     0.085 A 
HETATM   23  C   UNL     1       7.553  25.169  54.302  1.00  0.00     0.076 A 
HETATM   24  N   UNL     1       7.303  25.821  55.502  1.00  0.00    -0.223 NA
BRANCH  23  25
HETATM   25  C   UNL     1       7.768  23.722  54.273  1.00  0.00    -0.007 A 
HETATM   26  C   UNL     1       7.986  23.014  53.080  1.00  0.00     0.017 A 
HETATM   27  C   UNL     1       8.193  21.630  53.100  1.00  0.00     0.043 A 
HETATM   28  C   UNL     1       8.183  20.950  54.311  1.00  0.00     0.116 A 
HETATM   29  F   UNL     1       8.382  19.626  54.326  1.00  0.00    -0.206 F 
HETATM   30  C   UNL     1       7.975  21.625  55.505  1.00  0.00     0.043 A 
HETATM   31  C   UNL     1       7.770  23.008  55.485  1.00  0.00     0.017 A 
ENDBRANCH  23  25
ENDBRANCH   2  20
TORSDOF 6
ENDMDL
MODEL 5
REMARK VINA RESULT:      -8.7      4.235     10.094
REMARK  6 active torsions:
REMARK  status: ('A' for Active; 'I' for Inactive)
REMARK    1  A    between atoms: C_2  and  C_3 
REMARK    2  A    between atoms: C_5  and  S_6 
REMARK    3  A    between atoms: S_6  and  C_7 
REMARK    4  A    between atoms: C_7  and  C_8 
REMARK       I    between atoms: C_8  and  N_9 
REMARK    5  A    between atoms: N_9  and  C_10 
REMARK    6  A    between atoms: C_13  and  C_14 
ROOT
HETATM    1  C   UNL     1       7.999  29.539  56.954  1.00  0.00     0.233 C 
HETATM    2  N   UNL     1       6.740  29.879  57.383  1.00  0.00    -0.305 N 
HETATM    3  O   UNL     1       9.047  30.090  57.290  1.00  0.00    -0.272 OA
HETATM    4  H   UNL     1       5.942  29.372  57.028  1.00  0.00     0.171 HD
ENDROOT
BRANCH   1   5
HETATM    5  C   UNL     1       8.064  28.356  55.992  1.00  0.00     0.184 C 
BRANCH   5   6
HETATM    6  S   UNL     1       6.741  27.118  56.239  1.00  0.00    -0.100 SA
BRANCH   6   7
HETATM    7  C   UNL     1       6.739  26.329  54.652  1.00  0.00     0.109 A 
HETATM    8  N   UNL     1       6.124  26.963  53.631  1.00  0.00    -0.226 NA
HETATM    9  C   UNL     1       6.102  26.387  52.419  1.00  0.00     0.128 A 
HETATM   10  N   UNL     1       6.638  25.206  52.112  1.00  0.00    -0.225 NA
HETATM   11  C   UNL     1       7.245  24.606  53.148  1.00  0.00     0.113 A 
HETATM   12  C   UNL     1       7.355  25.080  54.447  1.00  0.00     0.042 A 
HETATM   13  S   UNL     1       7.983  23.096  52.915  1.00  0.00    -0.074 SA
HETATM   14  C   UNL     1       8.096  24.129  55.273  1.00  0.00    -0.033 A 
HETATM   15  C   UNL     1       8.483  23.011  54.543  1.00  0.00    -0.012 A 
HETATM   16  C   UNL     1       8.414  24.312  56.726  1.00  0.00     0.050 C 
HETATM   17  C   UNL     1       9.249  21.812  55.006  1.00  0.00     0.057 C 
BRANCH   9  18
HETATM   18  C   UNL     1       5.379  27.122  51.324  1.00  0.00     0.076 C 
HETATM   19  C   UNL     1       4.947  26.174  50.217  1.00  0.00     0.013 C 
ENDBRANCH   9  18
ENDBRANCH   6   7
ENDBRANCH   5   6
ENDBRANCH   1   5
BRANCH   2  20
HETATM   20  C   UNL     1       6.498  30.895  58.261  1.00  0.00     0.173 A 
HETATM   21  S   UNL     1       5.466  32.108  57.653  1.00  0.00    -0.061 SA
HETATM   22  C   UNL     1       5.613  32.947  59.146  1.00  0.00     0.085 A 
HETATM   23  C   UNL     1       6.430  32.241  60.010  1.00  0.00     0.076 A 
HETATM   24  N   UNL     1       6.937  31.063  59.478  1.00  0.00    -0.223 NA
BRANCH  23  25
HETATM   25  C   UNL     1       6.778  32.651  61.371  1.00  0.00    -0.007 A 
HETATM   26  C   UNL     1       7.809  32.041  62.104  1.00  0.00     0.017 A 
HETATM   27  C   UNL     1       8.111  32.471  63.401  1.00  0.00     0.043 A 
HETATM   28  C   UNL     1       7.386  33.511  63.969  1.00  0.00     0.116 A 
HETATM   29  F   UNL     1       7.679  33.918  65.210  1.00  0.00    -0.206 F 
HETATM   30  C   UNL     1       6.366  34.134  63.265  1.00  0.00     0.043 A 
HETATM   31  C   UNL     1       6.065  33.706  61.969  1.00  0.00     0.017 A 
ENDBRANCH  23  25
ENDBRANCH   2  20
TORSDOF 6
ENDMDL
MODEL 6
REMARK VINA RESULT:      -8.6      2.586      4.219
REMARK  6 active torsions:
REMARK  status: ('A' for Active; 'I' for Inactive)
REMARK    1  A    between atoms: C_2  and  C_3 
REMARK    2  A    between atoms: C_5  and  S_6 
REMARK    3  A    between atoms: S_6  and  C_7 
REMARK    4  A    between atoms: C_7  and  C_8 
REMARK       I    between atoms: C_8  and  N_9 
REMARK    5  A    between atoms: N_9  and  C_10 
REMARK    6  A    between atoms: C_13  and  C_14 
ROOT
HETATM    1  C   UNL     1       5.354  29.356  56.671  1.00  0.00     0.233 C 
HETATM    2  N   UNL     1       4.619  28.244  56.340  1.00  0.00    -0.305 N 
HETATM    3  O   UNL     1       6.439  29.671  56.185  1.00  0.00    -0.272 OA
HETATM    4  H   UNL     1       3.746  28.067  56.817  1.00  0.00     0.171 HD
ENDROOT
BRANCH   1   5
HETATM    5  C   UNL     1       4.725  30.264  57.723  1.00  0.00     0.184 C 
BRANCH   5   6
HETATM    6  S   UNL     1       5.172  32.029  57.552  1.00  0.00    -0.100 SA
BRANCH   6   7
HETATM    7  C   UNL     1       5.044  32.558  59.238  1.00  0.00     0.109 A 
HETATM    8  N   UNL     1       3.863  33.065  59.654  1.00  0.00    -0.226 NA
HETATM    9  C   UNL     1       3.738  33.478  60.924  1.00  0.00     0.128 A 
HETATM   10  N   UNL     1       4.698  33.447  61.849  1.00  0.00    -0.225 NA
HETATM   11  C   UNL     1       5.855  32.933  61.403  1.00  0.00     0.113 A 
HETATM   12  C   UNL     1       6.130  32.461  60.128  1.00  0.00     0.042 A 
HETATM   13  S   UNL     1       7.174  32.819  62.464  1.00  0.00    -0.074 SA
HETATM   14  C   UNL     1       7.508  31.979  60.051  1.00  0.00    -0.033 A 
HETATM   15  C   UNL     1       8.170  32.130  61.264  1.00  0.00    -0.012 A 
HETATM   16  C   UNL     1       8.149  31.392  58.831  1.00  0.00     0.050 C 
HETATM   17  C   UNL     1       9.581  31.771  61.608  1.00  0.00     0.057 C 
BRANCH   9  18
HETATM   18  C   UNL     1       2.410  34.062  61.327  1.00  0.00     0.076 C 
HETATM   19  C   UNL     1       2.419  34.491  62.785  1.00  0.00     0.013 C 
ENDBRANCH   9  18
ENDBRANCH   6   7
ENDBRANCH   5   6
ENDBRANCH   1   5
BRANCH   2  20
HETATM   20  C   UNL     1       5.017  27.335  55.404  1.00  0.00     0.173 A 
HETATM   21  S   UNL     1       4.515  27.703  53.817  1.00  0.00    -0.061 SA
HETATM   22  C   UNL     1       5.298  26.277  53.263  1.00  0.00     0.085 A 
HETATM   23  C   UNL     1       5.898  25.621  54.324  1.00  0.00     0.076 A 
HETATM   24  N   UNL     1       5.718  26.244  55.552  1.00  0.00    -0.223 NA
BRANCH  23  25
HETATM   25  C   UNL     1       6.656  24.374  54.227  1.00  0.00    -0.007 A 
HETATM   26  C   UNL     1       7.075  23.838  52.998  1.00  0.00     0.017 A 
HETATM   27  C   UNL     1       7.804  22.644  52.953  1.00  0.00     0.043 A 
HETATM   28  C   UNL     1       8.117  21.983  54.135  1.00  0.00     0.116 A 
HETATM   29  F   UNL     1       8.815  20.842  54.087  1.00  0.00    -0.206 F 
HETATM   30  C   UNL     1       7.719  22.493  55.362  1.00  0.00     0.043 A 
HETATM   31  C   UNL     1       6.993  23.686  55.407  1.00  0.00     0.017 A 
ENDBRANCH  23  25
ENDBRANCH   2  20
TORSDOF 6
ENDMDL
MODEL 7
REMARK VINA RESULT:      -8.4      4.447     10.024
REMARK  6 active torsions:
REMARK  status: ('A' for Active; 'I' for Inactive)
REMARK    1  A    between atoms: C_2  and  C_3 
REMARK    2  A    between atoms: C_5  and  S_6 
REMARK    3  A    between atoms: S_6  and  C_7 
REMARK    4  A    between atoms: C_7  and  C_8 
REMARK       I    between atoms: C_8  and  N_9 
REMARK    5  A    between atoms: N_9  and  C_10 
REMARK    6  A    between atoms: C_13  and  C_14 
ROOT
HETATM    1  C   UNL     1       6.427  30.100  57.444  1.00  0.00     0.233 C 
HETATM    2  N   UNL     1       7.682  30.190  57.994  1.00  0.00    -0.305 N 
HETATM    3  O   UNL     1       5.416  30.662  57.865  1.00  0.00    -0.272 OA
HETATM    4  H   UNL     1       8.443  29.669  57.580  1.00  0.00     0.171 HD
ENDROOT
BRANCH   1   5
HETATM    5  C   UNL     1       6.323  29.233  56.193  1.00  0.00     0.184 C 
BRANCH   5   6
HETATM    6  S   UNL     1       4.904  28.081  56.196  1.00  0.00    -0.100 SA
BRANCH   6   7
HETATM    7  C   UNL     1       5.141  27.274  54.636  1.00  0.00     0.109 A 
HETATM    8  N   UNL     1       4.698  27.901  53.526  1.00  0.00    -0.226 NA
HETATM    9  C   UNL     1       4.859  27.312  52.331  1.00  0.00     0.128 A 
HETATM   10  N   UNL     1       5.425  26.123  52.122  1.00  0.00    -0.225 NA
HETATM   11  C   UNL     1       5.859  25.531  53.246  1.00  0.00     0.113 A 
HETATM   12  C   UNL     1       5.770  26.018  54.542  1.00  0.00     0.042 A 
HETATM   13  S   UNL     1       6.610  24.013  53.146  1.00  0.00    -0.074 SA
HETATM   14  C   UNL     1       6.366  25.071  55.482  1.00  0.00    -0.033 A 
HETATM   15  C   UNL     1       6.851  23.942  54.832  1.00  0.00    -0.012 A 
HETATM   16  C   UNL     1       6.455  25.268  56.965  1.00  0.00     0.050 C 
HETATM   17  C   UNL     1       7.525  22.743  55.420  1.00  0.00     0.057 C 
BRANCH   9  18
HETATM   18  C   UNL     1       4.321  28.040  51.129  1.00  0.00     0.076 C 
HETATM   19  C   UNL     1       5.314  28.012  49.979  1.00  0.00     0.013 C 
ENDBRANCH   9  18
ENDBRANCH   6   7
ENDBRANCH   5   6
ENDBRANCH   1   5
BRANCH   2  20
HETATM   20  C   UNL     1       7.963  30.938  59.100  1.00  0.00     0.173 A 
HETATM   21  S   UNL     1       9.544  31.574  59.128  1.00  0.00    -0.061 SA
HETATM   22  C   UNL     1       9.197  32.309  60.642  1.00  0.00     0.085 A 
HETATM   23  C   UNL     1       7.896  32.029  61.019  1.00  0.00     0.076 A 
HETATM   24  N   UNL     1       7.203  31.230  60.119  1.00  0.00    -0.223 NA
BRANCH  23  25
HETATM   25  C   UNL     1       7.253  32.492  62.249  1.00  0.00    -0.007 A 
HETATM   26  C   UNL     1       5.868  32.702  62.345  1.00  0.00     0.017 A 
HETATM   27  C   UNL     1       5.295  33.140  63.544  1.00  0.00     0.043 A 
HETATM   28  C   UNL     1       6.103  33.369  64.651  1.00  0.00     0.116 A 
HETATM   29  F   UNL     1       5.551  33.788  65.796  1.00  0.00    -0.206 F 
HETATM   30  C   UNL     1       7.474  33.166  64.584  1.00  0.00     0.043 A 
HETATM   31  C   UNL     1       8.046  32.727  63.387  1.00  0.00     0.017 A 
ENDBRANCH  23  25
ENDBRANCH   2  20
TORSDOF 6
ENDMDL
MODEL 8
REMARK VINA RESULT:      -8.4      3.345      5.745
REMARK  6 active torsions:
REMARK  status: ('A' for Active; 'I' for Inactive)
REMARK    1  A    between atoms: C_2  and  C_3 
REMARK    2  A    between atoms: C_5  and  S_6 
REMARK    3  A    between atoms: S_6  and  C_7 
REMARK    4  A    between atoms: C_7  and  C_8 
REMARK       I    between atoms: C_8  and  N_9 
REMARK    5  A    between atoms: N_9  and  C_10 
REMARK    6  A    between atoms: C_13  and  C_14 
ROOT
HETATM    1  C   UNL     1       7.979  32.015  59.781  1.00  0.00     0.233 C 
HETATM    2  N   UNL     1       8.950  31.047  59.710  1.00  0.00    -0.305 N 
HETATM    3  O   UNL     1       7.114  32.230  58.932  1.00  0.00    -0.272 OA
HETATM    4  H   UNL     1       9.628  30.970  60.455  1.00  0.00     0.171 HD
ENDROOT
BRANCH   1   5
HETATM    5  C   UNL     1       7.997  32.865  61.048  1.00  0.00     0.184 C 
BRANCH   5   6
HETATM    6  S   UNL     1       7.278  32.040  62.513  1.00  0.00    -0.100 SA
BRANCH   6   7
HETATM    7  C   UNL     1       5.671  32.787  62.547  1.00  0.00     0.109 A 
HETATM    8  N   UNL     1       4.881  32.637  61.462  1.00  0.00    -0.226 NA
HETATM    9  C   UNL     1       3.661  33.195  61.457  1.00  0.00     0.128 A 
HETATM   10  N   UNL     1       3.134  33.917  62.447  1.00  0.00    -0.225 NA
HETATM   11  C   UNL     1       3.944  34.041  63.510  1.00  0.00     0.113 A 
HETATM   12  C   UNL     1       5.219  33.517  63.662  1.00  0.00     0.042 A 
HETATM   13  S   UNL     1       3.413  34.927  64.856  1.00  0.00    -0.074 SA
HETATM   14  C   UNL     1       5.763  33.875  64.971  1.00  0.00    -0.033 A 
HETATM   15  C   UNL     1       4.866  34.646  65.703  1.00  0.00    -0.012 A 
HETATM   16  C   UNL     1       7.113  33.475  65.483  1.00  0.00     0.050 C 
HETATM   17  C   UNL     1       5.031  35.218  67.075  1.00  0.00     0.057 C 
BRANCH   9  18
HETATM   18  C   UNL     1       2.833  33.023  60.213  1.00  0.00     0.076 C 
HETATM   19  C   UNL     1       3.575  33.526  58.985  1.00  0.00     0.013 C 
ENDBRANCH   9  18
ENDBRANCH   6   7
ENDBRANCH   5   6
ENDBRANCH   1   5
BRANCH   2  20
HETATM   20  C   UNL     1       9.070  30.183  58.661  1.00  0.00     0.173 A 
HETATM   21  S   UNL     1      10.386  30.516  57.630  1.00  0.00    -0.061 SA
HETATM   22  C   UNL     1       9.938  29.169  56.661  1.00  0.00     0.085 A 
HETATM   23  C   UNL     1       8.822  28.550  57.195  1.00  0.00     0.076 A 
HETATM   24  N   UNL     1       8.331  29.155  58.344  1.00  0.00    -0.223 NA
BRANCH  23  25
HETATM   25  C   UNL     1       8.162  27.369  56.638  1.00  0.00    -0.007 A 
HETATM   26  C   UNL     1       7.453  27.401  55.426  1.00  0.00     0.017 A 
HETATM   27  C   UNL     1       6.842  26.245  54.927  1.00  0.00     0.043 A 
HETATM   28  C   UNL     1       6.939  25.054  55.635  1.00  0.00     0.116 A 
HETATM   29  F   UNL     1       6.354  23.951  55.154  1.00  0.00    -0.206 F 
HETATM   30  C   UNL     1       7.638  24.993  56.832  1.00  0.00     0.043 A 
HETATM   31  C   UNL     1       8.249  26.147  57.330  1.00  0.00     0.017 A 
ENDBRANCH  23  25
ENDBRANCH   2  20
TORSDOF 6
ENDMDL
MODEL 9
REMARK VINA RESULT:      -8.4      7.520     10.104
REMARK  6 active torsions:
REMARK  status: ('A' for Active; 'I' for Inactive)
REMARK    1  A    between atoms: C_2  and  C_3 
REMARK    2  A    between atoms: C_5  and  S_6 
REMARK    3  A    between atoms: S_6  and  C_7 
REMARK    4  A    between atoms: C_7  and  C_8 
REMARK       I    between atoms: C_8  and  N_9 
REMARK    5  A    between atoms: N_9  and  C_10 
REMARK    6  A    between atoms: C_13  and  C_14 
ROOT
HETATM    1  C   UNL     1       5.245  26.980  50.662  1.00  0.00     0.233 C 
HETATM    2  N   UNL     1       5.883  27.246  51.848  1.00  0.00    -0.305 N 
HETATM    3  O   UNL     1       4.782  25.891  50.323  1.00  0.00    -0.272 OA
HETATM    4  H   UNL     1       6.246  28.174  52.019  1.00  0.00     0.171 HD
ENDROOT
BRANCH   1   5
HETATM    5  C   UNL     1       5.101  28.170  49.718  1.00  0.00     0.184 C 
BRANCH   5   6
HETATM    6  S   UNL     1       4.799  27.709  47.974  1.00  0.00    -0.100 SA
BRANCH   6   7
HETATM    7  C   UNL     1       3.996  29.176  47.388  1.00  0.00     0.109 A 
HETATM    8  N   UNL     1       4.716  30.318  47.349  1.00  0.00    -0.226 NA
HETATM    9  C   UNL     1       4.132  31.446  46.915  1.00  0.00     0.128 A 
HETATM   10  N   UNL     1       2.867  31.559  46.511  1.00  0.00    -0.225 NA
HETATM   11  C   UNL     1       2.184  30.405  46.557  1.00  0.00     0.113 A 
HETATM   12  C   UNL     1       2.651  29.167  46.973  1.00  0.00     0.042 A 
HETATM   13  S   UNL     1       0.559  30.384  46.068  1.00  0.00    -0.074 SA
HETATM   14  C   UNL     1       1.594  28.163  46.866  1.00  0.00    -0.033 A 
HETATM   15  C   UNL     1       0.411  28.716  46.389  1.00  0.00    -0.012 A 
HETATM   16  C   UNL     1       1.741  26.714  47.220  1.00  0.00     0.050 C 
HETATM   17  C   UNL     1      -0.900  28.041  46.139  1.00  0.00     0.057 C 
BRANCH   9  18
HETATM   18  C   UNL     1       4.970  32.696  46.920  1.00  0.00     0.076 C 
HETATM   19  C   UNL     1       5.850  32.773  45.684  1.00  0.00     0.013 C 
ENDBRANCH   9  18
ENDBRANCH   6   7
ENDBRANCH   5   6
ENDBRANCH   1   5
BRANCH   2  20
HETATM   20  C   UNL     1       6.080  26.308  52.819  1.00  0.00     0.173 A 
HETATM   21  S   UNL     1       5.429  26.728  54.337  1.00  0.00    -0.061 SA
HETATM   22  C   UNL     1       6.005  25.238  54.971  1.00  0.00     0.085 A 
HETATM   23  C   UNL     1       6.646  24.516  53.980  1.00  0.00     0.076 A 
HETATM   24  N   UNL     1       6.686  25.154  52.747  1.00  0.00    -0.223 NA
BRANCH  23  25
HETATM   25  C   UNL     1       7.260  23.200  54.155  1.00  0.00    -0.007 A 
HETATM   26  C   UNL     1       7.424  22.604  55.416  1.00  0.00     0.017 A 
HETATM   27  C   UNL     1       8.012  21.340  55.537  1.00  0.00     0.043 A 
HETATM   28  C   UNL     1       8.436  20.666  54.398  1.00  0.00     0.116 A 
HETATM   29  F   UNL     1       8.997  19.457  54.518  1.00  0.00    -0.206 F 
HETATM   30  C   UNL     1       8.282  21.230  53.140  1.00  0.00     0.043 A 
HETATM   31  C   UNL     1       7.694  22.492  53.019  1.00  0.00     0.017 A 
ENDBRANCH  23  25
ENDBRANCH   2  20
TORSDOF 6
ENDMDL
MODEL 10
REMARK VINA RESULT:      -8.4      6.070      9.162
REMARK  6 active torsions:
REMARK  status: ('A' for Active; 'I' for Inactive)
REMARK    1  A    between atoms: C_2  and  C_3 
REMARK    2  A    between atoms: C_5  and  S_6 
REMARK    3  A    between atoms: S_6  and  C_7 
REMARK    4  A    between atoms: C_7  and  C_8 
REMARK       I    between atoms: C_8  and  N_9 
REMARK    5  A    between atoms: N_9  and  C_10 
REMARK    6  A    between atoms: C_13  and  C_14 
ROOT
HETATM    1  C   UNL     1       4.725  28.474  53.076  1.00  0.00     0.233 C 
HETATM    2  N   UNL     1       6.015  28.017  52.955  1.00  0.00    -0.305 N 
HETATM    3  O   UNL     1       3.881  28.045  53.862  1.00  0.00    -0.272 OA
HETATM    4  H   UNL     1       6.622  28.427  52.259  1.00  0.00     0.171 HD
ENDROOT
BRANCH   1   5
HETATM    5  C   UNL     1       4.352  29.628  52.150  1.00  0.00     0.184 C 
BRANCH   5   6
HETATM    6  S   UNL     1       5.319  29.686  50.599  1.00  0.00    -0.100 SA
BRANCH   6   7
HETATM    7  C   UNL     1       4.009  29.693  49.404  1.00  0.00     0.109 A 
HETATM    8  N   UNL     1       3.480  30.885  49.053  1.00  0.00    -0.226 NA
HETATM    9  C   UNL     1       2.484  30.921  48.154  1.00  0.00     0.128 A 
HETATM   10  N   UNL     1       1.938  29.860  47.559  1.00  0.00    -0.225 NA
HETATM   11  C   UNL     1       2.491  28.695  47.927  1.00  0.00     0.113 A 
HETATM   12  C   UNL     1       3.525  28.502  48.832  1.00  0.00     0.042 A 
HETATM   13  S   UNL     1       1.908  27.251  47.251  1.00  0.00    -0.074 SA
HETATM   14  C   UNL     1       3.837  27.079  48.951  1.00  0.00    -0.033 A 
HETATM   15  C   UNL     1       3.016  26.306  48.138  1.00  0.00    -0.012 A 
HETATM   16  C   UNL     1       4.904  26.501  49.831  1.00  0.00     0.050 C 
HETATM   17  C   UNL     1       3.004  24.820  47.967  1.00  0.00     0.057 C 
BRANCH   9  18
HETATM   18  C   UNL     1       1.911  32.271  47.820  1.00  0.00     0.076 C 
HETATM   19  C   UNL     1       0.948  32.185  46.648  1.00  0.00     0.013 C 
ENDBRANCH   9  18
ENDBRANCH   6   7
ENDBRANCH   5   6
ENDBRANCH   1   5
BRANCH   2  20
HETATM   20  C   UNL     1       6.526  27.008  53.717  1.00  0.00     0.173 A 
HETATM   21  S   UNL     1       6.952  27.477  55.300  1.00  0.00    -0.061 SA
HETATM   22  C   UNL     1       7.461  25.866  55.616  1.00  0.00     0.085 A 
HETATM   23  C   UNL     1       7.262  25.077  54.497  1.00  0.00     0.076 A 
HETATM   24  N   UNL     1       6.729  25.756  53.409  1.00  0.00    -0.223 NA
BRANCH  23  25
HETATM   25  C   UNL     1       7.577  23.652  54.401  1.00  0.00    -0.007 A 
HETATM   26  C   UNL     1       7.777  23.004  53.171  1.00  0.00     0.017 A 
HETATM   27  C   UNL     1       8.082  21.638  53.126  1.00  0.00     0.043 A 
HETATM   28  C   UNL     1       8.191  20.918  54.309  1.00  0.00     0.116 A 
HETATM   29  F   UNL     1       8.484  19.613  54.261  1.00  0.00    -0.206 F 
HETATM   30  C   UNL     1       8.002  21.534  55.537  1.00  0.00     0.043 A 
HETATM   31  C   UNL     1       7.699  22.898  55.582  1.00  0.00     0.017 A 
ENDBRANCH  23  25
ENDBRANCH   2  20
TORSDOF 6
ENDMDL
