MODEL 1
REMARK VINA RESULT:      -9.3      0.000      0.000
REMARK  6 active torsions:
REMARK  status: ('A' for Active; 'I' for Inactive)
REMARK    1  A    between atoms: O_2  and  C_3 
REMARK    2  A    between atoms: C_3  and  C_4 
REMARK    3  A    between atoms: C_4  and  N_5 
REMARK       I    between atoms: N_5  and  C_6 
REMARK    4  A    between atoms: C_6  and  C_7 
REMARK    5  A    between atoms: C_12  and  C_13 
REMARK    6  A    between atoms: C_21  and  C_22 
ROOT
HETATM    1  C   UNL     1       7.578  29.677  58.072  1.00  0.00     0.170 A 
HETATM    2  N   UNL     1       6.277  29.326  57.901  1.00  0.00    -0.163 NA
HETATM    3  N   UNL     1       6.328  28.364  56.968  1.00  0.00    -0.238 N 
HETATM    4  C   UNL     1       7.592  28.034  56.566  1.00  0.00     0.145 A 
HETATM    5  N   UNL     1       7.805  27.037  55.669  1.00  0.00    -0.365 N 
HETATM    6  C   UNL     1       6.691  26.454  54.927  1.00  0.00     0.118 C 
HETATM    7  C   UNL     1       5.458  26.363  55.846  1.00  0.00     0.066 C 
HETATM    8  C   UNL     1       5.121  27.733  56.462  1.00  0.00     0.221 C 
HETATM    9  C   UNL     1       8.431  28.878  57.257  1.00  0.00     0.115 A 
HETATM   10 CL   UNL     1      10.123  28.937  57.147  1.00  0.00    -0.077 Cl
HETATM   11  H   UNL     1       8.722  26.944  55.230  1.00  0.00     0.162 HD
ENDROOT
BRANCH   1  12
HETATM   12  C   UNL     1       7.952  30.754  59.003  1.00  0.00     0.273 C 
HETATM   13  N   UNL     1       8.284  30.293  60.257  1.00  0.00    -0.353 N 
HETATM   14  H   UNL     1       8.383  29.284  60.348  1.00  0.00     0.162 HD
HETATM   15  O   UNL     1       7.967  31.943  58.701  1.00  0.00    -0.266 OA
BRANCH  13  16
HETATM   16  C   UNL     1       8.853  31.140  61.284  1.00  0.00     0.149 C 
BRANCH  16  17
HETATM   17  C   UNL     1       7.805  31.543  62.319  1.00  0.00     0.186 C 
BRANCH  17  18
HETATM   18  O   UNL     1       8.380  32.490  63.225  1.00  0.00    -0.394 OA
HETATM   19  C   UNL     1       7.416  32.975  64.152  1.00  0.00     0.201 C 
ENDBRANCH  17  18
ENDBRANCH  16  17
ENDBRANCH  13  16
ENDBRANCH   1  12
BRANCH   8  20
HETATM   20  C   UNL     1       4.440  28.652  55.470  1.00  0.00     0.409 C 
HETATM   21  F   UNL     1       3.789  27.983  54.494  1.00  0.00    -0.169 F 
HETATM   22  F   UNL     1       3.509  29.410  56.106  1.00  0.00    -0.169 F 
HETATM   23  F   UNL     1       5.295  29.513  54.880  1.00  0.00    -0.169 F 
ENDBRANCH   8  20
BRANCH   6  24
HETATM   24  C   UNL     1       7.070  25.083  54.394  1.00  0.00    -0.035 A 
HETATM   25  C   UNL     1       7.453  24.891  53.056  1.00  0.00     0.011 A 
HETATM   26  C   UNL     1       7.819  23.625  52.593  1.00  0.00     0.024 A 
HETATM   27  C   UNL     1       7.813  22.540  53.465  1.00  0.00     0.034 A 
HETATM   28 CL   UNL     1       8.266  20.981  52.898  1.00  0.00    -0.084 Cl
HETATM   29  C   UNL     1       7.444  22.711  54.797  1.00  0.00     0.024 A 
HETATM   30  C   UNL     1       7.075  23.976  55.260  1.00  0.00     0.011 A 
ENDBRANCH   6  24
TORSDOF 6
ENDMDL
MODEL 2
REMARK VINA RESULT:      -9.3      1.077      1.111
REMARK  6 active torsions:
REMARK  status: ('A' for Active; 'I' for Inactive)
REMARK    1  A    between atoms: O_2  and  C_3 
REMARK    2  A    between atoms: C_3  and  C_4 
REMARK    3  A    between atoms: C_4  and  N_5 
REMARK       I    between atoms: N_5  and  C_6 
REMARK    4  A    between atoms: C_6  and  C_7 
REMARK    5  A    between atoms: C_12  and  C_13 
REMARK    6  A    between atoms: C_21  and  C_22 
ROOT
HETATM    1  C   UNL     1       8.603  30.146  58.194  1.00  0.00     0.170 A 
HETATM    2  N   UNL     1       7.304  29.783  58.350  1.00  0.00    -0.163 NA
HETATM    3  N   UNL     1       7.128  28.830  57.422  1.00  0.00    -0.238 N 
HETATM    4  C   UNL     1       8.253  28.520  56.711  1.00  0.00     0.145 A 
HETATM    5  N   UNL     1       8.242  27.534  55.777  1.00  0.00    -0.365 N 
HETATM    6  C   UNL     1       6.983  26.946  55.331  1.00  0.00     0.118 C 
HETATM    7  C   UNL     1       6.021  26.832  56.527  1.00  0.00     0.066 C 
HETATM    8  C   UNL     1       5.837  28.192  57.226  1.00  0.00     0.221 C 
HETATM    9  C   UNL     1       9.232  29.366  57.181  1.00  0.00     0.115 A 
HETATM   10 CL   UNL     1      10.842  29.444  56.651  1.00  0.00    -0.077 Cl
HETATM   11  H   UNL     1       9.021  27.456  55.121  1.00  0.00     0.162 HD
ENDROOT
BRANCH   1  12
HETATM   12  C   UNL     1       9.189  31.218  59.015  1.00  0.00     0.273 C 
HETATM   13  N   UNL     1       8.827  31.141  60.342  1.00  0.00    -0.353 N 
HETATM   14  H   UNL     1       8.342  30.292  60.621  1.00  0.00     0.162 HD
HETATM   15  O   UNL     1       9.925  32.094  58.572  1.00  0.00    -0.266 OA
BRANCH  13  16
HETATM   16  C   UNL     1       9.417  31.973  61.370  1.00  0.00     0.149 C 
BRANCH  16  17
HETATM   17  C   UNL     1       8.492  32.105  62.578  1.00  0.00     0.186 C 
BRANCH  17  18
HETATM   18  O   UNL     1       7.354  31.256  62.393  1.00  0.00    -0.394 OA
HETATM   19  C   UNL     1       6.150  31.907  62.781  1.00  0.00     0.201 C 
ENDBRANCH  17  18
ENDBRANCH  16  17
ENDBRANCH  13  16
ENDBRANCH   1  12
BRANCH   8  20
HETATM   20  C   UNL     1       4.922  29.113  56.447  1.00  0.00     0.409 C 
HETATM   21  F   UNL     1       4.005  28.446  55.713  1.00  0.00    -0.169 F 
HETATM   22  F   UNL     1       4.227  29.906  57.305  1.00  0.00    -0.169 F 
HETATM   23  F   UNL     1       5.592  29.941  55.619  1.00  0.00    -0.169 F 
ENDBRANCH   8  20
BRANCH   6  24
HETATM   24  C   UNL     1       7.228  25.585  54.702  1.00  0.00    -0.035 A 
HETATM   25  C   UNL     1       7.666  25.454  53.373  1.00  0.00     0.011 A 
HETATM   26  C   UNL     1       7.906  24.192  52.823  1.00  0.00     0.024 A 
HETATM   27  C   UNL     1       7.717  23.050  53.598  1.00  0.00     0.034 A 
HETATM   28 CL   UNL     1       8.015  21.497  52.922  1.00  0.00    -0.084 Cl
HETATM   29  C   UNL     1       7.291  23.160  54.919  1.00  0.00     0.024 A 
HETATM   30  C   UNL     1       7.048  24.422  55.469  1.00  0.00     0.011 A 
ENDBRANCH   6  24
TORSDOF 6
ENDMDL
MODEL 3
REMARK VINA RESULT:      -8.4      2.445      3.108
REMARK  6 active torsions:
REMARK  status: ('A' for Active; 'I' for Inactive)
REMARK    1  A    between atoms: O_2  and  C_3 
REMARK    2  A    between atoms: C_3  and  C_4 
REMARK    3  A    between atoms: C_4  and  N_5 
REMARK       I    between atoms: N_5  and  C_6 
REMARK    4  A    between atoms: C_6  and  C_7 
REMARK    5  A    between atoms: C_12  and  C_13 
REMARK    6  A    between atoms: C_21  and  C_22 
ROOT
HETATM    1  C   UNL     1       5.610  29.457  55.572  1.00  0.00     0.170 A 
HETATM    2  N   UNL     1       4.707  28.925  54.708  1.00  0.00    -0.163 NA
HETATM    3  N   UNL     1       5.264  27.759  54.347  1.00  0.00    -0.238 N 
HETATM    4  C   UNL     1       6.449  27.483  54.970  1.00  0.00     0.145 A 
HETATM    5  N   UNL     1       7.101  26.312  54.748  1.00  0.00    -0.365 N 
HETATM    6  C   UNL     1       6.689  25.425  53.664  1.00  0.00     0.118 C 
HETATM    7  C   UNL     1       5.154  25.443  53.546  1.00  0.00     0.066 C 
HETATM    8  C   UNL     1       4.625  26.879  53.384  1.00  0.00     0.221 C 
HETATM    9  C   UNL     1       6.710  28.574  55.767  1.00  0.00     0.115 A 
HETATM   10 CL   UNL     1       8.064  28.797  56.765  1.00  0.00    -0.077 Cl
HETATM   11  H   UNL     1       8.070  26.212  55.054  1.00  0.00     0.162 HD
ENDROOT
BRANCH   1  12
HETATM   12  C   UNL     1       5.386  30.782  56.174  1.00  0.00     0.273 C 
HETATM   13  N   UNL     1       5.506  30.779  57.546  1.00  0.00    -0.353 N 
HETATM   14  H   UNL     1       5.878  29.926  57.957  1.00  0.00     0.162 HD
HETATM   15  O   UNL     1       5.119  31.790  55.527  1.00  0.00    -0.266 OA
BRANCH  13  16
HETATM   16  C   UNL     1       5.506  31.989  58.340  1.00  0.00     0.149 C 
BRANCH  16  17
HETATM   17  C   UNL     1       6.656  31.995  59.345  1.00  0.00     0.186 C 
BRANCH  17  18
HETATM   18  O   UNL     1       7.887  31.771  58.650  1.00  0.00    -0.394 OA
HETATM   19  C   UNL     1       9.004  31.870  59.526  1.00  0.00     0.201 C 
ENDBRANCH  17  18
ENDBRANCH  16  17
ENDBRANCH  13  16
ENDBRANCH   1  12
BRANCH   8  20
HETATM   20  C   UNL     1       4.840  27.410  51.982  1.00  0.00     0.409 C 
HETATM   21  F   UNL     1       4.908  26.432  51.053  1.00  0.00    -0.169 F 
HETATM   22  F   UNL     1       3.800  28.210  51.626  1.00  0.00    -0.169 F 
HETATM   23  F   UNL     1       5.955  28.163  51.872  1.00  0.00    -0.169 F 
ENDBRANCH   8  20
BRANCH   6  24
HETATM   24  C   UNL     1       7.197  24.015  53.913  1.00  0.00    -0.035 A 
HETATM   25  C   UNL     1       7.642  23.194  52.864  1.00  0.00     0.011 A 
HETATM   26  C   UNL     1       8.125  21.909  53.119  1.00  0.00     0.024 A 
HETATM   27  C   UNL     1       8.174  21.434  54.427  1.00  0.00     0.034 A 
HETATM   28 CL   UNL     1       8.771  19.852  54.743  1.00  0.00    -0.084 Cl
HETATM   29  C   UNL     1       7.745  22.235  55.482  1.00  0.00     0.024 A 
HETATM   30  C   UNL     1       7.259  23.520  55.227  1.00  0.00     0.011 A 
ENDBRANCH   6  24
TORSDOF 6
ENDMDL
MODEL 4
REMARK VINA RESULT:      -8.4      5.875      9.597
REMARK  6 active torsions:
REMARK  status: ('A' for Active; 'I' for Inactive)
REMARK    1  A    between atoms: O_2  and  C_3 
REMARK    2  A    between atoms: C_3  and  C_4 
REMARK    3  A    between atoms: C_4  and  N_5 
REMARK       I    between atoms: N_5  and  C_6 
REMARK    4  A    between atoms: C_6  and  C_7 
REMARK    5  A    between atoms: C_12  and  C_13 
REMARK    6  A    between atoms: C_21  and  C_22 
ROOT
HETATM    1  C   UNL     1       5.183  26.989  50.375  1.00  0.00     0.170 A 
HETATM    2  N   UNL     1       5.361  25.881  51.138  1.00  0.00    -0.163 NA
HETATM    3  N   UNL     1       5.962  26.350  52.242  1.00  0.00    -0.238 N 
HETATM    4  C   UNL     1       6.132  27.706  52.258  1.00  0.00     0.145 A 
HETATM    5  N   UNL     1       6.675  28.331  53.335  1.00  0.00    -0.365 N 
HETATM    6  C   UNL     1       7.311  27.562  54.400  1.00  0.00     0.118 C 
HETATM    7  C   UNL     1       6.522  26.259  54.629  1.00  0.00     0.066 C 
HETATM    8  C   UNL     1       6.369  25.464  53.319  1.00  0.00     0.221 C 
HETATM    9  C   UNL     1       5.646  28.154  51.051  1.00  0.00     0.115 A 
HETATM   10 CL   UNL     1       5.614  29.761  50.507  1.00  0.00    -0.077 Cl
HETATM   11  H   UNL     1       6.981  29.302  53.250  1.00  0.00     0.162 HD
ENDROOT
BRANCH   1  12
HETATM   12  C   UNL     1       4.579  26.892  49.035  1.00  0.00     0.273 C 
HETATM   13  N   UNL     1       3.345  26.279  49.042  1.00  0.00    -0.353 N 
HETATM   14  H   UNL     1       2.937  26.112  49.960  1.00  0.00     0.162 HD
HETATM   15  O   UNL     1       5.112  27.310  48.013  1.00  0.00    -0.266 OA
BRANCH  13  16
HETATM   16  C   UNL     1       2.483  26.228  47.881  1.00  0.00     0.149 C 
BRANCH  16  17
HETATM   17  C   UNL     1       1.602  27.473  47.787  1.00  0.00     0.186 C 
BRANCH  17  18
HETATM   18  O   UNL     1       0.267  27.079  47.454  1.00  0.00    -0.394 OA
HETATM   19  C   UNL     1      -0.217  27.787  46.319  1.00  0.00     0.201 C 
ENDBRANCH  17  18
ENDBRANCH  16  17
ENDBRANCH  13  16
ENDBRANCH   1  12
BRANCH   8  20
HETATM   20  C   UNL     1       7.645  24.744  52.937  1.00  0.00     0.409 C 
HETATM   21  F   UNL     1       8.430  25.468  52.109  1.00  0.00    -0.169 F 
HETATM   22  F   UNL     1       8.384  24.493  54.049  1.00  0.00    -0.169 F 
HETATM   23  F   UNL     1       7.418  23.550  52.351  1.00  0.00    -0.169 F 
ENDBRANCH   8  20
BRANCH   6  24
HETATM   24  C   UNL     1       7.382  28.382  55.676  1.00  0.00    -0.035 A 
HETATM   25  C   UNL     1       8.422  28.215  56.605  1.00  0.00     0.011 A 
HETATM   26  C   UNL     1       8.479  28.997  57.761  1.00  0.00     0.024 A 
HETATM   27  C   UNL     1       7.499  29.958  57.997  1.00  0.00     0.034 A 
HETATM   28 CL   UNL     1       7.570  30.923  59.419  1.00  0.00    -0.084 Cl
HETATM   29  C   UNL     1       6.464  30.144  57.085  1.00  0.00     0.024 A 
HETATM   30  C   UNL     1       6.405  29.361  55.929  1.00  0.00     0.011 A 
ENDBRANCH   6  24
TORSDOF 6
ENDMDL
MODEL 5
REMARK VINA RESULT:      -8.3      5.100     10.744
REMARK  6 active torsions:
REMARK  status: ('A' for Active; 'I' for Inactive)
REMARK    1  A    between atoms: O_2  and  C_3 
REMARK    2  A    between atoms: C_3  and  C_4 
REMARK    3  A    between atoms: C_4  and  N_5 
REMARK       I    between atoms: N_5  and  C_6 
REMARK    4  A    between atoms: C_6  and  C_7 
REMARK    5  A    between atoms: C_12  and  C_13 
REMARK    6  A    between atoms: C_21  and  C_22 
ROOT
HETATM    1  C   UNL     1       7.180  31.881  60.293  1.00  0.00     0.170 A 
HETATM    2  N   UNL     1       6.133  32.741  60.204  1.00  0.00    -0.163 NA
HETATM    3  N   UNL     1       5.800  32.968  61.484  1.00  0.00    -0.238 N 
HETATM    4  C   UNL     1       6.608  32.346  62.395  1.00  0.00     0.145 A 
HETATM    5  N   UNL     1       6.429  32.528  63.729  1.00  0.00    -0.365 N 
HETATM    6  C   UNL     1       5.231  33.192  64.235  1.00  0.00     0.118 C 
HETATM    7  C   UNL     1       4.838  34.334  63.280  1.00  0.00     0.066 C 
HETATM    8  C   UNL     1       4.680  33.823  61.836  1.00  0.00     0.221 C 
HETATM    9  C   UNL     1       7.511  31.621  61.653  1.00  0.00     0.115 A 
HETATM   10 CL   UNL     1       8.752  30.631  62.255  1.00  0.00    -0.077 Cl
HETATM   11  H   UNL     1       6.899  31.906  64.388  1.00  0.00     0.162 HD
ENDROOT
BRANCH   1  12
HETATM   12  C   UNL     1       7.820  31.346  59.079  1.00  0.00     0.273 C 
HETATM   13  N   UNL     1       7.193  30.222  58.589  1.00  0.00    -0.353 N 
HETATM   14  H   UNL     1       6.299  29.990  59.015  1.00  0.00     0.162 HD
HETATM   15  O   UNL     1       8.809  31.844  58.552  1.00  0.00    -0.266 OA
BRANCH  13  16
HETATM   16  C   UNL     1       7.528  29.625  57.314  1.00  0.00     0.149 C 
BRANCH  16  17
HETATM   17  C   UNL     1       8.809  28.798  57.405  1.00  0.00     0.186 C 
BRANCH  17  18
HETATM   18  O   UNL     1       9.750  29.284  56.442  1.00  0.00    -0.394 OA
HETATM   19  C   UNL     1      10.992  29.618  57.051  1.00  0.00     0.201 C 
ENDBRANCH  17  18
ENDBRANCH  16  17
ENDBRANCH  13  16
ENDBRANCH   1  12
BRANCH   8  20
HETATM   20  C   UNL     1       3.380  33.072  61.637  1.00  0.00     0.409 C 
HETATM   21  F   UNL     1       3.506  31.741  61.829  1.00  0.00    -0.169 F 
HETATM   22  F   UNL     1       2.455  33.505  62.534  1.00  0.00    -0.169 F 
HETATM   23  F   UNL     1       2.845  33.264  60.413  1.00  0.00    -0.169 F 
ENDBRANCH   8  20
BRANCH   6  24
HETATM   24  C   UNL     1       5.472  33.719  65.639  1.00  0.00    -0.035 A 
HETATM   25  C   UNL     1       4.409  34.054  66.495  1.00  0.00     0.011 A 
HETATM   26  C   UNL     1       4.654  34.517  67.790  1.00  0.00     0.024 A 
HETATM   27  C   UNL     1       5.964  34.642  68.245  1.00  0.00     0.034 A 
HETATM   28 CL   UNL     1       6.267  35.208  69.840  1.00  0.00    -0.084 Cl
HETATM   29  C   UNL     1       7.031  34.308  67.415  1.00  0.00     0.024 A 
HETATM   30  C   UNL     1       6.787  33.848  66.118  1.00  0.00     0.011 A 
ENDBRANCH   6  24
TORSDOF 6
ENDMDL
MODEL 6
REMARK VINA RESULT:      -8.3      5.601      8.179
REMARK  6 active torsions:
REMARK  status: ('A' for Active; 'I' for Inactive)
REMARK    1  A    between atoms: O_2  and  C_3 
REMARK    2  A    between atoms: C_3  and  C_4 
REMARK    3  A    between atoms: C_4  and  N_5 
REMARK       I    between atoms: N_5  and  C_6 
REMARK    4  A    between atoms: C_6  and  C_7 
REMARK    5  A    between atoms: C_12  and  C_13 
REMARK    6  A    between atoms: C_21  and  C_22 
ROOT
HETATM    1  C   UNL     1       5.294  28.452  50.619  1.00  0.00     0.170 A 
HETATM    2  N   UNL     1       5.920  28.882  51.745  1.00  0.00    -0.163 NA
HETATM    3  N   UNL     1       6.124  27.755  52.443  1.00  0.00    -0.238 N 
HETATM    4  C   UNL     1       5.714  26.616  51.808  1.00  0.00     0.145 A 
HETATM    5  N   UNL     1       5.908  25.394  52.368  1.00  0.00    -0.365 N 
HETATM    6  C   UNL     1       6.334  25.271  53.759  1.00  0.00     0.118 C 
HETATM    7  C   UNL     1       7.334  26.395  54.087  1.00  0.00     0.066 C 
HETATM    8  C   UNL     1       6.746  27.779  53.756  1.00  0.00     0.221 C 
HETATM    9  C   UNL     1       5.159  27.034  50.621  1.00  0.00     0.115 A 
HETATM   10 CL   UNL     1       4.466  26.049  49.426  1.00  0.00    -0.077 Cl
HETATM   11  H   UNL     1       5.420  24.583  51.985  1.00  0.00     0.162 HD
ENDROOT
BRANCH   1  12
HETATM   12  C   UNL     1       4.854  29.409  49.590  1.00  0.00     0.273 C 
HETATM   13  N   UNL     1       3.554  29.203  49.182  1.00  0.00    -0.353 N 
HETATM   14  H   UNL     1       3.016  28.539  49.733  1.00  0.00     0.162 HD
HETATM   15  O   UNL     1       5.564  30.300  49.137  1.00  0.00    -0.266 OA
BRANCH  13  16
HETATM   16  C   UNL     1       2.845  30.122  48.317  1.00  0.00     0.149 C 
BRANCH  16  17
HETATM   17  C   UNL     1       2.352  29.425  47.050  1.00  0.00     0.186 C 
BRANCH  17  18
HETATM   18  O   UNL     1       2.461  28.008  47.221  1.00  0.00    -0.394 OA
HETATM   19  C   UNL     1       1.259  27.345  46.848  1.00  0.00     0.201 C 
ENDBRANCH  17  18
ENDBRANCH  16  17
ENDBRANCH  13  16
ENDBRANCH   1  12
BRANCH   8  20
HETATM   20  C   UNL     1       5.740  28.233  54.792  1.00  0.00     0.409 C 
HETATM   21  F   UNL     1       4.470  27.905  54.473  1.00  0.00    -0.169 F 
HETATM   22  F   UNL     1       6.005  27.637  55.985  1.00  0.00    -0.169 F 
HETATM   23  F   UNL     1       5.780  29.563  55.014  1.00  0.00    -0.169 F 
ENDBRANCH   8  20
BRANCH   6  24
HETATM   24  C   UNL     1       6.953  23.906  54.005  1.00  0.00    -0.035 A 
HETATM   25  C   UNL     1       7.393  23.093  52.947  1.00  0.00     0.011 A 
HETATM   26  C   UNL     1       7.979  21.851  53.198  1.00  0.00     0.024 A 
HETATM   27  C   UNL     1       8.138  21.412  54.511  1.00  0.00     0.034 A 
HETATM   28 CL   UNL     1       8.862  19.883  54.822  1.00  0.00    -0.084 Cl
HETATM   29  C   UNL     1       7.715  22.206  55.573  1.00  0.00     0.024 A 
HETATM   30  C   UNL     1       7.126  23.448  55.323  1.00  0.00     0.011 A 
ENDBRANCH   6  24
TORSDOF 6
ENDMDL
MODEL 7
REMARK VINA RESULT:      -8.2      3.995      9.220
REMARK  6 active torsions:
REMARK  status: ('A' for Active; 'I' for Inactive)
REMARK    1  A    between atoms: O_2  and  C_3 
REMARK    2  A    between atoms: C_3  and  C_4 
REMARK    3  A    between atoms: C_4  and  N_5 
REMARK       I    between atoms: N_5  and  C_6 
REMARK    4  A    between atoms: C_6  and  C_7 
REMARK    5  A    between atoms: C_12  and  C_13 
REMARK    6  A    between atoms: C_21  and  C_22 
ROOT
HETATM    1  C   UNL     1       7.433  27.975  56.634  1.00  0.00     0.170 A 
HETATM    2  N   UNL     1       8.720  28.172  57.017  1.00  0.00    -0.163 NA
HETATM    3  N   UNL     1       8.641  29.195  57.882  1.00  0.00    -0.238 N 
HETATM    4  C   UNL     1       7.368  29.634  58.120  1.00  0.00     0.145 A 
HETATM    5  N   UNL     1       7.126  30.625  59.016  1.00  0.00    -0.365 N 
HETATM    6  C   UNL     1       8.223  31.414  59.569  1.00  0.00     0.118 C 
HETATM    7  C   UNL     1       9.443  30.502  59.797  1.00  0.00     0.066 C 
HETATM    8  C   UNL     1       9.827  29.753  58.507  1.00  0.00     0.221 C 
HETATM    9  C   UNL     1       6.557  28.868  57.315  1.00  0.00     0.115 A 
HETATM   10 CL   UNL     1       4.869  28.982  57.179  1.00  0.00    -0.077 Cl
HETATM   11  H   UNL     1       6.210  31.076  59.030  1.00  0.00     0.162 HD
ENDROOT
BRANCH   1  12
HETATM   12  C   UNL     1       7.092  26.946  55.638  1.00  0.00     0.273 C 
HETATM   13  N   UNL     1       7.173  25.664  56.136  1.00  0.00    -0.353 N 
HETATM   14  H   UNL     1       7.300  25.587  57.143  1.00  0.00     0.162 HD
HETATM   15  O   UNL     1       6.770  27.195  54.481  1.00  0.00    -0.266 OA
BRANCH  13  16
HETATM   16  C   UNL     1       6.715  24.503  55.404  1.00  0.00     0.149 C 
BRANCH  16  17
HETATM   17  C   UNL     1       7.864  23.826  54.658  1.00  0.00     0.186 C 
BRANCH  17  18
HETATM   18  O   UNL     1       7.474  22.495  54.305  1.00  0.00    -0.394 OA
HETATM   19  C   UNL     1       8.431  21.883  53.448  1.00  0.00     0.201 C 
ENDBRANCH  17  18
ENDBRANCH  16  17
ENDBRANCH  13  16
ENDBRANCH   1  12
BRANCH   8  20
HETATM   20  C   UNL     1      10.552  30.648  57.524  1.00  0.00     0.409 C 
HETATM   21  F   UNL     1      10.482  31.956  57.852  1.00  0.00    -0.169 F 
HETATM   22  F   UNL     1      11.873  30.327  57.495  1.00  0.00    -0.169 F 
HETATM   23  F   UNL     1      10.099  30.514  56.260  1.00  0.00    -0.169 F 
ENDBRANCH   8  20
BRANCH   6  24
HETATM   24  C   UNL     1       7.796  32.080  60.865  1.00  0.00    -0.035 A 
HETATM   25  C   UNL     1       8.552  31.958  62.043  1.00  0.00     0.011 A 
HETATM   26  C   UNL     1       8.151  32.597  63.218  1.00  0.00     0.024 A 
HETATM   27  C   UNL     1       6.994  33.372  63.225  1.00  0.00     0.034 A 
HETATM   28 CL   UNL     1       6.500  34.163  64.670  1.00  0.00    -0.084 Cl
HETATM   29  C   UNL     1       6.235  33.512  62.066  1.00  0.00     0.024 A 
HETATM   30  C   UNL     1       6.634  32.870  60.891  1.00  0.00     0.011 A 
ENDBRANCH   6  24
TORSDOF 6
ENDMDL
MODEL 8
REMARK VINA RESULT:      -8.1      4.194      5.386
REMARK  6 active torsions:
REMARK  status: ('A' for Active; 'I' for Inactive)
REMARK    1  A    between atoms: O_2  and  C_3 
REMARK    2  A    between atoms: C_3  and  C_4 
REMARK    3  A    between atoms: C_4  and  N_5 
REMARK       I    between atoms: N_5  and  C_6 
REMARK    4  A    between atoms: C_6  and  C_7 
REMARK    5  A    between atoms: C_12  and  C_13 
REMARK    6  A    between atoms: C_21  and  C_22 
ROOT
HETATM    1  C   UNL     1       7.367  27.883  55.958  1.00  0.00     0.170 A 
HETATM    2  N   UNL     1       7.801  26.786  55.286  1.00  0.00    -0.163 NA
HETATM    3  N   UNL     1       7.001  26.737  54.210  1.00  0.00    -0.238 N 
HETATM    4  C   UNL     1       6.112  27.771  54.121  1.00  0.00     0.145 A 
HETATM    5  N   UNL     1       5.276  27.887  53.056  1.00  0.00    -0.365 N 
HETATM    6  C   UNL     1       5.130  26.793  52.102  1.00  0.00     0.118 C 
HETATM    7  C   UNL     1       6.496  26.114  51.891  1.00  0.00     0.066 C 
HETATM    8  C   UNL     1       7.110  25.669  53.231  1.00  0.00     0.221 C 
HETATM    9  C   UNL     1       6.315  28.531  55.250  1.00  0.00     0.115 A 
HETATM   10 CL   UNL     1       5.478  29.942  55.685  1.00  0.00    -0.077 Cl
HETATM   11  H   UNL     1       4.489  28.537  53.104  1.00  0.00     0.162 HD
ENDROOT
BRANCH   1  12
HETATM   12  C   UNL     1       7.973  28.266  57.244  1.00  0.00     0.273 C 
HETATM   13  N   UNL     1       8.662  29.457  57.182  1.00  0.00    -0.353 N 
HETATM   14  H   UNL     1       8.544  29.995  56.326  1.00  0.00     0.162 HD
HETATM   15  O   UNL     1       7.880  27.599  58.269  1.00  0.00    -0.266 OA
BRANCH  13  16
HETATM   16  C   UNL     1       9.189  30.125  58.353  1.00  0.00     0.149 C 
BRANCH  16  17
HETATM   17  C   UNL     1      10.277  31.130  57.980  1.00  0.00     0.186 C 
BRANCH  17  18
HETATM   18  O   UNL     1      10.075  32.337  58.722  1.00  0.00    -0.394 OA
HETATM   19  C   UNL     1       9.338  32.098  59.914  1.00  0.00     0.201 C 
ENDBRANCH  17  18
ENDBRANCH  16  17
ENDBRANCH  13  16
ENDBRANCH   1  12
BRANCH   8  20
HETATM   20  C   UNL     1       6.455  24.413  53.767  1.00  0.00     0.409 C 
HETATM   21  F   UNL     1       5.420  24.672  54.596  1.00  0.00    -0.169 F 
HETATM   22  F   UNL     1       5.953  23.679  52.740  1.00  0.00    -0.169 F 
HETATM   23  F   UNL     1       7.319  23.610  54.424  1.00  0.00    -0.169 F 
ENDBRANCH   8  20
BRANCH   6  24
HETATM   24  C   UNL     1       4.573  27.308  50.786  1.00  0.00    -0.035 A 
HETATM   25  C   UNL     1       4.693  26.573  49.595  1.00  0.00     0.011 A 
HETATM   26  C   UNL     1       4.153  27.057  48.401  1.00  0.00     0.024 A 
HETATM   27  C   UNL     1       3.482  28.278  48.388  1.00  0.00     0.034 A 
HETATM   28 CL   UNL     1       2.814  28.873  46.919  1.00  0.00    -0.084 Cl
HETATM   29  C   UNL     1       3.346  29.017  49.560  1.00  0.00     0.024 A 
HETATM   30  C   UNL     1       3.888  28.535  50.754  1.00  0.00     0.011 A 
ENDBRANCH   6  24
TORSDOF 6
ENDMDL
MODEL 9
REMARK VINA RESULT:      -8.1      4.702     10.089
REMARK  6 active torsions:
REMARK  status: ('A' for Active; 'I' for Inactive)
REMARK    1  A    between atoms: O_2  and  C_3 
REMARK    2  A    between atoms: C_3  and  C_4 
REMARK    3  A    between atoms: C_4  and  N_5 
REMARK       I    between atoms: N_5  and  C_6 
REMARK    4  A    between atoms: C_6  and  C_7 
REMARK    5  A    between atoms: C_12  and  C_13 
REMARK    6  A    between atoms: C_21  and  C_22 
ROOT
HETATM    1  C   UNL     1       6.155  31.092  58.073  1.00  0.00     0.170 A 
HETATM    2  N   UNL     1       7.247  30.607  58.719  1.00  0.00    -0.163 NA
HETATM    3  N   UNL     1       7.242  31.266  59.888  1.00  0.00    -0.238 N 
HETATM    4  C   UNL     1       6.179  32.108  60.056  1.00  0.00     0.145 A 
HETATM    5  N   UNL     1       6.009  32.800  61.213  1.00  0.00    -0.365 N 
HETATM    6  C   UNL     1       7.073  32.853  62.211  1.00  0.00     0.118 C 
HETATM    7  C   UNL     1       7.788  31.490  62.269  1.00  0.00     0.066 C 
HETATM    8  C   UNL     1       8.287  31.063  60.877  1.00  0.00     0.221 C 
HETATM    9  C   UNL     1       5.456  32.028  58.888  1.00  0.00     0.115 A 
HETATM   10 CL   UNL     1       4.033  32.875  58.519  1.00  0.00    -0.077 Cl
HETATM   11  H   UNL     1       5.337  33.568  61.244  1.00  0.00     0.162 HD
ENDROOT
BRANCH   1  12
HETATM   12  C   UNL     1       5.825  30.643  56.711  1.00  0.00     0.273 C 
HETATM   13  N   UNL     1       6.154  29.325  56.482  1.00  0.00    -0.353 N 
HETATM   14  H   UNL     1       6.431  28.788  57.301  1.00  0.00     0.162 HD
HETATM   15  O   UNL     1       5.311  31.362  55.860  1.00  0.00    -0.266 OA
BRANCH  13  16
HETATM   16  C   UNL     1       5.764  28.611  55.284  1.00  0.00     0.149 C 
BRANCH  16  17
HETATM   17  C   UNL     1       6.984  28.161  54.483  1.00  0.00     0.186 C 
BRANCH  17  18
HETATM   18  O   UNL     1       7.114  26.739  54.586  1.00  0.00    -0.394 OA
HETATM   19  C   UNL     1       5.844  26.105  54.665  1.00  0.00     0.201 C 
ENDBRANCH  17  18
ENDBRANCH  16  17
ENDBRANCH  13  16
ENDBRANCH   1  12
BRANCH   8  20
HETATM   20  C   UNL     1       9.536  31.814  60.465  1.00  0.00     0.409 C 
HETATM   21  F   UNL     1      10.353  32.088  61.505  1.00  0.00    -0.169 F 
HETATM   22  F   UNL     1      10.259  31.064  59.593  1.00  0.00    -0.169 F 
HETATM   23  F   UNL     1       9.265  32.976  59.835  1.00  0.00    -0.169 F 
ENDBRANCH   8  20
BRANCH   6  24
HETATM   24  C   UNL     1       6.506  33.226  63.570  1.00  0.00    -0.035 A 
HETATM   25  C   UNL     1       7.339  33.496  64.668  1.00  0.00     0.011 A 
HETATM   26  C   UNL     1       6.796  33.858  65.903  1.00  0.00     0.024 A 
HETATM   27  C   UNL     1       5.414  33.961  66.049  1.00  0.00     0.034 A 
HETATM   28 CL   UNL     1       4.744  34.410  67.568  1.00  0.00    -0.084 Cl
HETATM   29  C   UNL     1       4.573  33.705  64.970  1.00  0.00     0.024 A 
HETATM   30  C   UNL     1       5.115  33.340  63.735  1.00  0.00     0.011 A 
ENDBRANCH   6  24
TORSDOF 6
ENDMDL
MODEL 10
REMARK VINA RESULT:      -8.0      5.602      7.391
REMARK  6 active torsions:
REMARK  status: ('A' for Active; 'I' for Inactive)
REMARK    1  A    between atoms: O_2  and  C_3 
REMARK    2  A    between atoms: C_3  and  C_4 
REMARK    3  A    between atoms: C_4  and  N_5 
REMARK       I    between atoms: N_5  and  C_6 
REMARK    4  A    between atoms: C_6  and  C_7 
REMARK    5  A    between atoms: C_12  and  C_13 
REMARK    6  A    between atoms: C_21  and  C_22 
ROOT
HETATM    1  C   UNL     1       5.410  28.678  50.842  1.00  0.00     0.170 A 
HETATM    2  N   UNL     1       5.982  29.065  52.010  1.00  0.00    -0.163 NA
HETATM    3  N   UNL     1       6.174  27.911  52.667  1.00  0.00    -0.238 N 
HETATM    4  C   UNL     1       5.809  26.796  51.966  1.00  0.00     0.145 A 
HETATM    5  N   UNL     1       5.997  25.552  52.479  1.00  0.00    -0.365 N 
HETATM    6  C   UNL     1       6.367  25.374  53.880  1.00  0.00     0.118 C 
HETATM    7  C   UNL     1       7.336  26.495  54.299  1.00  0.00     0.066 C 
HETATM    8  C   UNL     1       6.741  27.884  54.004  1.00  0.00     0.221 C 
HETATM    9  C   UNL     1       5.296  27.259  50.776  1.00  0.00     0.115 A 
HETATM   10 CL   UNL     1       4.668  26.319  49.510  1.00  0.00    -0.077 Cl
HETATM   11  H   UNL     1       5.538  24.753  52.040  1.00  0.00     0.162 HD
ENDROOT
BRANCH   1  12
HETATM   12  C   UNL     1       4.998  29.673  49.838  1.00  0.00     0.273 C 
HETATM   13  N   UNL     1       5.745  30.829  49.887  1.00  0.00    -0.353 N 
HETATM   14  H   UNL     1       6.570  30.801  50.482  1.00  0.00     0.162 HD
HETATM   15  O   UNL     1       4.084  29.500  49.039  1.00  0.00    -0.266 OA
BRANCH  13  16
HETATM   16  C   UNL     1       5.647  31.874  48.890  1.00  0.00     0.149 C 
BRANCH  16  17
HETATM   17  C   UNL     1       5.952  33.246  49.488  1.00  0.00     0.186 C 
BRANCH  17  18
HETATM   18  O   UNL     1       6.237  34.167  48.430  1.00  0.00    -0.394 OA
HETATM   19  C   UNL     1       7.413  33.796  47.720  1.00  0.00     0.201 C 
ENDBRANCH  17  18
ENDBRANCH  16  17
ENDBRANCH  13  16
ENDBRANCH   1  12
BRANCH   8  20
HETATM   20  C   UNL     1       5.686  28.278  55.017  1.00  0.00     0.409 C 
HETATM   21  F   UNL     1       5.640  29.610  55.237  1.00  0.00    -0.169 F 
HETATM   22  F   UNL     1       4.456  27.919  54.565  1.00  0.00    -0.169 F 
HETATM   23  F   UNL     1       5.849  27.668  56.209  1.00  0.00    -0.169 F 
ENDBRANCH   8  20
BRANCH   6  24
HETATM   24  C   UNL     1       6.996  24.008  54.091  1.00  0.00    -0.035 A 
HETATM   25  C   UNL     1       7.102  23.433  55.369  1.00  0.00     0.011 A 
HETATM   26  C   UNL     1       7.665  22.165  55.537  1.00  0.00     0.024 A 
HETATM   27  C   UNL     1       8.120  21.457  54.427  1.00  0.00     0.034 A 
HETATM   28 CL   UNL     1       8.810  19.895  54.632  1.00  0.00    -0.084 Cl
HETATM   29  C   UNL     1       8.017  22.006  53.152  1.00  0.00     0.024 A 
HETATM   30  C   UNL     1       7.457  23.275  52.984  1.00  0.00     0.011 A 
ENDBRANCH   6  24
TORSDOF 6
ENDMDL
