MODEL 1
REMARK VINA RESULT:      -8.1      0.000      0.000
REMARK  2 active torsions:
REMARK  status: ('A' for Active; 'I' for Inactive)
REMARK    1  A    between atoms: C_3  and  N_4 
REMARK       I    between atoms: N_4  and  C_5 
REMARK       I    between atoms: C_5  and  N_6 
REMARK    2  A    between atoms: N_6  and  C_7 
ROOT
HETATM    1  N   UNL     1       8.108  30.306  59.868  1.00  0.00    -0.307 N 
HETATM    2  C   UNL     1       7.584  31.519  60.246  1.00  0.00     0.321 C 
HETATM    3  N   UNL     1       7.028  31.428  61.511  1.00  0.00    -0.338 N 
HETATM    4  O   UNL     1       7.532  32.551  59.591  1.00  0.00    -0.247 OA
HETATM    5  H   UNL     1       7.619  29.522  60.278  1.00  0.00     0.170 HD
HETATM    6  H   UNL     1       7.445  30.725  62.110  1.00  0.00     0.164 HD
ENDROOT
BRANCH   3   7
HETATM    7  C   UNL     1       6.337  32.545  62.155  1.00  0.00     0.090 C 
HETATM    8  C   UNL     1       4.910  32.162  62.582  1.00  0.00     0.058 C 
HETATM    9  C   UNL     1       4.254  33.121  63.577  1.00  0.00     0.190 C 
HETATM   10  N   UNL     1       5.223  33.336  64.714  1.00  0.00    -0.066 N 
HETATM   11  C   UNL     1       3.820  34.467  62.985  1.00  0.00     0.033 C 
HETATM   12  H   UNL     1       5.548  32.394  64.995  1.00  0.00     0.280 HD
HETATM   13  C   UNL     1       4.601  33.890  65.968  1.00  0.00     0.270 C 
HETATM   14  C   UNL     1       6.452  34.075  64.245  1.00  0.00     0.190 C 
HETATM   15  C   UNL     1       7.199  33.164  63.270  1.00  0.00     0.058 C 
HETATM   16  C   UNL     1       6.064  35.443  63.673  1.00  0.00     0.033 C 
HETATM   17  C   UNL     1       4.963  35.407  62.620  1.00  0.00     0.004 C 
ENDBRANCH   3   7
BRANCH   1  18
HETATM   18  C   UNL     1       8.808  30.017  58.672  1.00  0.00     0.059 A 
HETATM   19  C   UNL     1       8.457  29.057  57.714  1.00  0.00    -0.032 A 
HETATM   20  C   UNL     1       7.222  28.206  57.763  1.00  0.00     0.050 C 
HETATM   21  C   UNL     1       9.301  28.892  56.599  1.00  0.00     0.028 A 
HETATM   22  C   UNL     1      10.409  29.711  56.447  1.00  0.00     0.117 A 
HETATM   23  N   UNL     1      10.737  30.680  57.320  1.00  0.00    -0.271 NA
HETATM   24  C   UNL     1       9.931  30.809  58.398  1.00  0.00     0.146 A 
ENDBRANCH   1  18
TORSDOF 2
ENDMDL
MODEL 2
REMARK VINA RESULT:      -7.9     10.253     13.153
REMARK  2 active torsions:
REMARK  status: ('A' for Active; 'I' for Inactive)
REMARK    1  A    between atoms: C_3  and  N_4 
REMARK       I    between atoms: N_4  and  C_5 
REMARK       I    between atoms: C_5  and  N_6 
REMARK    2  A    between atoms: N_6  and  C_7 
ROOT
HETATM    1  N   UNL     1       6.797  25.460  52.168  1.00  0.00    -0.307 N 
HETATM    2  C   UNL     1       5.618  25.563  51.468  1.00  0.00     0.321 C 
HETATM    3  N   UNL     1       5.685  26.614  50.570  1.00  0.00    -0.338 N 
HETATM    4  O   UNL     1       4.602  24.895  51.607  1.00  0.00    -0.247 OA
HETATM    5  H   UNL     1       7.264  26.349  52.283  1.00  0.00     0.170 HD
HETATM    6  H   UNL     1       6.617  26.834  50.239  1.00  0.00     0.164 HD
ENDROOT
BRANCH   3   7
HETATM    7  C   UNL     1       4.556  27.009  49.728  1.00  0.00     0.090 C 
HETATM    8  C   UNL     1       3.953  28.351  50.176  1.00  0.00     0.058 C 
HETATM    9  C   UNL     1       3.030  29.019  49.154  1.00  0.00     0.190 C 
HETATM   10  N   UNL     1       3.760  29.056  47.834  1.00  0.00    -0.066 N 
HETATM   11  C   UNL     1       1.661  28.348  48.987  1.00  0.00     0.033 C 
HETATM   12  H   UNL     1       4.706  29.425  48.039  1.00  0.00     0.280 HD
HETATM   13  C   UNL     1       3.201  30.039  46.840  1.00  0.00     0.270 C 
HETATM   14  C   UNL     1       3.967  27.665  47.289  1.00  0.00     0.190 C 
HETATM   15  C   UNL     1       4.921  26.933  48.234  1.00  0.00     0.058 C 
HETATM   16  C   UNL     1       2.618  26.970  47.078  1.00  0.00     0.033 C 
HETATM   17  C   UNL     1       1.689  26.995  48.286  1.00  0.00     0.004 C 
ENDBRANCH   3   7
BRANCH   1  18
HETATM   18  C   UNL     1       7.133  24.477  53.130  1.00  0.00     0.059 A 
HETATM   19  C   UNL     1       6.707  24.439  54.464  1.00  0.00    -0.032 A 
HETATM   20  C   UNL     1       5.753  25.414  55.090  1.00  0.00     0.050 C 
HETATM   21  C   UNL     1       7.176  23.393  55.281  1.00  0.00     0.028 A 
HETATM   22  C   UNL     1       7.987  22.408  54.740  1.00  0.00     0.117 A 
HETATM   23  N   UNL     1       8.362  22.385  53.450  1.00  0.00    -0.271 NA
HETATM   24  C   UNL     1       7.925  23.410  52.683  1.00  0.00     0.146 A 
ENDBRANCH   1  18
TORSDOF 2
ENDMDL
MODEL 3
REMARK VINA RESULT:      -7.9      9.869     12.449
REMARK  2 active torsions:
REMARK  status: ('A' for Active; 'I' for Inactive)
REMARK    1  A    between atoms: C_3  and  N_4 
REMARK       I    between atoms: N_4  and  C_5 
REMARK       I    between atoms: C_5  and  N_6 
REMARK    2  A    between atoms: N_6  and  C_7 
ROOT
HETATM    1  N   UNL     1       5.910  24.378  53.518  1.00  0.00    -0.307 N 
HETATM    2  C   UNL     1       6.096  25.349  52.563  1.00  0.00     0.321 C 
HETATM    3  N   UNL     1       4.921  25.565  51.864  1.00  0.00    -0.338 N 
HETATM    4  O   UNL     1       7.133  25.936  52.281  1.00  0.00    -0.247 OA
HETATM    5  H   UNL     1       5.207  23.700  53.257  1.00  0.00     0.170 HD
HETATM    6  H   UNL     1       4.074  25.369  52.384  1.00  0.00     0.164 HD
ENDROOT
BRANCH   3   7
HETATM    7  C   UNL     1       4.827  26.499  50.742  1.00  0.00     0.090 C 
HETATM    8  C   UNL     1       4.193  25.841  49.505  1.00  0.00     0.058 C 
HETATM    9  C   UNL     1       3.717  26.816  48.427  1.00  0.00     0.190 C 
HETATM   10  N   UNL     1       2.864  27.863  49.100  1.00  0.00    -0.066 N 
HETATM   11  C   UNL     1       4.838  27.481  47.619  1.00  0.00     0.033 C 
HETATM   12  H   UNL     1       2.199  27.347  49.702  1.00  0.00     0.280 HD
HETATM   13  C   UNL     1       1.974  28.638  48.165  1.00  0.00     0.270 C 
HETATM   14  C   UNL     1       3.689  28.717  50.031  1.00  0.00     0.190 C 
HETATM   15  C   UNL     1       4.174  27.824  51.174  1.00  0.00     0.058 C 
HETATM   16  C   UNL     1       4.805  29.425  49.255  1.00  0.00     0.033 C 
HETATM   17  C   UNL     1       5.659  28.511  48.385  1.00  0.00     0.004 C 
ENDBRANCH   3   7
BRANCH   1  18
HETATM   18  C   UNL     1       6.859  23.923  54.466  1.00  0.00     0.059 A 
HETATM   19  C   UNL     1       7.777  22.879  54.290  1.00  0.00    -0.032 A 
HETATM   20  C   UNL     1       7.958  22.099  53.021  1.00  0.00     0.050 C 
HETATM   21  C   UNL     1       8.623  22.551  55.367  1.00  0.00     0.028 A 
HETATM   22  C   UNL     1       8.570  23.293  56.535  1.00  0.00     0.117 A 
HETATM   23  N   UNL     1       7.741  24.337  56.711  1.00  0.00    -0.271 NA
HETATM   24  C   UNL     1       6.917  24.625  55.678  1.00  0.00     0.146 A 
ENDBRANCH   1  18
TORSDOF 2
ENDMDL
MODEL 4
REMARK VINA RESULT:      -7.8     10.221     12.480
REMARK  2 active torsions:
REMARK  status: ('A' for Active; 'I' for Inactive)
REMARK    1  A    between atoms: C_3  and  N_4 
REMARK       I    between atoms: N_4  and  C_5 
REMARK       I    between atoms: C_5  and  N_6 
REMARK    2  A    between atoms: N_6  and  C_7 
ROOT
HETATM    1  N   UNL     1       6.193  24.048  53.181  1.00  0.00    -0.307 N 
HETATM    2  C   UNL     1       6.335  25.058  52.260  1.00  0.00     0.321 C 
HETATM    3  N   UNL     1       5.093  25.472  51.808  1.00  0.00    -0.338 N 
HETATM    4  O   UNL     1       7.374  25.531  51.818  1.00  0.00    -0.247 OA
HETATM    5  H   UNL     1       5.369  23.484  53.022  1.00  0.00     0.170 HD
HETATM    6  H   UNL     1       4.335  25.344  52.468  1.00  0.00     0.164 HD
ENDROOT
BRANCH   3   7
HETATM    7  C   UNL     1       4.927  26.493  50.774  1.00  0.00     0.090 C 
HETATM    8  C   UNL     1       4.219  25.932  49.529  1.00  0.00     0.058 C 
HETATM    9  C   UNL     1       3.673  26.988  48.565  1.00  0.00     0.190 C 
HETATM   10  N   UNL     1       2.860  27.969  49.373  1.00  0.00    -0.066 N 
HETATM   11  C   UNL     1       4.740  27.726  47.747  1.00  0.00     0.033 C 
HETATM   12  H   UNL     1       2.236  27.400  49.971  1.00  0.00     0.280 HD
HETATM   13  C   UNL     1       1.912  28.811  48.561  1.00  0.00     0.270 C 
HETATM   14  C   UNL     1       3.738  28.752  50.318  1.00  0.00     0.190 C 
HETATM   15  C   UNL     1       4.296  27.773  51.352  1.00  0.00     0.058 C 
HETATM   16  C   UNL     1       4.801  29.530  49.535  1.00  0.00     0.033 C 
HETATM   17  C   UNL     1       5.603  28.698  48.543  1.00  0.00     0.004 C 
ENDBRANCH   3   7
BRANCH   1  18
HETATM   18  C   UNL     1       7.227  23.407  53.907  1.00  0.00     0.059 A 
HETATM   19  C   UNL     1       7.547  23.614  55.255  1.00  0.00    -0.032 A 
HETATM   20  C   UNL     1       6.794  24.515  56.189  1.00  0.00     0.050 C 
HETATM   21  C   UNL     1       8.636  22.902  55.795  1.00  0.00     0.028 A 
HETATM   22  C   UNL     1       9.316  21.985  55.010  1.00  0.00     0.117 A 
HETATM   23  N   UNL     1       8.993  21.723  53.732  1.00  0.00    -0.271 NA
HETATM   24  C   UNL     1       7.961  22.431  53.220  1.00  0.00     0.146 A 
ENDBRANCH   1  18
TORSDOF 2
ENDMDL
MODEL 5
REMARK VINA RESULT:      -7.4      9.701     11.276
REMARK  2 active torsions:
REMARK  status: ('A' for Active; 'I' for Inactive)
REMARK    1  A    between atoms: C_3  and  N_4 
REMARK       I    between atoms: N_4  and  C_5 
REMARK       I    between atoms: C_5  and  N_6 
REMARK    2  A    between atoms: N_6  and  C_7 
ROOT
HETATM    1  N   UNL     1       7.713  23.691  53.701  1.00  0.00    -0.307 N 
HETATM    2  C   UNL     1       6.702  24.621  53.731  1.00  0.00     0.321 C 
HETATM    3  N   UNL     1       6.782  25.453  52.627  1.00  0.00    -0.338 N 
HETATM    4  O   UNL     1       5.855  24.782  54.600  1.00  0.00    -0.247 OA
HETATM    5  H   UNL     1       8.545  24.031  53.237  1.00  0.00     0.170 HD
HETATM    6  H   UNL     1       7.209  25.035  51.809  1.00  0.00     0.164 HD
ENDROOT
BRANCH   3   7
HETATM    7  C   UNL     1       5.876  26.581  52.418  1.00  0.00     0.090 C 
HETATM    8  C   UNL     1       6.441  27.884  53.009  1.00  0.00     0.058 C 
HETATM    9  C   UNL     1       5.759  29.164  52.524  1.00  0.00     0.190 C 
HETATM   10  N   UNL     1       5.713  29.115  51.016  1.00  0.00    -0.066 N 
HETATM   11  C   UNL     1       4.354  29.401  53.092  1.00  0.00     0.033 C 
HETATM   12  H   UNL     1       6.667  28.854  50.709  1.00  0.00     0.280 HD
HETATM   13  C   UNL     1       5.476  30.448  50.356  1.00  0.00     0.270 C 
HETATM   14  C   UNL     1       4.806  28.010  50.537  1.00  0.00     0.190 C 
HETATM   15  C   UNL     1       5.439  26.679  50.945  1.00  0.00     0.058 C 
HETATM   16  C   UNL     1       3.381  28.226  51.059  1.00  0.00     0.033 C 
HETATM   17  C   UNL     1       3.279  28.460  52.561  1.00  0.00     0.004 C 
ENDBRANCH   3   7
BRANCH   1  18
HETATM   18  C   UNL     1       7.928  22.638  54.623  1.00  0.00     0.059 A 
HETATM   19  C   UNL     1       7.959  21.268  54.328  1.00  0.00    -0.032 A 
HETATM   20  C   UNL     1       7.832  20.682  52.953  1.00  0.00     0.050 C 
HETATM   21  C   UNL     1       8.156  20.365  55.391  1.00  0.00     0.028 A 
HETATM   22  C   UNL     1       8.371  20.846  56.672  1.00  0.00     0.117 A 
HETATM   23  N   UNL     1       8.407  22.156  56.974  1.00  0.00    -0.271 NA
HETATM   24  C   UNL     1       8.191  23.010  55.948  1.00  0.00     0.146 A 
ENDBRANCH   1  18
TORSDOF 2
ENDMDL
MODEL 6
REMARK VINA RESULT:      -7.4      7.802     10.919
REMARK  2 active torsions:
REMARK  status: ('A' for Active; 'I' for Inactive)
REMARK    1  A    between atoms: C_3  and  N_4 
REMARK       I    between atoms: N_4  and  C_5 
REMARK       I    between atoms: C_5  and  N_6 
REMARK    2  A    between atoms: N_6  and  C_7 
ROOT
HETATM    1  N   UNL     1       5.522  26.784  50.281  1.00  0.00    -0.307 N 
HETATM    2  C   UNL     1       5.311  27.002  51.621  1.00  0.00     0.321 C 
HETATM    3  N   UNL     1       6.193  26.247  52.375  1.00  0.00    -0.338 N 
HETATM    4  O   UNL     1       4.453  27.703  52.141  1.00  0.00    -0.247 OA
HETATM    5  H   UNL     1       5.872  25.856  50.085  1.00  0.00     0.170 HD
HETATM    6  H   UNL     1       7.072  26.037  51.917  1.00  0.00     0.164 HD
ENDROOT
BRANCH   3   7
HETATM    7  C   UNL     1       6.167  26.223  53.837  1.00  0.00     0.090 C 
HETATM    8  C   UNL     1       6.130  24.786  54.383  1.00  0.00     0.058 C 
HETATM    9  C   UNL     1       6.473  24.648  55.867  1.00  0.00     0.190 C 
HETATM   10  N   UNL     1       7.765  25.390  56.110  1.00  0.00    -0.066 N 
HETATM   11  C   UNL     1       5.385  25.145  56.828  1.00  0.00     0.033 C 
HETATM   12  H   UNL     1       8.416  25.080  55.367  1.00  0.00     0.280 HD
HETATM   13  C   UNL     1       8.469  25.014  57.386  1.00  0.00     0.270 C 
HETATM   14  C   UNL     1       7.583  26.874  55.909  1.00  0.00     0.190 C 
HETATM   15  C   UNL     1       7.278  27.109  54.429  1.00  0.00     0.058 C 
HETATM   16  C   UNL     1       6.524  27.416  56.874  1.00  0.00     0.033 C 
HETATM   17  C   UNL     1       5.203  26.657  56.867  1.00  0.00     0.004 C 
ENDBRANCH   3   7
BRANCH   1  18
HETATM   18  C   UNL     1       4.860  27.415  49.200  1.00  0.00     0.059 A 
HETATM   19  C   UNL     1       3.929  26.825  48.335  1.00  0.00    -0.032 A 
HETATM   20  C   UNL     1       3.419  25.418  48.452  1.00  0.00     0.050 C 
HETATM   21  C   UNL     1       3.399  27.611  47.294  1.00  0.00     0.028 A 
HETATM   22  C   UNL     1       3.759  28.944  47.186  1.00  0.00     0.117 A 
HETATM   23  N   UNL     1       4.603  29.553  48.037  1.00  0.00    -0.271 NA
HETATM   24  C   UNL     1       5.123  28.780  49.017  1.00  0.00     0.146 A 
ENDBRANCH   1  18
TORSDOF 2
ENDMDL
MODEL 7
REMARK VINA RESULT:      -7.1      9.645     12.861
REMARK  2 active torsions:
REMARK  status: ('A' for Active; 'I' for Inactive)
REMARK    1  A    between atoms: C_3  and  N_4 
REMARK       I    between atoms: N_4  and  C_5 
REMARK       I    between atoms: C_5  and  N_6 
REMARK    2  A    between atoms: N_6  and  C_7 
ROOT
HETATM    1  N   UNL     1       3.435  26.684  48.943  1.00  0.00    -0.307 N 
HETATM    2  C   UNL     1       4.041  26.978  50.141  1.00  0.00     0.321 C 
HETATM    3  N   UNL     1       4.712  25.867  50.624  1.00  0.00    -0.338 N 
HETATM    4  O   UNL     1       3.991  28.026  50.770  1.00  0.00    -0.247 OA
HETATM    5  H   UNL     1       3.166  25.712  48.867  1.00  0.00     0.170 HD
HETATM    6  H   UNL     1       5.037  25.223  49.913  1.00  0.00     0.164 HD
ENDROOT
BRANCH   3   7
HETATM    7  C   UNL     1       5.402  25.858  51.914  1.00  0.00     0.090 C 
HETATM    8  C   UNL     1       4.646  25.019  52.958  1.00  0.00     0.058 C 
HETATM    9  C   UNL     1       5.458  24.645  54.199  1.00  0.00     0.190 C 
HETATM   10  N   UNL     1       6.765  24.053  53.730  1.00  0.00    -0.066 N 
HETATM   11  C   UNL     1       5.716  25.802  55.172  1.00  0.00     0.033 C 
HETATM   12  H   UNL     1       6.520  23.354  53.007  1.00  0.00     0.280 HD
HETATM   13  C   UNL     1       7.495  23.249  54.773  1.00  0.00     0.270 C 
HETATM   14  C   UNL     1       7.611  25.091  53.034  1.00  0.00     0.190 C 
HETATM   15  C   UNL     1       6.888  25.493  51.748  1.00  0.00     0.058 C 
HETATM   16  C   UNL     1       7.918  26.252  53.985  1.00  0.00     0.033 C 
HETATM   17  C   UNL     1       6.699  26.855  54.674  1.00  0.00     0.004 C 
ENDBRANCH   3   7
BRANCH   1  18
HETATM   18  C   UNL     1       2.707  27.574  48.116  1.00  0.00     0.059 A 
HETATM   19  C   UNL     1       3.221  28.685  47.435  1.00  0.00    -0.032 A 
HETATM   20  C   UNL     1       4.667  29.087  47.414  1.00  0.00     0.050 C 
HETATM   21  C   UNL     1       2.329  29.473  46.682  1.00  0.00     0.028 A 
HETATM   22  C   UNL     1       0.997  29.103  46.586  1.00  0.00     0.117 A 
HETATM   23  N   UNL     1       0.489  28.009  47.179  1.00  0.00    -0.271 NA
HETATM   24  C   UNL     1       1.352  27.276  47.919  1.00  0.00     0.146 A 
ENDBRANCH   1  18
TORSDOF 2
ENDMDL
MODEL 8
REMARK VINA RESULT:      -7.1      5.920      8.086
REMARK  2 active torsions:
REMARK  status: ('A' for Active; 'I' for Inactive)
REMARK    1  A    between atoms: C_3  and  N_4 
REMARK       I    between atoms: N_4  and  C_5 
REMARK       I    between atoms: C_5  and  N_6 
REMARK    2  A    between atoms: N_6  and  C_7 
ROOT
HETATM    1  N   UNL     1       7.579  25.800  54.962  1.00  0.00    -0.307 N 
HETATM    2  C   UNL     1       6.439  26.538  55.178  1.00  0.00     0.321 C 
HETATM    3  N   UNL     1       6.768  27.845  55.493  1.00  0.00    -0.338 N 
HETATM    4  O   UNL     1       5.279  26.148  55.164  1.00  0.00    -0.247 OA
HETATM    5  H   UNL     1       8.368  26.131  55.500  1.00  0.00     0.170 HD
HETATM    6  H   UNL     1       7.646  28.169  55.106  1.00  0.00     0.164 HD
ENDROOT
BRANCH   3   7
HETATM    7  C   UNL     1       5.764  28.853  55.837  1.00  0.00     0.090 C 
HETATM    8  C   UNL     1       6.308  29.875  56.849  1.00  0.00     0.058 C 
HETATM    9  C   UNL     1       5.481  31.156  56.982  1.00  0.00     0.190 C 
HETATM   10  N   UNL     1       5.247  31.696  55.593  1.00  0.00    -0.066 N 
HETATM   11  C   UNL     1       4.147  30.988  57.720  1.00  0.00     0.033 C 
HETATM   12  H   UNL     1       6.169  31.688  55.123  1.00  0.00     0.280 HD
HETATM   13  C   UNL     1       4.835  33.144  55.548  1.00  0.00     0.270 C 
HETATM   14  C   UNL     1       4.365  30.770  54.792  1.00  0.00     0.190 C 
HETATM   15  C   UNL     1       5.138  29.468  54.572  1.00  0.00     0.058 C 
HETATM   16  C   UNL     1       3.008  30.599  55.482  1.00  0.00     0.033 C 
HETATM   17  C   UNL     1       3.081  30.213  56.954  1.00  0.00     0.004 C 
ENDBRANCH   3   7
BRANCH   1  18
HETATM   18  C   UNL     1       7.652  24.443  54.563  1.00  0.00     0.059 A 
HETATM   19  C   UNL     1       7.751  23.966  53.250  1.00  0.00    -0.032 A 
HETATM   20  C   UNL     1       7.867  24.830  52.028  1.00  0.00     0.050 C 
HETATM   21  C   UNL     1       7.780  22.572  53.050  1.00  0.00     0.028 A 
HETATM   22  C   UNL     1       7.770  21.720  54.143  1.00  0.00     0.117 A 
HETATM   23  N   UNL     1       7.735  22.151  55.416  1.00  0.00    -0.271 NA
HETATM   24  C   UNL     1       7.683  23.491  55.591  1.00  0.00     0.146 A 
ENDBRANCH   1  18
TORSDOF 2
ENDMDL
MODEL 9
REMARK VINA RESULT:      -7.1      8.764     12.473
REMARK  2 active torsions:
REMARK  status: ('A' for Active; 'I' for Inactive)
REMARK    1  A    between atoms: C_3  and  N_4 
REMARK       I    between atoms: N_4  and  C_5 
REMARK       I    between atoms: C_5  and  N_6 
REMARK    2  A    between atoms: N_6  and  C_7 
ROOT
HETATM    1  N   UNL     1       3.598  26.613  49.317  1.00  0.00    -0.307 N 
HETATM    2  C   UNL     1       4.402  26.705  50.428  1.00  0.00     0.321 C 
HETATM    3  N   UNL     1       4.661  25.444  50.938  1.00  0.00    -0.338 N 
HETATM    4  O   UNL     1       4.818  27.720  50.972  1.00  0.00    -0.247 OA
HETATM    5  H   UNL     1       2.980  25.814  49.345  1.00  0.00     0.170 HD
HETATM    6  H   UNL     1       4.639  24.696  50.256  1.00  0.00     0.164 HD
ENDROOT
BRANCH   3   7
HETATM    7  C   UNL     1       5.440  25.228  52.157  1.00  0.00     0.090 C 
HETATM    8  C   UNL     1       6.914  25.625  51.970  1.00  0.00     0.058 C 
HETATM    9  C   UNL     1       7.710  25.787  53.266  1.00  0.00     0.190 C 
HETATM   10  N   UNL     1       6.918  26.690  54.180  1.00  0.00    -0.066 N 
HETATM   11  C   UNL     1       8.053  24.474  53.980  1.00  0.00     0.033 C 
HETATM   12  H   UNL     1       6.637  27.504  53.605  1.00  0.00     0.280 HD
HETATM   13  C   UNL     1       7.718  27.300  55.300  1.00  0.00     0.270 C 
HETATM   14  C   UNL     1       5.635  26.028  54.616  1.00  0.00     0.190 C 
HETATM   15  C   UNL     1       4.751  25.865  53.378  1.00  0.00     0.058 C 
HETATM   16  C   UNL     1       5.935  24.724  55.363  1.00  0.00     0.033 C 
HETATM   17  C   UNL     1       6.870  23.768  54.631  1.00  0.00     0.004 C 
ENDBRANCH   3   7
BRANCH   1  18
HETATM   18  C   UNL     1       3.165  27.677  48.489  1.00  0.00     0.059 A 
HETATM   19  C   UNL     1       3.954  28.402  47.586  1.00  0.00    -0.032 A 
HETATM   20  C   UNL     1       5.399  28.124  47.291  1.00  0.00     0.050 C 
HETATM   21  C   UNL     1       3.348  29.452  46.869  1.00  0.00     0.028 A 
HETATM   22  C   UNL     1       1.994  29.701  47.027  1.00  0.00     0.117 A 
HETATM   23  N   UNL     1       1.200  28.983  47.842  1.00  0.00    -0.271 NA
HETATM   24  C   UNL     1       1.801  27.995  48.541  1.00  0.00     0.146 A 
ENDBRANCH   1  18
TORSDOF 2
ENDMDL
MODEL 10
REMARK VINA RESULT:      -6.8      7.359     10.422
REMARK  2 active torsions:
REMARK  status: ('A' for Active; 'I' for Inactive)
REMARK    1  A    between atoms: C_3  and  N_4 
REMARK       I    between atoms: N_4  and  C_5 
REMARK       I    between atoms: C_5  and  N_6 
REMARK    2  A    between atoms: N_6  and  C_7 
ROOT
HETATM    1  N   UNL     1       4.922  28.114  50.379  1.00  0.00    -0.307 N 
HETATM    2  C   UNL     1       4.960  27.666  51.677  1.00  0.00     0.321 C 
HETATM    3  N   UNL     1       5.819  28.448  52.430  1.00  0.00    -0.338 N 
HETATM    4  O   UNL     1       4.388  26.694  52.153  1.00  0.00    -0.247 OA
HETATM    5  H   UNL     1       5.789  28.544  50.087  1.00  0.00     0.170 HD
HETATM    6  H   UNL     1       5.920  29.403  52.106  1.00  0.00     0.164 HD
ENDROOT
BRANCH   3   7
HETATM    7  C   UNL     1       6.113  28.175  53.836  1.00  0.00     0.090 C 
HETATM    8  C   UNL     1       7.627  28.136  54.104  1.00  0.00     0.058 C 
HETATM    9  C   UNL     1       8.025  28.229  55.579  1.00  0.00     0.190 C 
HETATM   10  N   UNL     1       7.302  29.411  56.175  1.00  0.00    -0.066 N 
HETATM   11  C   UNL     1       7.749  26.965  56.402  1.00  0.00     0.033 C 
HETATM   12  H   UNL     1       7.449  30.198  55.519  1.00  0.00     0.280 HD
HETATM   13  C   UNL     1       7.884  29.911  57.471  1.00  0.00     0.270 C 
HETATM   14  C   UNL     1       5.812  29.174  56.210  1.00  0.00     0.190 C 
HETATM   15  C   UNL     1       5.318  29.111  54.764  1.00  0.00     0.058 C 
HETATM   16  C   UNL     1       5.490  27.933  57.050  1.00  0.00     0.033 C 
HETATM   17  C   UNL     1       6.276  26.683  56.673  1.00  0.00     0.004 C 
ENDBRANCH   3   7
BRANCH   1  18
HETATM   18  C   UNL     1       4.118  27.611  49.327  1.00  0.00     0.059 A 
HETATM   19  C   UNL     1       2.769  27.909  49.095  1.00  0.00    -0.032 A 
HETATM   20  C   UNL     1       1.954  28.881  49.896  1.00  0.00     0.050 C 
HETATM   21  C   UNL     1       2.128  27.281  48.010  1.00  0.00     0.028 A 
HETATM   22  C   UNL     1       2.850  26.442  47.175  1.00  0.00     0.117 A 
HETATM   23  N   UNL     1       4.159  26.185  47.339  1.00  0.00    -0.271 NA
HETATM   24  C   UNL     1       4.755  26.775  48.399  1.00  0.00     0.146 A 
ENDBRANCH   1  18
TORSDOF 2
ENDMDL
