MODEL 1
REMARK VINA RESULT:     -10.7      0.000      0.000
REMARK  8 active torsions:
REMARK  status: ('A' for Active; 'I' for Inactive)
REMARK    1  A    between atoms: O_2  and  C_3 
REMARK    2  A    between atoms: C_6  and  C_7 
REMARK    3  A    between atoms: C_7  and  C_8 
REMARK    4  A    between atoms: C_8  and  C_9 
REMARK    5  A    between atoms: C_11  and  N_12 
REMARK       I    between atoms: N_12  and  C_13 
REMARK    6  A    between atoms: C_13  and  C_14 
REMARK    7  A    between atoms: C_18  and  C_19 
REMARK    8  A    between atoms: C_20  and  O_21 
ROOT
HETATM    1  N   UNL     1       8.072  28.437  58.063  1.00  0.00    -0.149 N 
HETATM    2  C   UNL     1       7.067  27.669  57.530  1.00  0.00     0.290 C 
HETATM    3  O   UNL     1       5.887  27.977  57.401  1.00  0.00    -0.265 OA
HETATM    4  H   UNL     1       8.996  28.034  58.123  1.00  0.00     0.188 HD
ENDROOT
BRANCH   1   5
HETATM    5  C   UNL     1       7.921  29.711  58.517  1.00  0.00     0.747 A 
HETATM    6  N   UNL     1       8.717  30.153  59.545  1.00  0.00    -0.046 NA
HETATM    7  C   UNL     1       8.331  31.399  59.726  1.00  0.00     0.140 A 
HETATM    8  N   UNL     1       7.348  31.684  58.823  1.00  0.00    -0.248 N 
HETATM    9  N   UNL     1       7.065  30.626  58.063  1.00  0.00     0.020 NA
HETATM   10  H   UNL     1       6.836  32.546  58.680  1.00  0.00     0.191 HD
BRANCH   7  11
HETATM   11  C   UNL     1       8.838  32.408  60.695  1.00  0.00     0.085 C 
BRANCH  11  12
HETATM   12  C   UNL     1       8.895  31.845  62.120  1.00  0.00     0.046 C 
BRANCH  12  13
HETATM   13  C   UNL     1       7.708  32.260  62.956  1.00  0.00    -0.058 A 
HETATM   14  C   UNL     1       7.887  33.081  64.077  1.00  0.00     0.010 A 
HETATM   15  C   UNL     1       6.793  33.498  64.843  1.00  0.00     0.037 A 
HETATM   16  C   UNL     1       5.504  33.101  64.494  1.00  0.00     0.068 A 
HETATM   17  C   UNL     1       5.324  32.263  63.391  1.00  0.00     0.037 A 
HETATM   18  C   UNL     1       6.416  31.845  62.625  1.00  0.00     0.010 A 
BRANCH  16  19
HETATM   19  O   UNL     1       4.353  33.452  65.146  1.00  0.00    -0.356 OA
HETATM   20  C   UNL     1       4.502  34.026  66.438  1.00  0.00     0.210 C 
ENDBRANCH  16  19
ENDBRANCH  12  13
ENDBRANCH  11  12
ENDBRANCH   7  11
ENDBRANCH   1   5
BRANCH   2  21
HETATM   21  C   UNL     1       7.540  26.340  57.102  1.00  0.00     0.147 A 
HETATM   22  N   UNL     1       8.353  25.570  57.850  1.00  0.00    -0.169 NA
HETATM   23  N   UNL     1       8.538  24.472  57.088  1.00  0.00    -0.277 N 
HETATM   24  H   UNL     1       9.140  23.728  57.431  1.00  0.00     0.189 HD
HETATM   25  C   UNL     1       7.866  24.477  55.890  1.00  0.00     0.065 A 
HETATM   26  C   UNL     1       7.219  25.698  55.880  1.00  0.00     0.071 A 
BRANCH  25  27
HETATM   27  C   UNL     1       7.897  23.371  54.915  1.00  0.00     0.025 A 
HETATM   28  C   UNL     1       7.959  22.006  55.287  1.00  0.00     0.080 A 
HETATM   29  C   UNL     1       7.974  21.015  54.291  1.00  0.00     0.037 A 
HETATM   30  C   UNL     1       7.935  21.359  52.939  1.00  0.00     0.003 A 
HETATM   31  C   UNL     1       7.876  22.693  52.564  1.00  0.00     0.001 A 
HETATM   32  C   UNL     1       7.857  23.687  53.543  1.00  0.00     0.016 A 
BRANCH  28  33
HETATM   33  O   UNL     1       7.995  21.723  56.633  1.00  0.00    -0.355 OA
HETATM   34  C   UNL     1       8.779  20.611  57.051  1.00  0.00     0.210 C 
ENDBRANCH  28  33
ENDBRANCH  25  27
ENDBRANCH   2  21
TORSDOF 8
ENDMDL
MODEL 2
REMARK VINA RESULT:     -10.6      1.501      2.297
REMARK  8 active torsions:
REMARK  status: ('A' for Active; 'I' for Inactive)
REMARK    1  A    between atoms: O_2  and  C_3 
REMARK    2  A    between atoms: C_6  and  C_7 
REMARK    3  A    between atoms: C_7  and  C_8 
REMARK    4  A    between atoms: C_8  and  C_9 
REMARK    5  A    between atoms: C_11  and  N_12 
REMARK       I    between atoms: N_12  and  C_13 
REMARK    6  A    between atoms: C_13  and  C_14 
REMARK    7  A    between atoms: C_18  and  C_19 
REMARK    8  A    between atoms: C_20  and  O_21 
ROOT
HETATM    1  N   UNL     1       8.384  28.559  57.509  1.00  0.00    -0.149 N 
HETATM    2  C   UNL     1       7.051  28.391  57.228  1.00  0.00     0.290 C 
HETATM    3  O   UNL     1       6.153  29.214  57.375  1.00  0.00    -0.265 OA
HETATM    4  H   UNL     1       9.004  27.776  57.356  1.00  0.00     0.188 HD
ENDROOT
BRANCH   1   5
HETATM    5  C   UNL     1       8.942  29.708  57.980  1.00  0.00     0.747 A 
HETATM    6  N   UNL     1       8.460  30.256  59.144  1.00  0.00    -0.046 NA
HETATM    7  C   UNL     1       9.208  31.327  59.318  1.00  0.00     0.140 A 
HETATM    8  N   UNL     1      10.110  31.396  58.295  1.00  0.00    -0.248 N 
HETATM    9  N   UNL     1       9.946  30.393  57.434  1.00  0.00     0.020 NA
HETATM   10  H   UNL     1      10.835  32.083  58.123  1.00  0.00     0.191 HD
BRANCH   7  11
HETATM   11  C   UNL     1       9.176  32.326  60.420  1.00  0.00     0.085 C 
BRANCH  11  12
HETATM   12  C   UNL     1       9.120  31.650  61.795  1.00  0.00     0.046 C 
BRANCH  12  13
HETATM   13  C   UNL     1       7.899  32.046  62.589  1.00  0.00    -0.058 A 
HETATM   14  C   UNL     1       6.626  31.629  62.180  1.00  0.00     0.010 A 
HETATM   15  C   UNL     1       5.488  31.964  62.922  1.00  0.00     0.037 A 
HETATM   16  C   UNL     1       5.611  32.717  64.088  1.00  0.00     0.068 A 
HETATM   17  C   UNL     1       6.877  33.154  64.486  1.00  0.00     0.037 A 
HETATM   18  C   UNL     1       8.015  32.822  63.745  1.00  0.00     0.010 A 
BRANCH  16  19
HETATM   19  O   UNL     1       4.585  33.094  64.911  1.00  0.00    -0.356 OA
HETATM   20  C   UNL     1       4.926  33.921  66.016  1.00  0.00     0.210 C 
ENDBRANCH  16  19
ENDBRANCH  12  13
ENDBRANCH  11  12
ENDBRANCH   7  11
ENDBRANCH   1   5
BRANCH   2  21
HETATM   21  C   UNL     1       6.751  27.045  56.709  1.00  0.00     0.147 A 
HETATM   22  N   UNL     1       5.499  26.568  56.574  1.00  0.00    -0.169 NA
HETATM   23  N   UNL     1       5.686  25.324  56.086  1.00  0.00    -0.277 N 
HETATM   24  H   UNL     1       4.876  24.736  55.908  1.00  0.00     0.189 HD
HETATM   25  C   UNL     1       6.996  24.975  55.872  1.00  0.00     0.065 A 
HETATM   26  C   UNL     1       7.706  26.086  56.286  1.00  0.00     0.071 A 
BRANCH  25  27
HETATM   27  C   UNL     1       7.433  23.680  55.316  1.00  0.00     0.025 A 
HETATM   28  C   UNL     1       7.311  23.339  53.947  1.00  0.00     0.080 A 
HETATM   29  C   UNL     1       7.762  22.086  53.501  1.00  0.00     0.037 A 
HETATM   30  C   UNL     1       8.324  21.170  54.390  1.00  0.00     0.003 A 
HETATM   31  C   UNL     1       8.447  21.493  55.734  1.00  0.00     0.001 A 
HETATM   32  C   UNL     1       8.005  22.735  56.189  1.00  0.00     0.016 A 
BRANCH  28  33
HETATM   33  O   UNL     1       6.749  24.281  53.114  1.00  0.00    -0.355 OA
HETATM   34  C   UNL     1       7.616  24.962  52.214  1.00  0.00     0.210 C 
ENDBRANCH  28  33
ENDBRANCH  25  27
ENDBRANCH   2  21
TORSDOF 8
ENDMDL
MODEL 3
REMARK VINA RESULT:      -9.9      1.808     11.797
REMARK  8 active torsions:
REMARK  status: ('A' for Active; 'I' for Inactive)
REMARK    1  A    between atoms: O_2  and  C_3 
REMARK    2  A    between atoms: C_6  and  C_7 
REMARK    3  A    between atoms: C_7  and  C_8 
REMARK    4  A    between atoms: C_8  and  C_9 
REMARK    5  A    between atoms: C_11  and  N_12 
REMARK       I    between atoms: N_12  and  C_13 
REMARK    6  A    between atoms: C_13  and  C_14 
REMARK    7  A    between atoms: C_18  and  C_19 
REMARK    8  A    between atoms: C_20  and  O_21 
ROOT
HETATM    1  N   UNL     1       7.982  29.794  59.265  1.00  0.00    -0.149 N 
HETATM    2  C   UNL     1       7.693  31.125  59.433  1.00  0.00     0.290 C 
HETATM    3  O   UNL     1       7.443  31.946  58.557  1.00  0.00    -0.265 OA
HETATM    4  H   UNL     1       8.191  29.245  60.087  1.00  0.00     0.188 HD
ENDROOT
BRANCH   1   5
HETATM    5  C   UNL     1       8.007  29.148  58.067  1.00  0.00     0.747 A 
HETATM    6  N   UNL     1       6.909  28.422  57.677  1.00  0.00    -0.046 NA
HETATM    7  C   UNL     1       7.251  27.949  56.496  1.00  0.00     0.140 A 
HETATM    8  N   UNL     1       8.505  28.396  56.196  1.00  0.00    -0.248 N 
HETATM    9  N   UNL     1       9.004  29.140  57.182  1.00  0.00     0.020 NA
HETATM   10  H   UNL     1       9.067  28.230  55.369  1.00  0.00     0.191 HD
BRANCH   7  11
HETATM   11  C   UNL     1       6.465  27.097  55.562  1.00  0.00     0.085 C 
BRANCH  11  12
HETATM   12  C   UNL     1       7.316  26.620  54.379  1.00  0.00     0.046 C 
BRANCH  12  13
HETATM   13  C   UNL     1       7.454  25.118  54.331  1.00  0.00    -0.058 A 
HETATM   14  C   UNL     1       7.288  24.356  55.495  1.00  0.00     0.010 A 
HETATM   15  C   UNL     1       7.384  22.961  55.459  1.00  0.00     0.037 A 
HETATM   16  C   UNL     1       7.643  22.309  54.255  1.00  0.00     0.068 A 
HETATM   17  C   UNL     1       7.832  23.067  53.098  1.00  0.00     0.037 A 
HETATM   18  C   UNL     1       7.738  24.461  53.131  1.00  0.00     0.010 A 
BRANCH  16  19
HETATM   19  O   UNL     1       7.743  20.955  54.082  1.00  0.00    -0.356 OA
HETATM   20  C   UNL     1       8.314  20.510  52.859  1.00  0.00     0.210 C 
ENDBRANCH  16  19
ENDBRANCH  12  13
ENDBRANCH  11  12
ENDBRANCH   7  11
ENDBRANCH   1   5
BRANCH   2  21
HETATM   21  C   UNL     1       7.718  31.531  60.850  1.00  0.00     0.147 A 
HETATM   22  N   UNL     1       8.778  31.332  61.656  1.00  0.00    -0.169 NA
HETATM   23  N   UNL     1       8.374  31.835  62.841  1.00  0.00    -0.277 N 
HETATM   24  H   UNL     1       9.002  31.790  63.638  1.00  0.00     0.189 HD
HETATM   25  C   UNL     1       7.111  32.375  62.842  1.00  0.00     0.065 A 
HETATM   26  C   UNL     1       6.665  32.173  61.549  1.00  0.00     0.071 A 
BRANCH  25  27
HETATM   27  C   UNL     1       6.477  33.007  64.014  1.00  0.00     0.025 A 
HETATM   28  C   UNL     1       5.077  33.182  64.142  1.00  0.00     0.080 A 
HETATM   29  C   UNL     1       4.556  33.786  65.298  1.00  0.00     0.037 A 
HETATM   30  C   UNL     1       5.400  34.220  66.321  1.00  0.00     0.003 A 
HETATM   31  C   UNL     1       6.773  34.055  66.205  1.00  0.00     0.001 A 
HETATM   32  C   UNL     1       7.303  33.454  65.063  1.00  0.00     0.016 A 
BRANCH  28  33
HETATM   33  O   UNL     1       4.291  32.736  63.103  1.00  0.00    -0.355 OA
HETATM   34  C   UNL     1       3.190  33.550  62.715  1.00  0.00     0.210 C 
ENDBRANCH  28  33
ENDBRANCH  25  27
ENDBRANCH   2  21
TORSDOF 8
ENDMDL
MODEL 4
REMARK VINA RESULT:      -9.4      2.739     11.029
REMARK  8 active torsions:
REMARK  status: ('A' for Active; 'I' for Inactive)
REMARK    1  A    between atoms: O_2  and  C_3 
REMARK    2  A    between atoms: C_6  and  C_7 
REMARK    3  A    between atoms: C_7  and  C_8 
REMARK    4  A    between atoms: C_8  and  C_9 
REMARK    5  A    between atoms: C_11  and  N_12 
REMARK       I    between atoms: N_12  and  C_13 
REMARK    6  A    between atoms: C_13  and  C_14 
REMARK    7  A    between atoms: C_18  and  C_19 
REMARK    8  A    between atoms: C_20  and  O_21 
ROOT
HETATM    1  N   UNL     1       4.966  28.971  55.518  1.00  0.00    -0.149 N 
HETATM    2  C   UNL     1       6.244  29.358  55.834  1.00  0.00     0.290 C 
HETATM    3  O   UNL     1       7.284  28.994  55.295  1.00  0.00    -0.265 OA
HETATM    4  H   UNL     1       4.206  29.342  56.071  1.00  0.00     0.188 HD
ENDROOT
BRANCH   1   5
HETATM    5  C   UNL     1       4.638  28.122  54.505  1.00  0.00     0.747 A 
HETATM    6  N   UNL     1       5.381  26.981  54.323  1.00  0.00    -0.046 NA
HETATM    7  C   UNL     1       4.804  26.394  53.295  1.00  0.00     0.140 A 
HETATM    8  N   UNL     1       3.748  27.159  52.895  1.00  0.00    -0.248 N 
HETATM    9  N   UNL     1       3.637  28.261  53.636  1.00  0.00     0.020 NA
HETATM   10  H   UNL     1       3.087  27.001  52.143  1.00  0.00     0.191 HD
BRANCH   7  11
HETATM   11  C   UNL     1       5.150  25.105  52.634  1.00  0.00     0.085 C 
BRANCH  11  12
HETATM   12  C   UNL     1       6.652  25.003  52.345  1.00  0.00     0.046 C 
BRANCH  12  13
HETATM   13  C   UNL     1       7.359  24.047  53.273  1.00  0.00    -0.058 A 
HETATM   14  C   UNL     1       7.579  22.719  52.885  1.00  0.00     0.010 A 
HETATM   15  C   UNL     1       8.260  21.829  53.723  1.00  0.00     0.037 A 
HETATM   16  C   UNL     1       8.733  22.258  54.960  1.00  0.00     0.068 A 
HETATM   17  C   UNL     1       8.495  23.575  55.361  1.00  0.00     0.037 A 
HETATM   18  C   UNL     1       7.815  24.466  54.526  1.00  0.00     0.010 A 
BRANCH  16  19
HETATM   19  O   UNL     1       9.426  21.497  55.862  1.00  0.00    -0.356 OA
HETATM   20  C   UNL     1       9.121  20.109  55.892  1.00  0.00     0.210 C 
ENDBRANCH  16  19
ENDBRANCH  12  13
ENDBRANCH  11  12
ENDBRANCH   7  11
ENDBRANCH   1   5
BRANCH   2  21
HETATM   21  C   UNL     1       6.282  30.305  56.963  1.00  0.00     0.147 A 
HETATM   22  N   UNL     1       5.549  31.434  57.004  1.00  0.00    -0.169 NA
HETATM   23  N   UNL     1       5.893  31.991  58.184  1.00  0.00    -0.277 N 
HETATM   24  H   UNL     1       5.479  32.880  58.450  1.00  0.00     0.189 HD
HETATM   25  C   UNL     1       6.796  31.270  58.926  1.00  0.00     0.065 A 
HETATM   26  C   UNL     1       7.069  30.170  58.135  1.00  0.00     0.071 A 
BRANCH  25  27
HETATM   27  C   UNL     1       7.289  31.671  60.257  1.00  0.00     0.025 A 
HETATM   28  C   UNL     1       6.503  32.379  61.197  1.00  0.00     0.080 A 
HETATM   29  C   UNL     1       7.049  32.713  62.447  1.00  0.00     0.037 A 
HETATM   30  C   UNL     1       8.360  32.361  62.773  1.00  0.00     0.003 A 
HETATM   31  C   UNL     1       9.139  31.668  61.858  1.00  0.00     0.001 A 
HETATM   32  C   UNL     1       8.607  31.328  60.614  1.00  0.00     0.016 A 
BRANCH  28  33
HETATM   33  O   UNL     1       5.217  32.701  60.825  1.00  0.00    -0.355 OA
HETATM   34  C   UNL     1       4.154  32.188  61.620  1.00  0.00     0.210 C 
ENDBRANCH  28  33
ENDBRANCH  25  27
ENDBRANCH   2  21
TORSDOF 8
ENDMDL
MODEL 5
REMARK VINA RESULT:      -9.4      1.879      2.458
REMARK  8 active torsions:
REMARK  status: ('A' for Active; 'I' for Inactive)
REMARK    1  A    between atoms: O_2  and  C_3 
REMARK    2  A    between atoms: C_6  and  C_7 
REMARK    3  A    between atoms: C_7  and  C_8 
REMARK    4  A    between atoms: C_8  and  C_9 
REMARK    5  A    between atoms: C_11  and  N_12 
REMARK       I    between atoms: N_12  and  C_13 
REMARK    6  A    between atoms: C_13  and  C_14 
REMARK    7  A    between atoms: C_18  and  C_19 
REMARK    8  A    between atoms: C_20  and  O_21 
ROOT
HETATM    1  N   UNL     1       7.733  29.324  57.341  1.00  0.00    -0.149 N 
HETATM    2  C   UNL     1       6.775  29.161  56.372  1.00  0.00     0.290 C 
HETATM    3  O   UNL     1       5.733  29.796  56.245  1.00  0.00    -0.265 OA
HETATM    4  H   UNL     1       8.532  28.706  57.328  1.00  0.00     0.188 HD
ENDROOT
BRANCH   1   5
HETATM    5  C   UNL     1       7.693  30.264  58.325  1.00  0.00     0.747 A 
HETATM    6  N   UNL     1       8.312  30.004  59.523  1.00  0.00    -0.046 NA
HETATM    7  C   UNL     1       8.099  31.096  60.228  1.00  0.00     0.140 A 
HETATM    8  N   UNL     1       7.389  31.975  59.463  1.00  0.00    -0.248 N 
HETATM    9  N   UNL     1       7.110  31.461  58.266  1.00  0.00     0.020 NA
HETATM   10  H   UNL     1       7.063  32.907  59.689  1.00  0.00     0.191 HD
BRANCH   7  11
HETATM   11  C   UNL     1       8.542  31.422  61.612  1.00  0.00     0.085 C 
BRANCH  11  12
HETATM   12  C   UNL     1       8.325  32.903  61.941  1.00  0.00     0.046 C 
BRANCH  12  13
HETATM   13  C   UNL     1       7.311  33.112  63.039  1.00  0.00    -0.058 A 
HETATM   14  C   UNL     1       7.728  33.217  64.373  1.00  0.00     0.010 A 
HETATM   15  C   UNL     1       6.802  33.441  65.398  1.00  0.00     0.037 A 
HETATM   16  C   UNL     1       5.447  33.565  65.101  1.00  0.00     0.068 A 
HETATM   17  C   UNL     1       5.026  33.437  63.776  1.00  0.00     0.037 A 
HETATM   18  C   UNL     1       5.948  33.213  62.750  1.00  0.00     0.010 A 
BRANCH  16  19
HETATM   19  O   UNL     1       4.447  33.802  66.005  1.00  0.00    -0.356 OA
HETATM   20  C   UNL     1       3.583  34.896  65.727  1.00  0.00     0.210 C 
ENDBRANCH  16  19
ENDBRANCH  12  13
ENDBRANCH  11  12
ENDBRANCH   7  11
ENDBRANCH   1   5
BRANCH   2  21
HETATM   21  C   UNL     1       7.107  28.078  55.429  1.00  0.00     0.147 A 
HETATM   22  N   UNL     1       7.407  28.292  54.134  1.00  0.00    -0.169 NA
HETATM   23  N   UNL     1       7.629  27.052  53.651  1.00  0.00    -0.277 N 
HETATM   24  H   UNL     1       7.863  26.938  52.669  1.00  0.00     0.189 HD
HETATM   25  C   UNL     1       7.513  26.041  54.573  1.00  0.00     0.065 A 
HETATM   26  C   UNL     1       7.160  26.695  55.738  1.00  0.00     0.071 A 
BRANCH  25  27
HETATM   27  C   UNL     1       7.741  24.614  54.277  1.00  0.00     0.025 A 
HETATM   28  C   UNL     1       7.282  23.981  53.096  1.00  0.00     0.080 A 
HETATM   29  C   UNL     1       7.552  22.618  52.889  1.00  0.00     0.037 A 
HETATM   30  C   UNL     1       8.263  21.878  53.835  1.00  0.00     0.003 A 
HETATM   31  C   UNL     1       8.716  22.488  54.996  1.00  0.00     0.001 A 
HETATM   32  C   UNL     1       8.456  23.842  55.212  1.00  0.00     0.016 A 
BRANCH  28  33
HETATM   33  O   UNL     1       6.586  24.758  52.197  1.00  0.00    -0.355 OA
HETATM   34  C   UNL     1       5.166  24.757  52.289  1.00  0.00     0.210 C 
ENDBRANCH  28  33
ENDBRANCH  25  27
ENDBRANCH   2  21
TORSDOF 8
ENDMDL
MODEL 6
REMARK VINA RESULT:      -9.3      1.461      1.858
REMARK  8 active torsions:
REMARK  status: ('A' for Active; 'I' for Inactive)
REMARK    1  A    between atoms: O_2  and  C_3 
REMARK    2  A    between atoms: C_6  and  C_7 
REMARK    3  A    between atoms: C_7  and  C_8 
REMARK    4  A    between atoms: C_8  and  C_9 
REMARK    5  A    between atoms: C_11  and  N_12 
REMARK       I    between atoms: N_12  and  C_13 
REMARK    6  A    between atoms: C_13  and  C_14 
REMARK    7  A    between atoms: C_18  and  C_19 
REMARK    8  A    between atoms: C_20  and  O_21 
ROOT
HETATM    1  N   UNL     1       8.214  29.148  58.810  1.00  0.00    -0.149 N 
HETATM    2  C   UNL     1       7.296  28.761  57.866  1.00  0.00     0.290 C 
HETATM    3  O   UNL     1       6.369  29.427  57.417  1.00  0.00    -0.265 OA
HETATM    4  H   UNL     1       8.911  28.476  59.098  1.00  0.00     0.188 HD
ENDROOT
BRANCH   1   5
HETATM    5  C   UNL     1       8.261  30.378  59.392  1.00  0.00     0.747 A 
HETATM    6  N   UNL     1       8.657  30.482  60.703  1.00  0.00    -0.046 NA
HETATM    7  C   UNL     1       8.604  31.776  60.944  1.00  0.00     0.140 A 
HETATM    8  N   UNL     1       8.204  32.413  59.805  1.00  0.00    -0.248 N 
HETATM    9  N   UNL     1       7.967  31.545  58.821  1.00  0.00     0.020 NA
HETATM   10  H   UNL     1       8.066  33.402  59.636  1.00  0.00     0.191 HD
BRANCH   7  11
HETATM   11  C   UNL     1       8.935  32.513  62.194  1.00  0.00     0.085 C 
BRANCH  11  12
HETATM   12  C   UNL     1       7.970  32.160  63.331  1.00  0.00     0.046 C 
BRANCH  12  13
HETATM   13  C   UNL     1       6.848  33.159  63.473  1.00  0.00    -0.058 A 
HETATM   14  C   UNL     1       5.744  33.108  62.612  1.00  0.00     0.010 A 
HETATM   15  C   UNL     1       4.683  34.009  62.751  1.00  0.00     0.037 A 
HETATM   16  C   UNL     1       4.711  34.972  63.758  1.00  0.00     0.068 A 
HETATM   17  C   UNL     1       5.821  35.041  64.603  1.00  0.00     0.037 A 
HETATM   18  C   UNL     1       6.883  34.142  64.465  1.00  0.00     0.010 A 
BRANCH  16  19
HETATM   19  O   UNL     1       3.734  35.895  64.011  1.00  0.00    -0.356 OA
HETATM   20  C   UNL     1       3.478  36.849  62.988  1.00  0.00     0.210 C 
ENDBRANCH  16  19
ENDBRANCH  12  13
ENDBRANCH  11  12
ENDBRANCH   7  11
ENDBRANCH   1   5
BRANCH   2  21
HETATM   21  C   UNL     1       7.513  27.379  57.403  1.00  0.00     0.147 A 
HETATM   22  N   UNL     1       7.737  26.347  58.240  1.00  0.00    -0.169 NA
HETATM   23  N   UNL     1       7.888  25.294  57.410  1.00  0.00    -0.277 N 
HETATM   24  H   UNL     1       8.087  24.379  57.803  1.00  0.00     0.189 HD
HETATM   25  C   UNL     1       7.751  25.584  56.074  1.00  0.00     0.065 A 
HETATM   26  C   UNL     1       7.517  26.946  56.053  1.00  0.00     0.071 A 
BRANCH  25  27
HETATM   27  C   UNL     1       7.846  24.585  54.992  1.00  0.00     0.025 A 
HETATM   28  C   UNL     1       8.149  23.220  55.217  1.00  0.00     0.080 A 
HETATM   29  C   UNL     1       8.210  22.334  54.129  1.00  0.00     0.037 A 
HETATM   30  C   UNL     1       7.981  22.783  52.827  1.00  0.00     0.003 A 
HETATM   31  C   UNL     1       7.686  24.119  52.596  1.00  0.00     0.001 A 
HETATM   32  C   UNL     1       7.620  25.008  53.668  1.00  0.00     0.016 A 
BRANCH  28  33
HETATM   33  O   UNL     1       8.365  22.832  56.520  1.00  0.00    -0.355 OA
HETATM   34  C   UNL     1       8.447  21.435  56.784  1.00  0.00     0.210 C 
ENDBRANCH  28  33
ENDBRANCH  25  27
ENDBRANCH   2  21
TORSDOF 8
ENDMDL
MODEL 7
REMARK VINA RESULT:      -9.2      1.653      2.450
REMARK  8 active torsions:
REMARK  status: ('A' for Active; 'I' for Inactive)
REMARK    1  A    between atoms: O_2  and  C_3 
REMARK    2  A    between atoms: C_6  and  C_7 
REMARK    3  A    between atoms: C_7  and  C_8 
REMARK    4  A    between atoms: C_8  and  C_9 
REMARK    5  A    between atoms: C_11  and  N_12 
REMARK       I    between atoms: N_12  and  C_13 
REMARK    6  A    between atoms: C_13  and  C_14 
REMARK    7  A    between atoms: C_18  and  C_19 
REMARK    8  A    between atoms: C_20  and  O_21 
ROOT
HETATM    1  N   UNL     1       6.581  27.861  57.249  1.00  0.00    -0.149 N 
HETATM    2  C   UNL     1       7.894  27.492  57.408  1.00  0.00     0.290 C 
HETATM    3  O   UNL     1       8.826  28.203  57.769  1.00  0.00    -0.265 OA
HETATM    4  H   UNL     1       5.928  27.164  56.921  1.00  0.00     0.188 HD
ENDROOT
BRANCH   1   5
HETATM    5  C   UNL     1       6.086  29.104  57.503  1.00  0.00     0.747 A 
HETATM    6  N   UNL     1       6.788  29.946  58.331  1.00  0.00    -0.046 NA
HETATM    7  C   UNL     1       6.057  31.042  58.354  1.00  0.00     0.140 A 
HETATM    8  N   UNL     1       4.968  30.853  57.554  1.00  0.00    -0.248 N 
HETATM    9  N   UNL     1       4.961  29.631  57.022  1.00  0.00     0.020 NA
HETATM   10  H   UNL     1       4.209  31.490  57.340  1.00  0.00     0.191 HD
BRANCH   7  11
HETATM   11  C   UNL     1       6.308  32.323  59.069  1.00  0.00     0.085 C 
BRANCH  11  12
HETATM   12  C   UNL     1       7.589  32.260  59.910  1.00  0.00     0.046 C 
BRANCH  12  13
HETATM   13  C   UNL     1       7.367  32.688  61.339  1.00  0.00    -0.058 A 
HETATM   14  C   UNL     1       6.286  33.517  61.668  1.00  0.00     0.010 A 
HETATM   15  C   UNL     1       6.050  33.898  62.994  1.00  0.00     0.037 A 
HETATM   16  C   UNL     1       6.893  33.451  64.009  1.00  0.00     0.068 A 
HETATM   17  C   UNL     1       7.985  32.644  63.682  1.00  0.00     0.037 A 
HETATM   18  C   UNL     1       8.223  32.263  62.359  1.00  0.00     0.010 A 
BRANCH  16  19
HETATM   19  O   UNL     1       6.763  33.734  65.342  1.00  0.00    -0.356 OA
HETATM   20  C   UNL     1       5.440  33.926  65.827  1.00  0.00     0.210 C 
ENDBRANCH  16  19
ENDBRANCH  12  13
ENDBRANCH  11  12
ENDBRANCH   7  11
ENDBRANCH   1   5
BRANCH   2  21
HETATM   21  C   UNL     1       8.123  26.075  57.078  1.00  0.00     0.147 A 
HETATM   22  N   UNL     1       8.706  25.204  57.924  1.00  0.00    -0.169 NA
HETATM   23  N   UNL     1       8.724  24.049  57.227  1.00  0.00    -0.277 N 
HETATM   24  H   UNL     1       9.137  23.223  57.650  1.00  0.00     0.189 HD
HETATM   25  C   UNL     1       8.161  24.117  55.976  1.00  0.00     0.065 A 
HETATM   26  C   UNL     1       7.774  25.438  55.860  1.00  0.00     0.071 A 
BRANCH  25  27
HETATM   27  C   UNL     1       8.044  22.972  55.053  1.00  0.00     0.025 A 
HETATM   28  C   UNL     1       8.114  23.098  53.644  1.00  0.00     0.080 A 
HETATM   29  C   UNL     1       8.002  21.953  52.839  1.00  0.00     0.037 A 
HETATM   30  C   UNL     1       7.819  20.692  53.408  1.00  0.00     0.003 A 
HETATM   31  C   UNL     1       7.747  20.558  54.788  1.00  0.00     0.001 A 
HETATM   32  C   UNL     1       7.859  21.687  55.599  1.00  0.00     0.016 A 
BRANCH  28  33
HETATM   33  O   UNL     1       8.296  24.364  53.136  1.00  0.00    -0.355 OA
HETATM   34  C   UNL     1       7.378  24.813  52.145  1.00  0.00     0.210 C 
ENDBRANCH  28  33
ENDBRANCH  25  27
ENDBRANCH   2  21
TORSDOF 8
ENDMDL
MODEL 8
REMARK VINA RESULT:      -9.1      8.280     12.534
REMARK  8 active torsions:
REMARK  status: ('A' for Active; 'I' for Inactive)
REMARK    1  A    between atoms: O_2  and  C_3 
REMARK    2  A    between atoms: C_6  and  C_7 
REMARK    3  A    between atoms: C_7  and  C_8 
REMARK    4  A    between atoms: C_8  and  C_9 
REMARK    5  A    between atoms: C_11  and  N_12 
REMARK       I    between atoms: N_12  and  C_13 
REMARK    6  A    between atoms: C_13  and  C_14 
REMARK    7  A    between atoms: C_18  and  C_19 
REMARK    8  A    between atoms: C_20  and  O_21 
ROOT
HETATM    1  N   UNL     1       5.622  26.144  50.513  1.00  0.00    -0.149 N 
HETATM    2  C   UNL     1       5.395  26.358  51.850  1.00  0.00     0.290 C 
HETATM    3  O   UNL     1       4.548  27.090  52.352  1.00  0.00    -0.265 OA
HETATM    4  H   UNL     1       6.377  25.526  50.252  1.00  0.00     0.188 HD
ENDROOT
BRANCH   1   5
HETATM    5  C   UNL     1       4.900  26.703  49.503  1.00  0.00     0.747 A 
HETATM    6  N   UNL     1       3.906  25.967  48.907  1.00  0.00    -0.046 NA
HETATM    7  C   UNL     1       3.411  26.786  48.002  1.00  0.00     0.140 A 
HETATM    8  N   UNL     1       4.085  27.971  48.074  1.00  0.00    -0.248 N 
HETATM    9  N   UNL     1       5.039  27.931  49.004  1.00  0.00     0.020 NA
HETATM   10  H   UNL     1       3.959  28.817  47.532  1.00  0.00     0.191 HD
BRANCH   7  11
HETATM   11  C   UNL     1       2.293  26.564  47.045  1.00  0.00     0.085 C 
BRANCH  11  12
HETATM   12  C   UNL     1       0.975  27.143  47.571  1.00  0.00     0.046 C 
BRANCH  12  13
HETATM   13  C   UNL     1       0.367  28.154  46.630  1.00  0.00    -0.058 A 
HETATM   14  C   UNL     1       0.833  29.476  46.616  1.00  0.00     0.010 A 
HETATM   15  C   UNL     1       0.299  30.416  45.728  1.00  0.00     0.037 A 
HETATM   16  C   UNL     1      -0.706  30.044  44.838  1.00  0.00     0.068 A 
HETATM   17  C   UNL     1      -1.189  28.734  44.864  1.00  0.00     0.037 A 
HETATM   18  C   UNL     1      -0.658  27.793  45.751  1.00  0.00     0.010 A 
BRANCH  16  19
HETATM   19  O   UNL     1      -1.297  30.858  43.910  1.00  0.00    -0.356 OA
HETATM   20  C   UNL     1      -2.483  30.370  43.297  1.00  0.00     0.210 C 
ENDBRANCH  16  19
ENDBRANCH  12  13
ENDBRANCH  11  12
ENDBRANCH   7  11
ENDBRANCH   1   5
BRANCH   2  21
HETATM   21  C   UNL     1       6.322  25.596  52.706  1.00  0.00     0.147 A 
HETATM   22  N   UNL     1       7.388  26.150  53.316  1.00  0.00    -0.169 NA
HETATM   23  N   UNL     1       7.950  25.113  53.973  1.00  0.00    -0.277 N 
HETATM   24  H   UNL     1       8.798  25.270  54.510  1.00  0.00     0.189 HD
HETATM   25  C   UNL     1       7.291  23.916  53.840  1.00  0.00     0.065 A 
HETATM   26  C   UNL     1       6.230  24.213  53.005  1.00  0.00     0.071 A 
BRANCH  25  27
HETATM   27  C   UNL     1       7.707  22.660  54.493  1.00  0.00     0.025 A 
HETATM   28  C   UNL     1       7.898  22.534  55.890  1.00  0.00     0.080 A 
HETATM   29  C   UNL     1       8.286  21.297  56.429  1.00  0.00     0.037 A 
HETATM   30  C   UNL     1       8.492  20.190  55.605  1.00  0.00     0.003 A 
HETATM   31  C   UNL     1       8.310  20.303  54.234  1.00  0.00     0.001 A 
HETATM   32  C   UNL     1       7.922  21.525  53.686  1.00  0.00     0.016 A 
BRANCH  28  33
HETATM   33  O   UNL     1       7.681  23.657  56.656  1.00  0.00    -0.355 OA
HETATM   34  C   UNL     1       8.798  24.210  57.344  1.00  0.00     0.210 C 
ENDBRANCH  28  33
ENDBRANCH  25  27
ENDBRANCH   2  21
TORSDOF 8
ENDMDL
MODEL 9
REMARK VINA RESULT:      -9.0      2.396     11.459
REMARK  8 active torsions:
REMARK  status: ('A' for Active; 'I' for Inactive)
REMARK    1  A    between atoms: O_2  and  C_3 
REMARK    2  A    between atoms: C_6  and  C_7 
REMARK    3  A    between atoms: C_7  and  C_8 
REMARK    4  A    between atoms: C_8  and  C_9 
REMARK    5  A    between atoms: C_11  and  N_12 
REMARK       I    between atoms: N_12  and  C_13 
REMARK    6  A    between atoms: C_13  and  C_14 
REMARK    7  A    between atoms: C_18  and  C_19 
REMARK    8  A    between atoms: C_20  and  O_21 
ROOT
HETATM    1  N   UNL     1       5.867  29.903  56.900  1.00  0.00    -0.149 N 
HETATM    2  C   UNL     1       5.467  31.205  56.726  1.00  0.00     0.290 C 
HETATM    3  O   UNL     1       5.087  31.731  55.685  1.00  0.00    -0.265 OA
HETATM    4  H   UNL     1       6.177  29.620  57.819  1.00  0.00     0.188 HD
ENDROOT
BRANCH   1   5
HETATM    5  C   UNL     1       5.875  28.954  55.924  1.00  0.00     0.747 A 
HETATM    6  N   UNL     1       7.066  28.617  55.330  1.00  0.00    -0.046 NA
HETATM    7  C   UNL     1       6.729  27.686  54.461  1.00  0.00     0.140 A 
HETATM    8  N   UNL     1       5.385  27.474  54.553  1.00  0.00    -0.248 N 
HETATM    9  N   UNL     1       4.826  28.276  55.458  1.00  0.00     0.020 NA
HETATM   10  H   UNL     1       4.799  26.826  54.039  1.00  0.00     0.191 HD
BRANCH   7  11
HETATM   11  C   UNL     1       7.595  26.918  53.525  1.00  0.00     0.085 C 
BRANCH  11  12
HETATM   12  C   UNL     1       6.833  25.759  52.872  1.00  0.00     0.046 C 
BRANCH  12  13
HETATM   13  C   UNL     1       7.230  24.415  53.430  1.00  0.00    -0.058 A 
HETATM   14  C   UNL     1       7.034  24.128  54.787  1.00  0.00     0.010 A 
HETATM   15  C   UNL     1       7.370  22.875  55.312  1.00  0.00     0.037 A 
HETATM   16  C   UNL     1       7.903  21.890  54.483  1.00  0.00     0.068 A 
HETATM   17  C   UNL     1       8.121  22.180  53.134  1.00  0.00     0.037 A 
HETATM   18  C   UNL     1       7.787  23.431  52.608  1.00  0.00     0.010 A 
BRANCH  16  19
HETATM   19  O   UNL     1       8.255  20.624  54.865  1.00  0.00    -0.356 OA
HETATM   20  C   UNL     1       8.016  20.280  56.224  1.00  0.00     0.210 C 
ENDBRANCH  16  19
ENDBRANCH  12  13
ENDBRANCH  11  12
ENDBRANCH   7  11
ENDBRANCH   1   5
BRANCH   2  21
HETATM   21  C   UNL     1       5.545  31.989  57.972  1.00  0.00     0.147 A 
HETATM   22  N   UNL     1       4.897  33.155  58.152  1.00  0.00    -0.169 NA
HETATM   23  N   UNL     1       5.251  33.524  59.401  1.00  0.00    -0.277 N 
HETATM   24  H   UNL     1       4.898  34.399  59.777  1.00  0.00     0.189 HD
HETATM   25  C   UNL     1       6.079  32.643  60.054  1.00  0.00     0.065 A 
HETATM   26  C   UNL     1       6.290  31.640  59.127  1.00  0.00     0.071 A 
BRANCH  25  27
HETATM   27  C   UNL     1       6.566  32.826  61.434  1.00  0.00     0.025 A 
HETATM   28  C   UNL     1       5.847  33.536  62.426  1.00  0.00     0.080 A 
HETATM   29  C   UNL     1       6.381  33.654  63.720  1.00  0.00     0.037 A 
HETATM   30  C   UNL     1       7.614  33.084  64.040  1.00  0.00     0.003 A 
HETATM   31  C   UNL     1       8.327  32.387  63.075  1.00  0.00     0.001 A 
HETATM   32  C   UNL     1       7.806  32.260  61.787  1.00  0.00     0.016 A 
BRANCH  28  33
HETATM   33  O   UNL     1       4.637  34.078  62.056  1.00  0.00    -0.355 OA
HETATM   34  C   UNL     1       3.527  33.860  62.921  1.00  0.00     0.210 C 
ENDBRANCH  28  33
ENDBRANCH  25  27
ENDBRANCH   2  21
TORSDOF 8
ENDMDL
MODEL 10
REMARK VINA RESULT:      -8.8      2.486     11.702
REMARK  8 active torsions:
REMARK  status: ('A' for Active; 'I' for Inactive)
REMARK    1  A    between atoms: O_2  and  C_3 
REMARK    2  A    between atoms: C_6  and  C_7 
REMARK    3  A    between atoms: C_7  and  C_8 
REMARK    4  A    between atoms: C_8  and  C_9 
REMARK    5  A    between atoms: C_11  and  N_12 
REMARK       I    between atoms: N_12  and  C_13 
REMARK    6  A    between atoms: C_13  and  C_14 
REMARK    7  A    between atoms: C_18  and  C_19 
REMARK    8  A    between atoms: C_20  and  O_21 
ROOT
HETATM    1  N   UNL     1       5.543  30.291  58.044  1.00  0.00    -0.149 N 
HETATM    2  C   UNL     1       5.009  31.555  58.028  1.00  0.00     0.290 C 
HETATM    3  O   UNL     1       5.005  32.347  57.091  1.00  0.00    -0.265 OA
HETATM    4  H   UNL     1       5.489  29.763  58.903  1.00  0.00     0.188 HD
ENDROOT
BRANCH   1   5
HETATM    5  C   UNL     1       6.141  29.685  56.981  1.00  0.00     0.747 A 
HETATM    6  N   UNL     1       5.453  28.719  56.289  1.00  0.00    -0.046 NA
HETATM    7  C   UNL     1       6.293  28.357  55.340  1.00  0.00     0.140 A 
HETATM    8  N   UNL     1       7.432  29.098  55.464  1.00  0.00    -0.248 N 
HETATM    9  N   UNL     1       7.361  29.929  56.503  1.00  0.00     0.020 NA
HETATM   10  H   UNL     1       8.273  29.083  54.899  1.00  0.00     0.191 HD
BRANCH   7  11
HETATM   11  C   UNL     1       6.110  27.352  54.258  1.00  0.00     0.085 C 
BRANCH  11  12
HETATM   12  C   UNL     1       7.454  26.823  53.744  1.00  0.00     0.046 C 
BRANCH  12  13
HETATM   13  C   UNL     1       7.542  25.317  53.791  1.00  0.00    -0.058 A 
HETATM   14  C   UNL     1       7.260  24.630  54.979  1.00  0.00     0.010 A 
HETATM   15  C   UNL     1       7.308  23.232  55.029  1.00  0.00     0.037 A 
HETATM   16  C   UNL     1       7.636  22.504  53.887  1.00  0.00     0.068 A 
HETATM   17  C   UNL     1       7.941  23.186  52.708  1.00  0.00     0.037 A 
HETATM   18  C   UNL     1       7.895  24.582  52.656  1.00  0.00     0.010 A 
BRANCH  16  19
HETATM   19  O   UNL     1       7.701  21.140  53.798  1.00  0.00    -0.356 OA
HETATM   20  C   UNL     1       8.144  20.445  54.957  1.00  0.00     0.210 C 
ENDBRANCH  16  19
ENDBRANCH  12  13
ENDBRANCH  11  12
ENDBRANCH   7  11
ENDBRANCH   1   5
BRANCH   2  21
HETATM   21  C   UNL     1       4.407  31.928  59.320  1.00  0.00     0.147 A 
HETATM   22  N   UNL     1       3.095  31.785  59.592  1.00  0.00    -0.169 NA
HETATM   23  N   UNL     1       2.981  32.249  60.854  1.00  0.00    -0.277 N 
HETATM   24  H   UNL     1       2.066  32.263  61.294  1.00  0.00     0.189 HD
HETATM   25  C   UNL     1       4.158  32.665  61.428  1.00  0.00     0.065 A 
HETATM   26  C   UNL     1       5.097  32.472  60.433  1.00  0.00     0.071 A 
BRANCH  25  27
HETATM   27  C   UNL     1       4.275  33.178  62.806  1.00  0.00     0.025 A 
HETATM   28  C   UNL     1       5.389  32.918  63.641  1.00  0.00     0.080 A 
HETATM   29  C   UNL     1       5.424  33.456  64.938  1.00  0.00     0.037 A 
HETATM   30  C   UNL     1       4.373  34.240  65.417  1.00  0.00     0.003 A 
HETATM   31  C   UNL     1       3.276  34.499  64.606  1.00  0.00     0.001 A 
HETATM   32  C   UNL     1       3.231  33.973  63.315  1.00  0.00     0.016 A 
BRANCH  28  33
HETATM   33  O   UNL     1       6.397  32.140  63.119  1.00  0.00    -0.355 OA
HETATM   34  C   UNL     1       7.737  32.507  63.427  1.00  0.00     0.210 C 
ENDBRANCH  28  33
ENDBRANCH  25  27
ENDBRANCH   2  21
TORSDOF 8
ENDMDL
