MODEL 1
REMARK VINA RESULT:     -10.6      0.000      0.000
REMARK  4 active torsions:
REMARK  status: ('A' for Active; 'I' for Inactive)
REMARK    1  A    between atoms: C_5  and  C_6 
REMARK    2  A    between atoms: C_10  and  C_11 
REMARK       I    between atoms: C_11  and  N_12 
REMARK    3  A    between atoms: N_12  and  N_13 
REMARK    4  A    between atoms: C_14  and  C_15 
ROOT
HETATM    1  C   UNL     1       9.142  29.356  57.370  1.00  0.00     0.289 C 
HETATM    2  N   UNL     1       7.932  28.903  56.857  1.00  0.00    -0.242 N 
HETATM    3  O   UNL     1      10.248  28.969  57.004  1.00  0.00    -0.264 OA
HETATM    4  H   UNL     1       7.091  29.082  57.393  1.00  0.00     0.192 HD
ENDROOT
BRANCH   1   5
HETATM    5  C   UNL     1       9.012  30.342  58.415  1.00  0.00     0.121 A 
HETATM    6  N   UNL     1       9.758  31.488  58.410  1.00  0.00    -0.272 N 
HETATM    7  N   UNL     1       9.518  32.303  59.446  1.00  0.00    -0.174 NA
HETATM    8  H   UNL     1      10.452  31.759  57.721  1.00  0.00     0.189 HD
HETATM    9  C   UNL     1       8.549  31.693  60.146  1.00  0.00     0.089 A 
HETATM   10  C   UNL     1       8.214  30.450  59.536  1.00  0.00     0.071 A 
BRANCH   9  11
HETATM   11  C   UNL     1       7.975  32.295  61.355  1.00  0.00    -0.006 A 
HETATM   12  C   UNL     1       6.810  33.073  61.296  1.00  0.00     0.014 A 
HETATM   13  C   UNL     1       6.271  33.646  62.454  1.00  0.00     0.007 A 
HETATM   14  C   UNL     1       6.888  33.453  63.694  1.00  0.00    -0.062 A 
HETATM   15  C   UNL     1       6.319  34.057  64.943  1.00  0.00     0.048 C 
HETATM   16  C   UNL     1       8.050  32.676  63.759  1.00  0.00     0.007 A 
HETATM   17  C   UNL     1       8.587  32.107  62.601  1.00  0.00     0.014 A 
ENDBRANCH   9  11
ENDBRANCH   1   5
BRANCH   2  18
HETATM   18  N   UNL     1       7.761  27.942  55.888  1.00  0.00    -0.183 NA
HETATM   19  C   UNL     1       7.058  26.891  56.171  1.00  0.00     0.153 C 
BRANCH  19  20
HETATM   20  C   UNL     1       6.845  25.862  55.166  1.00  0.00     0.018 A 
HETATM   21  C   UNL     1       7.549  24.613  55.089  1.00  0.00     0.004 A 
HETATM   22  C   UNL     1       7.065  23.924  53.979  1.00  0.00     0.043 A 
HETATM   23  C   UNL     1       8.561  24.004  55.863  1.00  0.00     0.014 A 
HETATM   24  C   UNL     1       7.540  22.663  53.598  1.00  0.00     0.030 A 
HETATM   25  N   UNL     1       6.097  24.713  53.406  1.00  0.00    -0.358 N 
HETATM   26  C   UNL     1       8.543  22.085  54.380  1.00  0.00     0.002 A 
HETATM   27  C   UNL     1       9.048  22.744  55.499  1.00  0.00     0.001 A 
HETATM   28  H   UNL     1       5.571  24.458  52.582  1.00  0.00     0.166 HD
HETATM   29  C   UNL     1       5.947  25.886  54.104  1.00  0.00     0.018 A 
HETATM   30  C   UNL     1       4.958  26.911  53.678  1.00  0.00     0.069 C 
ENDBRANCH  19  20
ENDBRANCH   2  18
TORSDOF 4
ENDMDL
MODEL 2
REMARK VINA RESULT:     -10.4      1.881      2.619
REMARK  4 active torsions:
REMARK  status: ('A' for Active; 'I' for Inactive)
REMARK    1  A    between atoms: C_5  and  C_6 
REMARK    2  A    between atoms: C_10  and  C_11 
REMARK       I    between atoms: C_11  and  N_12 
REMARK    3  A    between atoms: N_12  and  N_13 
REMARK    4  A    between atoms: C_14  and  C_15 
ROOT
HETATM    1  C   UNL     1       7.289  28.320  55.855  1.00  0.00     0.289 C 
HETATM    2  N   UNL     1       6.786  27.075  56.214  1.00  0.00    -0.242 N 
HETATM    3  O   UNL     1       7.801  28.584  54.770  1.00  0.00    -0.264 OA
HETATM    4  H   UNL     1       6.629  26.891  57.198  1.00  0.00     0.192 HD
ENDROOT
BRANCH   1   5
HETATM    5  C   UNL     1       7.180  29.325  56.885  1.00  0.00     0.121 A 
HETATM    6  N   UNL     1       6.422  30.448  56.708  1.00  0.00    -0.272 N 
HETATM    7  N   UNL     1       6.421  31.280  57.758  1.00  0.00    -0.174 NA
HETATM    8  H   UNL     1       5.885  30.696  55.882  1.00  0.00     0.189 HD
HETATM    9  C   UNL     1       7.179  30.669  58.681  1.00  0.00     0.089 A 
HETATM   10  C   UNL     1       7.686  29.443  58.164  1.00  0.00     0.071 A 
BRANCH   9  11
HETATM   11  C   UNL     1       7.399  31.254  60.009  1.00  0.00    -0.006 A 
HETATM   12  C   UNL     1       8.501  30.884  60.792  1.00  0.00     0.014 A 
HETATM   13  C   UNL     1       8.701  31.445  62.059  1.00  0.00     0.007 A 
HETATM   14  C   UNL     1       7.800  32.385  62.569  1.00  0.00    -0.062 A 
HETATM   15  C   UNL     1       8.005  32.997  63.923  1.00  0.00     0.048 C 
HETATM   16  C   UNL     1       6.699  32.759  61.792  1.00  0.00     0.007 A 
HETATM   17  C   UNL     1       6.500  32.196  60.527  1.00  0.00     0.014 A 
ENDBRANCH   9  11
ENDBRANCH   1   5
BRANCH   2  18
HETATM   18  N   UNL     1       6.796  25.934  55.447  1.00  0.00    -0.183 NA
HETATM   19  C   UNL     1       7.898  25.263  55.343  1.00  0.00     0.153 C 
BRANCH  19  20
HETATM   20  C   UNL     1       7.940  24.044  54.551  1.00  0.00     0.018 A 
HETATM   21  C   UNL     1       8.099  22.716  55.073  1.00  0.00     0.004 A 
HETATM   22  C   UNL     1       8.107  21.836  53.992  1.00  0.00     0.043 A 
HETATM   23  C   UNL     1       8.241  22.179  56.371  1.00  0.00     0.014 A 
HETATM   24  C   UNL     1       8.254  20.451  54.139  1.00  0.00     0.030 A 
HETATM   25  N   UNL     1       7.948  22.592  52.857  1.00  0.00    -0.358 N 
HETATM   26  C   UNL     1       8.395  19.948  55.434  1.00  0.00     0.002 A 
HETATM   27  C   UNL     1       8.388  20.797  56.537  1.00  0.00     0.001 A 
HETATM   28  H   UNL     1       7.913  22.212  51.922  1.00  0.00     0.166 HD
HETATM   29  C   UNL     1       7.846  23.926  53.169  1.00  0.00     0.018 A 
HETATM   30  C   UNL     1       7.670  24.950  52.106  1.00  0.00     0.069 C 
ENDBRANCH  19  20
ENDBRANCH   2  18
TORSDOF 4
ENDMDL
MODEL 3
REMARK VINA RESULT:     -10.0      6.529     11.379
REMARK  4 active torsions:
REMARK  status: ('A' for Active; 'I' for Inactive)
REMARK    1  A    between atoms: C_5  and  C_6 
REMARK    2  A    between atoms: C_10  and  C_11 
REMARK       I    between atoms: C_11  and  N_12 
REMARK    3  A    between atoms: N_12  and  N_13 
REMARK    4  A    between atoms: C_14  and  C_15 
ROOT
HETATM    1  C   UNL     1       5.441  27.102  50.778  1.00  0.00     0.289 C 
HETATM    2  N   UNL     1       6.113  25.886  50.827  1.00  0.00    -0.242 N 
HETATM    3  O   UNL     1       5.484  27.963  51.653  1.00  0.00    -0.264 OA
HETATM    4  H   UNL     1       5.812  25.151  50.198  1.00  0.00     0.192 HD
ENDROOT
BRANCH   1   5
HETATM    5  C   UNL     1       4.645  27.294  49.591  1.00  0.00     0.121 A 
HETATM    6  N   UNL     1       5.080  26.875  48.365  1.00  0.00    -0.272 N 
HETATM    7  N   UNL     1       4.225  27.122  47.364  1.00  0.00    -0.174 NA
HETATM    8  H   UNL     1       5.961  26.414  48.156  1.00  0.00     0.189 HD
HETATM    9  C   UNL     1       3.164  27.697  47.953  1.00  0.00     0.089 A 
HETATM   10  C   UNL     1       3.397  27.835  49.352  1.00  0.00     0.071 A 
BRANCH   9  11
HETATM   11  C   UNL     1       1.977  28.093  47.188  1.00  0.00    -0.006 A 
HETATM   12  C   UNL     1       1.043  27.143  46.752  1.00  0.00     0.014 A 
HETATM   13  C   UNL     1      -0.085  27.530  46.020  1.00  0.00     0.007 A 
HETATM   14  C   UNL     1      -0.301  28.875  45.707  1.00  0.00    -0.062 A 
HETATM   15  C   UNL     1      -1.508  29.305  44.927  1.00  0.00     0.048 C 
HETATM   16  C   UNL     1       0.627  29.829  46.140  1.00  0.00     0.007 A 
HETATM   17  C   UNL     1       1.754  29.440  46.870  1.00  0.00     0.014 A 
ENDBRANCH   9  11
ENDBRANCH   1   5
BRANCH   2  18
HETATM   18  N   UNL     1       6.906  25.428  51.853  1.00  0.00    -0.183 NA
HETATM   19  C   UNL     1       6.398  24.600  52.710  1.00  0.00     0.153 C 
BRANCH  19  20
HETATM   20  C   UNL     1       7.212  24.084  53.799  1.00  0.00     0.018 A 
HETATM   21  C   UNL     1       7.729  22.748  53.893  1.00  0.00     0.004 A 
HETATM   22  C   UNL     1       8.438  22.653  55.089  1.00  0.00     0.043 A 
HETATM   23  C   UNL     1       7.656  21.604  53.068  1.00  0.00     0.014 A 
HETATM   24  C   UNL     1       9.073  21.477  55.507  1.00  0.00     0.030 A 
HETATM   25  N   UNL     1       8.368  23.882  55.697  1.00  0.00    -0.358 N 
HETATM   26  C   UNL     1       8.982  20.360  54.673  1.00  0.00     0.002 A 
HETATM   27  C   UNL     1       8.285  20.420  53.469  1.00  0.00     0.001 A 
HETATM   28  H   UNL     1       8.800  24.103  56.583  1.00  0.00     0.166 HD
HETATM   29  C   UNL     1       7.634  24.761  54.938  1.00  0.00     0.018 A 
HETATM   30  C   UNL     1       7.411  26.161  55.387  1.00  0.00     0.069 C 
ENDBRANCH  19  20
ENDBRANCH   2  18
TORSDOF 4
ENDMDL
MODEL 4
REMARK VINA RESULT:     -10.0      1.374      1.707
REMARK  4 active torsions:
REMARK  status: ('A' for Active; 'I' for Inactive)
REMARK    1  A    between atoms: C_5  and  C_6 
REMARK    2  A    between atoms: C_10  and  C_11 
REMARK       I    between atoms: C_11  and  N_12 
REMARK    3  A    between atoms: N_12  and  N_13 
REMARK    4  A    between atoms: C_14  and  C_15 
ROOT
HETATM    1  C   UNL     1       8.681  30.183  58.650  1.00  0.00     0.289 C 
HETATM    2  N   UNL     1       7.928  29.070  58.298  1.00  0.00    -0.242 N 
HETATM    3  O   UNL     1       9.486  30.747  57.914  1.00  0.00    -0.264 OA
HETATM    4  H   UNL     1       7.499  28.531  59.042  1.00  0.00     0.192 HD
ENDROOT
BRANCH   1   5
HETATM    5  C   UNL     1       8.459  30.650  59.997  1.00  0.00     0.121 A 
HETATM    6  N   UNL     1       9.356  30.399  60.996  1.00  0.00    -0.272 N 
HETATM    7  N   UNL     1       9.008  30.903  62.187  1.00  0.00    -0.174 NA
HETATM    8  H   UNL     1      10.227  29.882  60.916  1.00  0.00     0.189 HD
HETATM    9  C   UNL     1       7.850  31.545  61.963  1.00  0.00     0.089 A 
HETATM   10  C   UNL     1       7.465  31.396  60.600  1.00  0.00     0.071 A 
BRANCH   9  11
HETATM   11  C   UNL     1       7.151  32.270  63.029  1.00  0.00    -0.006 A 
HETATM   12  C   UNL     1       5.751  32.292  63.096  1.00  0.00     0.014 A 
HETATM   13  C   UNL     1       5.092  32.990  64.115  1.00  0.00     0.007 A 
HETATM   14  C   UNL     1       5.821  33.682  65.087  1.00  0.00    -0.062 A 
HETATM   15  C   UNL     1       5.129  34.430  66.187  1.00  0.00     0.048 C 
HETATM   16  C   UNL     1       7.219  33.664  65.026  1.00  0.00     0.007 A 
HETATM   17  C   UNL     1       7.875  32.967  64.006  1.00  0.00     0.014 A 
ENDBRANCH   9  11
ENDBRANCH   1   5
BRANCH   2  18
HETATM   18  N   UNL     1       7.969  28.398  57.099  1.00  0.00    -0.183 NA
HETATM   19  C   UNL     1       7.260  27.322  56.964  1.00  0.00     0.153 C 
BRANCH  19  20
HETATM   20  C   UNL     1       7.268  26.594  55.705  1.00  0.00     0.018 A 
HETATM   21  C   UNL     1       7.756  25.257  55.519  1.00  0.00     0.004 A 
HETATM   22  C   UNL     1       7.604  24.937  54.171  1.00  0.00     0.043 A 
HETATM   23  C   UNL     1       8.318  24.286  56.376  1.00  0.00     0.014 A 
HETATM   24  C   UNL     1       7.987  23.701  53.634  1.00  0.00     0.030 A 
HETATM   25  N   UNL     1       7.036  26.027  53.560  1.00  0.00    -0.358 N 
HETATM   26  C   UNL     1       8.544  22.761  54.504  1.00  0.00     0.002 A 
HETATM   27  C   UNL     1       8.707  23.045  55.857  1.00  0.00     0.001 A 
HETATM   28  H   UNL     1       6.809  26.073  52.577  1.00  0.00     0.166 HD
HETATM   29  C   UNL     1       6.825  27.039  54.465  1.00  0.00     0.018 A 
HETATM   30  C   UNL     1       6.221  28.331  54.043  1.00  0.00     0.069 C 
ENDBRANCH  19  20
ENDBRANCH   2  18
TORSDOF 4
ENDMDL
MODEL 5
REMARK VINA RESULT:     -10.0      2.003     10.385
REMARK  4 active torsions:
REMARK  status: ('A' for Active; 'I' for Inactive)
REMARK    1  A    between atoms: C_5  and  C_6 
REMARK    2  A    between atoms: C_10  and  C_11 
REMARK       I    between atoms: C_11  and  N_12 
REMARK    3  A    between atoms: N_12  and  N_13 
REMARK    4  A    between atoms: C_14  and  C_15 
ROOT
HETATM    1  C   UNL     1       7.635  29.911  58.277  1.00  0.00     0.289 C 
HETATM    2  N   UNL     1       6.832  31.040  58.168  1.00  0.00    -0.242 N 
HETATM    3  O   UNL     1       8.370  29.662  59.228  1.00  0.00    -0.264 OA
HETATM    4  H   UNL     1       6.472  31.282  57.252  1.00  0.00     0.192 HD
ENDROOT
BRANCH   1   5
HETATM    5  C   UNL     1       7.557  29.016  57.148  1.00  0.00     0.121 A 
HETATM    6  N   UNL     1       7.366  29.483  55.879  1.00  0.00    -0.272 N 
HETATM    7  N   UNL     1       7.322  28.526  54.942  1.00  0.00    -0.174 NA
HETATM    8  H   UNL     1       7.255  30.453  55.597  1.00  0.00     0.189 HD
HETATM    9  C   UNL     1       7.527  27.381  55.611  1.00  0.00     0.089 A 
HETATM   10  C   UNL     1       7.666  27.647  57.004  1.00  0.00     0.071 A 
BRANCH   9  11
HETATM   11  C   UNL     1       7.587  26.086  54.924  1.00  0.00    -0.006 A 
HETATM   12  C   UNL     1       7.711  26.008  53.530  1.00  0.00     0.014 A 
HETATM   13  C   UNL     1       7.763  24.768  52.883  1.00  0.00     0.007 A 
HETATM   14  C   UNL     1       7.691  23.581  53.618  1.00  0.00    -0.062 A 
HETATM   15  C   UNL     1       7.751  22.245  52.938  1.00  0.00     0.048 C 
HETATM   16  C   UNL     1       7.569  23.652  55.010  1.00  0.00     0.007 A 
HETATM   17  C   UNL     1       7.514  24.892  55.654  1.00  0.00     0.014 A 
ENDBRANCH   9  11
ENDBRANCH   1   5
BRANCH   2  18
HETATM   18  N   UNL     1       6.741  32.072  59.072  1.00  0.00    -0.183 NA
HETATM   19  C   UNL     1       5.731  32.102  59.883  1.00  0.00     0.153 C 
BRANCH  19  20
HETATM   20  C   UNL     1       5.610  33.170  60.861  1.00  0.00     0.018 A 
HETATM   21  C   UNL     1       6.313  33.239  62.111  1.00  0.00     0.004 A 
HETATM   22  C   UNL     1       5.905  34.403  62.760  1.00  0.00     0.043 A 
HETATM   23  C   UNL     1       7.260  32.413  62.755  1.00  0.00     0.014 A 
HETATM   24  C   UNL     1       6.390  34.782  64.018  1.00  0.00     0.030 A 
HETATM   25  N   UNL     1       5.000  35.027  61.938  1.00  0.00    -0.358 N 
HETATM   26  C   UNL     1       7.324  33.945  64.633  1.00  0.00     0.002 A 
HETATM   27  C   UNL     1       7.756  32.776  64.012  1.00  0.00     0.001 A 
HETATM   28  H   UNL     1       4.542  35.900  62.157  1.00  0.00     0.166 HD
HETATM   29  C   UNL     1       4.805  34.302  60.788  1.00  0.00     0.018 A 
HETATM   30  C   UNL     1       3.864  34.771  59.736  1.00  0.00     0.069 C 
ENDBRANCH  19  20
ENDBRANCH   2  18
TORSDOF 4
ENDMDL
MODEL 6
REMARK VINA RESULT:      -9.7      6.170     11.474
REMARK  4 active torsions:
REMARK  status: ('A' for Active; 'I' for Inactive)
REMARK    1  A    between atoms: C_5  and  C_6 
REMARK    2  A    between atoms: C_10  and  C_11 
REMARK       I    between atoms: C_11  and  N_12 
REMARK    3  A    between atoms: N_12  and  N_13 
REMARK    4  A    between atoms: C_14  and  C_15 
ROOT
HETATM    1  C   UNL     1       5.486  27.044  50.771  1.00  0.00     0.289 C 
HETATM    2  N   UNL     1       6.105  25.805  50.869  1.00  0.00    -0.242 N 
HETATM    3  O   UNL     1       5.582  27.945  51.601  1.00  0.00    -0.264 OA
HETATM    4  H   UNL     1       5.761  25.053  50.283  1.00  0.00     0.192 HD
ENDROOT
BRANCH   1   5
HETATM    5  C   UNL     1       4.676  27.213  49.589  1.00  0.00     0.121 A 
HETATM    6  N   UNL     1       5.052  26.683  48.386  1.00  0.00    -0.272 N 
HETATM    7  N   UNL     1       4.191  26.923  47.387  1.00  0.00    -0.174 NA
HETATM    8  H   UNL     1       5.893  26.148  48.193  1.00  0.00     0.189 HD
HETATM    9  C   UNL     1       3.188  27.609  47.956  1.00  0.00     0.089 A 
HETATM   10  C   UNL     1       3.463  27.823  49.338  1.00  0.00     0.071 A 
BRANCH   9  11
HETATM   11  C   UNL     1       2.013  28.036  47.189  1.00  0.00    -0.006 A 
HETATM   12  C   UNL     1       1.796  29.388  46.884  1.00  0.00     0.014 A 
HETATM   13  C   UNL     1       0.670  29.786  46.154  1.00  0.00     0.007 A 
HETATM   14  C   UNL     1      -0.263  28.841  45.717  1.00  0.00    -0.062 A 
HETATM   15  C   UNL     1      -1.471  29.254  44.930  1.00  0.00     0.048 C 
HETATM   16  C   UNL     1      -0.052  27.491  46.017  1.00  0.00     0.007 A 
HETATM   17  C   UNL     1       1.072  27.096  46.748  1.00  0.00     0.014 A 
ENDBRANCH   9  11
ENDBRANCH   1   5
BRANCH   2  18
HETATM   18  N   UNL     1       6.897  25.363  51.903  1.00  0.00    -0.183 NA
HETATM   19  C   UNL     1       6.433  24.451  52.697  1.00  0.00     0.153 C 
BRANCH  19  20
HETATM   20  C   UNL     1       7.248  23.950  53.792  1.00  0.00     0.018 A 
HETATM   21  C   UNL     1       7.551  24.665  55.000  1.00  0.00     0.004 A 
HETATM   22  C   UNL     1       8.370  23.849  55.778  1.00  0.00     0.043 A 
HETATM   23  C   UNL     1       7.205  25.938  55.504  1.00  0.00     0.014 A 
HETATM   24  C   UNL     1       8.865  24.239  57.029  1.00  0.00     0.030 A 
HETATM   25  N   UNL     1       8.552  22.680  55.082  1.00  0.00    -0.358 N 
HETATM   26  C   UNL     1       8.510  25.504  57.501  1.00  0.00     0.002 A 
HETATM   27  C   UNL     1       7.690  26.344  56.752  1.00  0.00     0.001 A 
HETATM   28  H   UNL     1       9.104  21.901  55.413  1.00  0.00     0.166 HD
HETATM   29  C   UNL     1       7.885  22.718  53.881  1.00  0.00     0.018 A 
HETATM   30  C   UNL     1       7.932  21.566  52.942  1.00  0.00     0.069 C 
ENDBRANCH  19  20
ENDBRANCH   2  18
TORSDOF 4
ENDMDL
MODEL 7
REMARK VINA RESULT:      -9.5      7.128     14.904
REMARK  4 active torsions:
REMARK  status: ('A' for Active; 'I' for Inactive)
REMARK    1  A    between atoms: C_5  and  C_6 
REMARK    2  A    between atoms: C_10  and  C_11 
REMARK       I    between atoms: C_11  and  N_12 
REMARK    3  A    between atoms: N_12  and  N_13 
REMARK    4  A    between atoms: C_14  and  C_15 
ROOT
HETATM    1  C   UNL     1       5.654  34.223  66.904  1.00  0.00     0.289 C 
HETATM    2  N   UNL     1       6.812  34.558  67.594  1.00  0.00    -0.242 N 
HETATM    3  O   UNL     1       4.514  34.352  67.342  1.00  0.00    -0.264 OA
HETATM    4  H   UNL     1       7.691  34.179  67.261  1.00  0.00     0.192 HD
ENDROOT
BRANCH   1   5
HETATM    5  C   UNL     1       5.882  33.679  65.587  1.00  0.00     0.121 A 
HETATM    6  N   UNL     1       4.855  33.192  64.829  1.00  0.00    -0.272 N 
HETATM    7  N   UNL     1       5.230  32.726  63.630  1.00  0.00    -0.174 NA
HETATM    8  H   UNL     1       3.874  33.151  65.088  1.00  0.00     0.189 HD
HETATM    9  C   UNL     1       6.553  32.944  63.576  1.00  0.00     0.089 A 
HETATM   10  C   UNL     1       7.003  33.530  64.794  1.00  0.00     0.071 A 
BRANCH   9  11
HETATM   11  C   UNL     1       7.344  32.599  62.389  1.00  0.00    -0.006 A 
HETATM   12  C   UNL     1       6.802  32.700  61.100  1.00  0.00     0.014 A 
HETATM   13  C   UNL     1       7.563  32.365  59.974  1.00  0.00     0.007 A 
HETATM   14  C   UNL     1       8.882  31.920  60.116  1.00  0.00    -0.062 A 
HETATM   15  C   UNL     1       9.710  31.563  58.918  1.00  0.00     0.048 C 
HETATM   16  C   UNL     1       9.429  31.819  61.399  1.00  0.00     0.007 A 
HETATM   17  C   UNL     1       8.665  32.152  62.523  1.00  0.00     0.014 A 
ENDBRANCH   9  11
ENDBRANCH   1   5
BRANCH   2  18
HETATM   18  N   UNL     1       6.890  35.057  68.873  1.00  0.00    -0.183 NA
HETATM   19  C   UNL     1       7.974  34.861  69.554  1.00  0.00     0.153 C 
BRANCH  19  20
HETATM   20  C   UNL     1       8.096  35.387  70.904  1.00  0.00     0.018 A 
HETATM   21  C   UNL     1       8.128  36.778  71.257  1.00  0.00     0.004 A 
HETATM   22  C   UNL     1       8.271  36.859  72.640  1.00  0.00     0.043 A 
HETATM   23  C   UNL     1       8.052  37.982  70.522  1.00  0.00     0.014 A 
HETATM   24  C   UNL     1       8.347  38.076  73.328  1.00  0.00     0.030 A 
HETATM   25  N   UNL     1       8.313  35.571  73.116  1.00  0.00    -0.358 N 
HETATM   26  C   UNL     1       8.272  39.251  72.577  1.00  0.00     0.002 A 
HETATM   27  C   UNL     1       8.125  39.208  71.193  1.00  0.00     0.001 A 
HETATM   28  H   UNL     1       8.409  35.330  74.093  1.00  0.00     0.166 HD
HETATM   29  C   UNL     1       8.209  34.667  72.088  1.00  0.00     0.018 A 
HETATM   30  C   UNL     1       8.233  33.203  72.349  1.00  0.00     0.069 C 
ENDBRANCH  19  20
ENDBRANCH   2  18
TORSDOF 4
ENDMDL
MODEL 8
REMARK VINA RESULT:      -9.2      2.629      3.479
REMARK  4 active torsions:
REMARK  status: ('A' for Active; 'I' for Inactive)
REMARK    1  A    between atoms: C_5  and  C_6 
REMARK    2  A    between atoms: C_10  and  C_11 
REMARK       I    between atoms: C_11  and  N_12 
REMARK    3  A    between atoms: N_12  and  N_13 
REMARK    4  A    between atoms: C_14  and  C_15 
ROOT
HETATM    1  C   UNL     1       6.136  31.583  58.545  1.00  0.00     0.289 C 
HETATM    2  N   UNL     1       6.057  30.257  58.136  1.00  0.00    -0.242 N 
HETATM    3  O   UNL     1       6.027  32.554  57.801  1.00  0.00    -0.264 OA
HETATM    4  H   UNL     1       6.414  29.544  58.762  1.00  0.00     0.192 HD
ENDROOT
BRANCH   1   5
HETATM    5  C   UNL     1       6.378  31.757  59.957  1.00  0.00     0.121 A 
HETATM    6  N   UNL     1       7.386  31.091  60.595  1.00  0.00    -0.272 N 
HETATM    7  N   UNL     1       7.483  31.363  61.903  1.00  0.00    -0.174 NA
HETATM    8  H   UNL     1       8.039  30.432  60.180  1.00  0.00     0.189 HD
HETATM    9  C   UNL     1       6.524  32.273  62.136  1.00  0.00     0.089 A 
HETATM   10  C   UNL     1       5.798  32.535  60.938  1.00  0.00     0.071 A 
BRANCH   9  11
HETATM   11  C   UNL     1       6.324  32.860  63.465  1.00  0.00    -0.006 A 
HETATM   12  C   UNL     1       5.037  33.109  63.963  1.00  0.00     0.014 A 
HETATM   13  C   UNL     1       4.856  33.673  65.231  1.00  0.00     0.007 A 
HETATM   14  C   UNL     1       5.958  34.002  66.026  1.00  0.00    -0.062 A 
HETATM   15  C   UNL     1       5.779  34.602  67.388  1.00  0.00     0.048 C 
HETATM   16  C   UNL     1       7.245  33.755  65.535  1.00  0.00     0.007 A 
HETATM   17  C   UNL     1       7.424  33.193  64.267  1.00  0.00     0.014 A 
ENDBRANCH   9  11
ENDBRANCH   1   5
BRANCH   2  18
HETATM   18  N   UNL     1       5.873  29.805  56.851  1.00  0.00    -0.183 NA
HETATM   19  C   UNL     1       4.918  28.962  56.617  1.00  0.00     0.153 C 
BRANCH  19  20
HETATM   20  C   UNL     1       4.687  28.474  55.267  1.00  0.00     0.018 A 
HETATM   21  C   UNL     1       5.078  27.186  54.768  1.00  0.00     0.004 A 
HETATM   22  C   UNL     1       4.692  27.117  53.431  1.00  0.00     0.043 A 
HETATM   23  C   UNL     1       5.730  26.068  55.333  1.00  0.00     0.014 A 
HETATM   24  C   UNL     1       4.927  25.994  52.628  1.00  0.00     0.030 A 
HETATM   25  N   UNL     1       4.080  28.308  53.127  1.00  0.00    -0.358 N 
HETATM   26  C   UNL     1       5.577  24.904  53.211  1.00  0.00     0.002 A 
HETATM   27  C   UNL     1       5.974  24.937  54.545  1.00  0.00     0.001 A 
HETATM   28  H   UNL     1       3.696  28.534  52.220  1.00  0.00     0.166 HD
HETATM   29  C   UNL     1       4.066  29.142  54.218  1.00  0.00     0.018 A 
HETATM   30  C   UNL     1       3.458  30.497  54.139  1.00  0.00     0.069 C 
ENDBRANCH  19  20
ENDBRANCH   2  18
TORSDOF 4
ENDMDL
MODEL 9
REMARK VINA RESULT:      -9.1      2.688     11.027
REMARK  4 active torsions:
REMARK  status: ('A' for Active; 'I' for Inactive)
REMARK    1  A    between atoms: C_5  and  C_6 
REMARK    2  A    between atoms: C_10  and  C_11 
REMARK       I    between atoms: C_11  and  N_12 
REMARK    3  A    between atoms: N_12  and  N_13 
REMARK    4  A    between atoms: C_14  and  C_15 
ROOT
HETATM    1  C   UNL     1       6.830  31.509  58.780  1.00  0.00     0.289 C 
HETATM    2  N   UNL     1       7.164  31.566  60.128  1.00  0.00    -0.242 N 
HETATM    3  O   UNL     1       6.381  32.448  58.128  1.00  0.00    -0.264 OA
HETATM    4  H   UNL     1       7.274  30.692  60.628  1.00  0.00     0.192 HD
ENDROOT
BRANCH   1   5
HETATM    5  C   UNL     1       7.040  30.219  58.170  1.00  0.00     0.121 A 
HETATM    6  N   UNL     1       7.765  29.243  58.795  1.00  0.00    -0.272 N 
HETATM    7  N   UNL     1       7.864  28.102  58.100  1.00  0.00    -0.174 NA
HETATM    8  H   UNL     1       8.218  29.308  59.701  1.00  0.00     0.189 HD
HETATM    9  C   UNL     1       7.146  28.315  56.986  1.00  0.00     0.089 A 
HETATM   10  C   UNL     1       6.624  29.641  56.987  1.00  0.00     0.071 A 
BRANCH   9  11
HETATM   11  C   UNL     1       6.977  27.274  55.966  1.00  0.00    -0.006 A 
HETATM   12  C   UNL     1       7.548  27.405  54.692  1.00  0.00     0.014 A 
HETATM   13  C   UNL     1       7.378  26.408  53.724  1.00  0.00     0.007 A 
HETATM   14  C   UNL     1       6.632  25.261  54.011  1.00  0.00    -0.062 A 
HETATM   15  C   UNL     1       6.446  24.183  52.985  1.00  0.00     0.048 C 
HETATM   16  C   UNL     1       6.061  25.124  55.281  1.00  0.00     0.007 A 
HETATM   17  C   UNL     1       6.230  26.122  56.245  1.00  0.00     0.014 A 
ENDBRANCH   9  11
ENDBRANCH   1   5
BRANCH   2  18
HETATM   18  N   UNL     1       7.030  32.652  60.961  1.00  0.00    -0.183 NA
HETATM   19  C   UNL     1       6.016  32.698  61.766  1.00  0.00     0.153 C 
BRANCH  19  20
HETATM   20  C   UNL     1       5.851  33.824  62.670  1.00  0.00     0.018 A 
HETATM   21  C   UNL     1       4.974  34.941  62.459  1.00  0.00     0.004 A 
HETATM   22  C   UNL     1       5.123  35.804  63.542  1.00  0.00     0.043 A 
HETATM   23  C   UNL     1       4.064  35.299  61.440  1.00  0.00     0.014 A 
HETATM   24  C   UNL     1       4.417  37.008  63.659  1.00  0.00     0.030 A 
HETATM   25  N   UNL     1       6.044  35.236  64.387  1.00  0.00    -0.358 N 
HETATM   26  C   UNL     1       3.527  37.340  62.635  1.00  0.00     0.002 A 
HETATM   27  C   UNL     1       3.349  36.498  61.540  1.00  0.00     0.001 A 
HETATM   28  H   UNL     1       6.344  35.646  65.260  1.00  0.00     0.166 HD
HETATM   29  C   UNL     1       6.497  34.041  63.882  1.00  0.00     0.018 A 
HETATM   30  C   UNL     1       7.507  33.233  64.615  1.00  0.00     0.069 C 
ENDBRANCH  19  20
ENDBRANCH   2  18
TORSDOF 4
ENDMDL
MODEL 10
REMARK VINA RESULT:      -9.0      5.913      9.699
REMARK  4 active torsions:
REMARK  status: ('A' for Active; 'I' for Inactive)
REMARK    1  A    between atoms: C_5  and  C_6 
REMARK    2  A    between atoms: C_10  and  C_11 
REMARK       I    between atoms: C_11  and  N_12 
REMARK    3  A    between atoms: N_12  and  N_13 
REMARK    4  A    between atoms: C_14  and  C_15 
ROOT
HETATM    1  C   UNL     1       4.569  27.393  53.709  1.00  0.00     0.289 C 
HETATM    2  N   UNL     1       5.120  26.140  53.469  1.00  0.00    -0.242 N 
HETATM    3  O   UNL     1       4.465  27.914  54.816  1.00  0.00    -0.264 OA
HETATM    4  H   UNL     1       4.924  25.697  52.579  1.00  0.00     0.192 HD
ENDROOT
BRANCH   1   5
HETATM    5  C   UNL     1       4.091  28.069  52.527  1.00  0.00     0.121 A 
HETATM    6  N   UNL     1       2.809  28.533  52.440  1.00  0.00    -0.272 N 
HETATM    7  N   UNL     1       2.522  29.141  51.281  1.00  0.00    -0.174 NA
HETATM    8  H   UNL     1       2.084  28.456  53.147  1.00  0.00     0.189 HD
HETATM    9  C   UNL     1       3.670  29.111  50.585  1.00  0.00     0.089 A 
HETATM   10  C   UNL     1       4.676  28.433  51.330  1.00  0.00     0.071 A 
BRANCH   9  11
HETATM   11  C   UNL     1       3.781  29.718  49.254  1.00  0.00    -0.006 A 
HETATM   12  C   UNL     1       4.541  29.115  48.242  1.00  0.00     0.014 A 
HETATM   13  C   UNL     1       4.644  29.703  46.976  1.00  0.00     0.007 A 
HETATM   14  C   UNL     1       3.990  30.907  46.697  1.00  0.00    -0.062 A 
HETATM   15  C   UNL     1       4.088  31.545  45.344  1.00  0.00     0.048 C 
HETATM   16  C   UNL     1       3.228  31.513  47.702  1.00  0.00     0.007 A 
HETATM   17  C   UNL     1       3.129  30.925  48.967  1.00  0.00     0.014 A 
ENDBRANCH   9  11
ENDBRANCH   1   5
BRANCH   2  18
HETATM   18  N   UNL     1       5.613  25.267  54.410  1.00  0.00    -0.183 NA
HETATM   19  C   UNL     1       6.895  25.106  54.499  1.00  0.00     0.153 C 
BRANCH  19  20
HETATM   20  C   UNL     1       7.452  24.202  55.492  1.00  0.00     0.018 A 
HETATM   21  C   UNL     1       7.764  22.818  55.277  1.00  0.00     0.004 A 
HETATM   22  C   UNL     1       8.257  22.305  56.475  1.00  0.00     0.043 A 
HETATM   23  C   UNL     1       7.670  21.948  54.168  1.00  0.00     0.014 A 
HETATM   24  C   UNL     1       8.655  20.971  56.627  1.00  0.00     0.030 A 
HETATM   25  N   UNL     1       8.257  23.335  57.383  1.00  0.00    -0.358 N 
HETATM   26  C   UNL     1       8.548  20.132  55.515  1.00  0.00     0.002 A 
HETATM   27  C   UNL     1       8.064  20.612  54.300  1.00  0.00     0.001 A 
HETATM   28  H   UNL     1       8.569  23.248  58.340  1.00  0.00     0.166 HD
HETATM   29  C   UNL     1       7.776  24.488  56.814  1.00  0.00     0.018 A 
HETATM   30  C   UNL     1       7.674  25.747  57.599  1.00  0.00     0.069 C 
ENDBRANCH  19  20
ENDBRANCH   2  18
TORSDOF 4
ENDMDL
