MODEL 1
REMARK VINA RESULT:      -9.8      0.000      0.000
REMARK  6 active torsions:
REMARK  status: ('A' for Active; 'I' for Inactive)
REMARK    1  A    between atoms: O_2  and  C_3 
REMARK    2  A    between atoms: C_5  and  O_6 
REMARK    3  A    between atoms: C_8  and  N_9 
REMARK       I    between atoms: N_9  and  C_10 
REMARK    4  A    between atoms: C_10  and  C_11 
REMARK    5  A    between atoms: C_11  and  N_12 
REMARK    6  A    between atoms: C_17  and  C_18 
ROOT
HETATM    1  N   UNL     1       8.190  24.188  56.256  1.00  0.00    -0.326 N 
HETATM    2  C   UNL     1       8.381  22.867  56.649  1.00  0.00     0.255 C 
HETATM    3  O   UNL     1       8.731  22.458  57.739  1.00  0.00    -0.267 OA
HETATM    4  C   UNL     1       8.170  22.021  55.468  1.00  0.00     0.040 A 
HETATM    5  C   UNL     1       7.931  22.851  54.374  1.00  0.00    -0.015 A 
HETATM    6  C   UNL     1       8.020  24.279  54.812  1.00  0.00     0.158 C 
HETATM    7  C   UNL     1       8.265  20.646  55.356  1.00  0.00     0.017 A 
HETATM    8  C   UNL     1       8.097  20.091  54.086  1.00  0.00     0.001 A 
HETATM    9  C   UNL     1       7.843  20.915  52.973  1.00  0.00     0.001 A 
HETATM   10  C   UNL     1       7.764  22.305  53.110  1.00  0.00     0.011 A 
ENDROOT
BRANCH   1  11
HETATM   11  C   UNL     1       8.870  25.254  56.973  1.00  0.00     0.230 C 
BRANCH  11  12
HETATM   12  C   UNL     1       8.003  26.352  57.595  1.00  0.00     0.240 C 
HETATM   13  N   UNL     1       8.149  27.601  57.018  1.00  0.00    -0.323 N 
HETATM   14  H   UNL     1       8.729  27.660  56.186  1.00  0.00     0.169 HD
HETATM   15  O   UNL     1       7.408  26.111  58.646  1.00  0.00    -0.271 OA
BRANCH  13  16
HETATM   16  C   UNL     1       7.669  28.837  57.518  1.00  0.00     0.068 A 
HETATM   17  C   UNL     1       6.572  29.445  56.869  1.00  0.00     0.097 A 
HETATM   18  C   UNL     1       6.126  30.714  57.278  1.00  0.00     0.075 A 
HETATM   19  C   UNL     1       6.739  31.370  58.347  1.00  0.00     0.070 A 
HETATM   20  C   UNL     1       7.779  30.742  59.024  1.00  0.00     0.039 A 
HETATM   21  C   UNL     1       8.245  29.491  58.611  1.00  0.00     0.035 A 
BRANCH  17  22
HETATM   22  O   UNL     1       6.017  28.735  55.827  1.00  0.00    -0.354 OA
HETATM   23  C   UNL     1       5.121  29.445  54.980  1.00  0.00     0.210 C 
ENDBRANCH  17  22
BRANCH  19  24
HETATM   24  O   UNL     1       6.406  32.605  58.832  1.00  0.00    -0.356 OA
HETATM   25  C   UNL     1       5.983  32.671  60.187  1.00  0.00     0.210 C 
ENDBRANCH  19  24
ENDBRANCH  13  16
ENDBRANCH  11  12
ENDBRANCH   1  11
BRANCH   6  26
HETATM   26  C   UNL     1       6.736  24.965  54.494  1.00  0.00    -0.003 A 
HETATM   27  C   UNL     1       6.349  25.451  53.200  1.00  0.00     0.001 A 
HETATM   28  C   UNL     1       5.122  26.098  53.341  1.00  0.00     0.043 A 
HETATM   29  C   UNL     1       6.942  25.417  51.920  1.00  0.00     0.014 A 
HETATM   30  C   UNL     1       4.465  26.725  52.276  1.00  0.00     0.030 A 
HETATM   31  N   UNL     1       4.755  25.988  54.660  1.00  0.00    -0.365 N 
HETATM   32  C   UNL     1       5.078  26.681  51.021  1.00  0.00     0.002 A 
HETATM   33  C   UNL     1       6.297  26.032  50.842  1.00  0.00     0.001 A 
HETATM   34  H   UNL     1       3.907  26.373  55.052  1.00  0.00     0.165 HD
HETATM   35  C   UNL     1       5.712  25.312  55.363  1.00  0.00     0.099 A 
ENDBRANCH   6  26
TORSDOF 6
ENDMDL
MODEL 2
REMARK VINA RESULT:      -9.6      1.510      2.158
REMARK  6 active torsions:
REMARK  status: ('A' for Active; 'I' for Inactive)
REMARK    1  A    between atoms: O_2  and  C_3 
REMARK    2  A    between atoms: C_5  and  O_6 
REMARK    3  A    between atoms: C_8  and  N_9 
REMARK       I    between atoms: N_9  and  C_10 
REMARK    4  A    between atoms: C_10  and  C_11 
REMARK    5  A    between atoms: C_11  and  N_12 
REMARK    6  A    between atoms: C_17  and  C_18 
ROOT
HETATM    1  N   UNL     1       7.658  24.813  55.888  1.00  0.00    -0.326 N 
HETATM    2  C   UNL     1       7.977  23.572  56.429  1.00  0.00     0.255 C 
HETATM    3  O   UNL     1       8.252  23.311  57.585  1.00  0.00    -0.267 OA
HETATM    4  C   UNL     1       8.016  22.606  55.324  1.00  0.00     0.040 A 
HETATM    5  C   UNL     1       7.794  23.296  54.135  1.00  0.00    -0.015 A 
HETATM    6  C   UNL     1       7.642  24.755  54.434  1.00  0.00     0.158 C 
HETATM    7  C   UNL     1       8.305  21.254  55.362  1.00  0.00     0.017 A 
HETATM    8  C   UNL     1       8.357  20.574  54.143  1.00  0.00     0.001 A 
HETATM    9  C   UNL     1       8.124  21.255  52.933  1.00  0.00     0.001 A 
HETATM   10  C   UNL     1       7.845  22.626  52.921  1.00  0.00     0.011 A 
ENDROOT
BRANCH   1  11
HETATM   11  C   UNL     1       8.105  26.023  56.559  1.00  0.00     0.230 C 
BRANCH  11  12
HETATM   12  C   UNL     1       7.084  27.149  56.739  1.00  0.00     0.240 C 
HETATM   13  N   UNL     1       7.618  28.425  56.701  1.00  0.00    -0.323 N 
HETATM   14  H   UNL     1       8.602  28.507  56.462  1.00  0.00     0.169 HD
HETATM   15  O   UNL     1       5.939  26.860  57.087  1.00  0.00    -0.271 OA
BRANCH  13  16
HETATM   16  C   UNL     1       6.974  29.635  57.065  1.00  0.00     0.068 A 
HETATM   17  C   UNL     1       7.341  30.254  58.279  1.00  0.00     0.097 A 
HETATM   18  C   UNL     1       6.662  31.404  58.718  1.00  0.00     0.075 A 
HETATM   19  C   UNL     1       5.642  31.962  57.945  1.00  0.00     0.070 A 
HETATM   20  C   UNL     1       5.325  31.385  56.719  1.00  0.00     0.039 A 
HETATM   21  C   UNL     1       5.978  30.230  56.285  1.00  0.00     0.035 A 
BRANCH  17  22
HETATM   22  O   UNL     1       8.358  29.647  58.983  1.00  0.00    -0.354 OA
HETATM   23  C   UNL     1       8.960  30.415  60.019  1.00  0.00     0.210 C 
ENDBRANCH  17  22
BRANCH  19  24
HETATM   24  O   UNL     1       4.903  33.067  58.264  1.00  0.00    -0.356 OA
HETATM   25  C   UNL     1       4.712  34.033  57.238  1.00  0.00     0.210 C 
ENDBRANCH  19  24
ENDBRANCH  13  16
ENDBRANCH  11  12
ENDBRANCH   1  11
BRANCH   6  26
HETATM   26  C   UNL     1       6.323  25.221  53.921  1.00  0.00    -0.003 A 
HETATM   27  C   UNL     1       6.039  26.539  53.426  1.00  0.00     0.001 A 
HETATM   28  C   UNL     1       4.678  26.592  53.123  1.00  0.00     0.043 A 
HETATM   29  C   UNL     1       6.813  27.701  53.226  1.00  0.00     0.014 A 
HETATM   30  C   UNL     1       4.050  27.748  52.647  1.00  0.00     0.030 A 
HETATM   31  N   UNL     1       4.155  25.351  53.392  1.00  0.00    -0.365 N 
HETATM   32  C   UNL     1       4.840  28.886  52.464  1.00  0.00     0.002 A 
HETATM   33  C   UNL     1       6.203  28.864  52.744  1.00  0.00     0.001 A 
HETATM   34  H   UNL     1       3.183  25.101  53.270  1.00  0.00     0.165 HD
HETATM   35  C   UNL     1       5.128  24.519  53.870  1.00  0.00     0.099 A 
ENDBRANCH   6  26
TORSDOF 6
ENDMDL
MODEL 3
REMARK VINA RESULT:      -9.5      1.960      3.224
REMARK  6 active torsions:
REMARK  status: ('A' for Active; 'I' for Inactive)
REMARK    1  A    between atoms: O_2  and  C_3 
REMARK    2  A    between atoms: C_5  and  O_6 
REMARK    3  A    between atoms: C_8  and  N_9 
REMARK       I    between atoms: N_9  and  C_10 
REMARK    4  A    between atoms: C_10  and  C_11 
REMARK    5  A    between atoms: C_11  and  N_12 
REMARK    6  A    between atoms: C_17  and  C_18 
ROOT
HETATM    1  N   UNL     1       5.617  26.482  54.406  1.00  0.00    -0.326 N 
HETATM    2  C   UNL     1       5.762  25.397  55.264  1.00  0.00     0.255 C 
HETATM    3  O   UNL     1       5.327  25.277  56.394  1.00  0.00    -0.267 OA
HETATM    4  C   UNL     1       6.630  24.419  54.597  1.00  0.00     0.040 A 
HETATM    5  C   UNL     1       7.050  24.965  53.386  1.00  0.00    -0.015 A 
HETATM    6  C   UNL     1       6.491  26.347  53.249  1.00  0.00     0.158 C 
HETATM    7  C   UNL     1       7.074  23.194  55.059  1.00  0.00     0.017 A 
HETATM    8  C   UNL     1       7.970  22.489  54.253  1.00  0.00     0.001 A 
HETATM    9  C   UNL     1       8.395  23.022  53.021  1.00  0.00     0.001 A 
HETATM   10  C   UNL     1       7.941  24.270  52.581  1.00  0.00     0.011 A 
ENDROOT
BRANCH   1  11
HETATM   11  C   UNL     1       5.344  27.799  54.956  1.00  0.00     0.230 C 
BRANCH  11  12
HETATM   12  C   UNL     1       6.496  28.524  55.659  1.00  0.00     0.240 C 
HETATM   13  N   UNL     1       6.253  28.850  56.981  1.00  0.00    -0.323 N 
HETATM   14  H   UNL     1       5.392  28.500  57.393  1.00  0.00     0.169 HD
HETATM   15  O   UNL     1       7.441  28.928  54.981  1.00  0.00    -0.271 OA
BRANCH  13  16
HETATM   16  C   UNL     1       7.018  29.713  57.805  1.00  0.00     0.068 A 
HETATM   17  C   UNL     1       6.447  30.939  58.209  1.00  0.00     0.097 A 
HETATM   18  C   UNL     1       7.207  31.861  58.950  1.00  0.00     0.075 A 
HETATM   19  C   UNL     1       8.520  31.562  59.320  1.00  0.00     0.070 A 
HETATM   20  C   UNL     1       9.059  30.327  58.973  1.00  0.00     0.039 A 
HETATM   21  C   UNL     1       8.319  29.414  58.218  1.00  0.00     0.035 A 
BRANCH  17  22
HETATM   22  O   UNL     1       5.147  31.161  57.810  1.00  0.00    -0.354 OA
HETATM   23  C   UNL     1       4.931  32.257  56.927  1.00  0.00     0.210 C 
ENDBRANCH  17  22
BRANCH  19  24
HETATM   24  O   UNL     1       9.362  32.373  60.028  1.00  0.00    -0.356 OA
HETATM   25  C   UNL     1       9.629  32.006  61.375  1.00  0.00     0.210 C 
ENDBRANCH  19  24
ENDBRANCH  13  16
ENDBRANCH  11  12
ENDBRANCH   1  11
BRANCH   6  26
HETATM   26  C   UNL     1       5.690  26.424  51.996  1.00  0.00    -0.003 A 
HETATM   27  C   UNL     1       5.395  27.626  51.267  1.00  0.00     0.001 A 
HETATM   28  C   UNL     1       4.556  27.283  50.207  1.00  0.00     0.043 A 
HETATM   29  C   UNL     1       5.749  28.983  51.426  1.00  0.00     0.014 A 
HETATM   30  C   UNL     1       4.043  28.224  49.308  1.00  0.00     0.030 A 
HETATM   31  N   UNL     1       4.369  25.923  50.263  1.00  0.00    -0.365 N 
HETATM   32  C   UNL     1       4.405  29.561  49.492  1.00  0.00     0.002 A 
HETATM   33  C   UNL     1       5.250  29.937  50.532  1.00  0.00     0.001 A 
HETATM   34  H   UNL     1       3.797  25.398  49.617  1.00  0.00     0.165 HD
HETATM   35  C   UNL     1       5.042  25.395  51.328  1.00  0.00     0.099 A 
ENDBRANCH   6  26
TORSDOF 6
ENDMDL
MODEL 4
REMARK VINA RESULT:      -9.4      2.073      3.190
REMARK  6 active torsions:
REMARK  status: ('A' for Active; 'I' for Inactive)
REMARK    1  A    between atoms: O_2  and  C_3 
REMARK    2  A    between atoms: C_5  and  O_6 
REMARK    3  A    between atoms: C_8  and  N_9 
REMARK       I    between atoms: N_9  and  C_10 
REMARK    4  A    between atoms: C_10  and  C_11 
REMARK    5  A    between atoms: C_11  and  N_12 
REMARK    6  A    between atoms: C_17  and  C_18 
ROOT
HETATM    1  N   UNL     1       7.721  27.188  56.157  1.00  0.00    -0.326 N 
HETATM    2  C   UNL     1       8.112  25.969  56.702  1.00  0.00     0.255 C 
HETATM    3  O   UNL     1       8.673  25.772  57.762  1.00  0.00    -0.267 OA
HETATM    4  C   UNL     1       7.807  24.926  55.713  1.00  0.00     0.040 A 
HETATM    5  C   UNL     1       7.310  25.545  54.568  1.00  0.00    -0.015 A 
HETATM    6  C   UNL     1       7.314  27.028  54.768  1.00  0.00     0.158 C 
HETATM    7  C   UNL     1       8.030  23.564  55.791  1.00  0.00     0.017 A 
HETATM    8  C   UNL     1       7.722  22.797  54.665  1.00  0.00     0.001 A 
HETATM    9  C   UNL     1       7.208  23.405  53.505  1.00  0.00     0.001 A 
HETATM   10  C   UNL     1       7.003  24.788  53.447  1.00  0.00     0.011 A 
ENDROOT
BRANCH   1  11
HETATM   11  C   UNL     1       8.388  28.408  56.580  1.00  0.00     0.230 C 
BRANCH  11  12
HETATM   12  C   UNL     1       7.799  29.157  57.778  1.00  0.00     0.240 C 
HETATM   13  N   UNL     1       8.666  30.047  58.387  1.00  0.00    -0.323 N 
HETATM   14  H   UNL     1       9.564  30.198  57.936  1.00  0.00     0.169 HD
HETATM   15  O   UNL     1       6.711  28.794  58.225  1.00  0.00    -0.271 OA
BRANCH  13  16
HETATM   16  C   UNL     1       8.490  30.697  59.634  1.00  0.00     0.068 A 
HETATM   17  C   UNL     1       7.666  31.842  59.686  1.00  0.00     0.097 A 
HETATM   18  C   UNL     1       7.541  32.567  60.884  1.00  0.00     0.075 A 
HETATM   19  C   UNL     1       8.202  32.145  62.040  1.00  0.00     0.070 A 
HETATM   20  C   UNL     1       8.964  30.982  62.000  1.00  0.00     0.039 A 
HETATM   21  C   UNL     1       9.112  30.267  60.809  1.00  0.00     0.035 A 
BRANCH  17  22
HETATM   22  O   UNL     1       7.044  32.193  58.508  1.00  0.00    -0.354 OA
HETATM   23  C   UNL     1       5.622  32.262  58.536  1.00  0.00     0.210 C 
ENDBRANCH  17  22
BRANCH  19  24
HETATM   24  O   UNL     1       8.169  32.765  63.258  1.00  0.00    -0.356 OA
HETATM   25  C   UNL     1       6.929  33.335  63.656  1.00  0.00     0.210 C 
ENDBRANCH  19  24
ENDBRANCH  13  16
ENDBRANCH  11  12
ENDBRANCH   1  11
BRANCH   6  26
HETATM   26  C   UNL     1       5.930  27.547  54.581  1.00  0.00    -0.003 A 
HETATM   27  C   UNL     1       5.368  27.993  53.337  1.00  0.00     0.001 A 
HETATM   28  C   UNL     1       4.087  28.476  53.601  1.00  0.00     0.043 A 
HETATM   29  C   UNL     1       5.842  28.049  52.009  1.00  0.00     0.014 A 
HETATM   30  C   UNL     1       3.262  29.024  52.613  1.00  0.00     0.030 A 
HETATM   31  N   UNL     1       3.859  28.306  54.945  1.00  0.00    -0.365 N 
HETATM   32  C   UNL     1       3.759  29.072  51.308  1.00  0.00     0.002 A 
HETATM   33  C   UNL     1       5.028  28.587  51.006  1.00  0.00     0.001 A 
HETATM   34  H   UNL     1       3.008  28.574  55.419  1.00  0.00     0.165 HD
HETATM   35  C   UNL     1       4.954  27.751  55.545  1.00  0.00     0.099 A 
ENDBRANCH   6  26
TORSDOF 6
ENDMDL
MODEL 5
REMARK VINA RESULT:      -9.4      3.120      7.538
REMARK  6 active torsions:
REMARK  status: ('A' for Active; 'I' for Inactive)
REMARK    1  A    between atoms: O_2  and  C_3 
REMARK    2  A    between atoms: C_5  and  O_6 
REMARK    3  A    between atoms: C_8  and  N_9 
REMARK       I    between atoms: N_9  and  C_10 
REMARK    4  A    between atoms: C_10  and  C_11 
REMARK    5  A    between atoms: C_11  and  N_12 
REMARK    6  A    between atoms: C_17  and  C_18 
ROOT
HETATM    1  N   UNL     1       5.614  26.790  54.927  1.00  0.00    -0.326 N 
HETATM    2  C   UNL     1       5.111  27.865  55.654  1.00  0.00     0.255 C 
HETATM    3  O   UNL     1       4.016  28.383  55.555  1.00  0.00    -0.267 OA
HETATM    4  C   UNL     1       6.187  28.349  56.528  1.00  0.00     0.040 A 
HETATM    5  C   UNL     1       7.335  27.606  56.258  1.00  0.00    -0.015 A 
HETATM    6  C   UNL     1       7.043  26.633  55.158  1.00  0.00     0.158 C 
HETATM    7  C   UNL     1       6.173  29.405  57.420  1.00  0.00     0.017 A 
HETATM    8  C   UNL     1       7.369  29.711  58.074  1.00  0.00     0.001 A 
HETATM    9  C   UNL     1       8.534  28.962  57.821  1.00  0.00     0.001 A 
HETATM   10  C   UNL     1       8.525  27.905  56.904  1.00  0.00     0.011 A 
ENDROOT
BRANCH   1  11
HETATM   11  C   UNL     1       5.055  26.484  53.622  1.00  0.00     0.230 C 
BRANCH  11  12
HETATM   12  C   UNL     1       5.216  27.533  52.519  1.00  0.00     0.240 C 
HETATM   13  N   UNL     1       4.234  27.506  51.546  1.00  0.00    -0.323 N 
HETATM   14  H   UNL     1       3.452  26.874  51.696  1.00  0.00     0.169 HD
HETATM   15  O   UNL     1       6.266  28.174  52.462  1.00  0.00    -0.271 OA
BRANCH  13  16
HETATM   16  C   UNL     1       4.242  28.183  50.300  1.00  0.00     0.068 A 
HETATM   17  C   UNL     1       4.259  27.414  49.117  1.00  0.00     0.097 A 
HETATM   18  C   UNL     1       4.360  28.048  47.866  1.00  0.00     0.075 A 
HETATM   19  C   UNL     1       4.412  29.440  47.779  1.00  0.00     0.070 A 
HETATM   20  C   UNL     1       4.332  30.197  48.944  1.00  0.00     0.039 A 
HETATM   21  C   UNL     1       4.254  29.576  50.193  1.00  0.00     0.035 A 
BRANCH  17  22
HETATM   22  O   UNL     1       4.201  26.048  49.283  1.00  0.00    -0.354 OA
HETATM   23  C   UNL     1       3.382  25.330  48.366  1.00  0.00     0.210 C 
ENDBRANCH  17  22
BRANCH  19  24
HETATM   24  O   UNL     1       4.519  30.172  46.629  1.00  0.00    -0.356 OA
HETATM   25  C   UNL     1       3.349  30.844  46.182  1.00  0.00     0.210 C 
ENDBRANCH  19  24
ENDBRANCH  13  16
ENDBRANCH  11  12
ENDBRANCH   1  11
BRANCH   6  26
HETATM   26  C   UNL     1       7.331  25.253  55.642  1.00  0.00    -0.003 A 
HETATM   27  C   UNL     1       7.597  24.115  54.808  1.00  0.00     0.001 A 
HETATM   28  C   UNL     1       7.732  23.004  55.640  1.00  0.00     0.043 A 
HETATM   29  C   UNL     1       7.715  23.925  53.415  1.00  0.00     0.014 A 
HETATM   30  C   UNL     1       7.964  21.713  55.152  1.00  0.00     0.030 A 
HETATM   31  N   UNL     1       7.586  23.445  56.932  1.00  0.00    -0.365 N 
HETATM   32  C   UNL     1       8.071  21.553  53.768  1.00  0.00     0.002 A 
HETATM   33  C   UNL     1       7.954  22.642  52.910  1.00  0.00     0.001 A 
HETATM   34  H   UNL     1       7.631  22.851  57.748  1.00  0.00     0.165 HD
HETATM   35  C   UNL     1       7.345  24.790  56.950  1.00  0.00     0.099 A 
ENDBRANCH   6  26
TORSDOF 6
ENDMDL
MODEL 6
REMARK VINA RESULT:      -9.2      3.412      7.185
REMARK  6 active torsions:
REMARK  status: ('A' for Active; 'I' for Inactive)
REMARK    1  A    between atoms: O_2  and  C_3 
REMARK    2  A    between atoms: C_5  and  O_6 
REMARK    3  A    between atoms: C_8  and  N_9 
REMARK       I    between atoms: N_9  and  C_10 
REMARK    4  A    between atoms: C_10  and  C_11 
REMARK    5  A    between atoms: C_11  and  N_12 
REMARK    6  A    between atoms: C_17  and  C_18 
ROOT
HETATM    1  N   UNL     1       7.240  25.411  53.385  1.00  0.00    -0.326 N 
HETATM    2  C   UNL     1       7.871  24.421  52.637  1.00  0.00     0.255 C 
HETATM    3  O   UNL     1       8.237  24.482  51.479  1.00  0.00    -0.267 OA
HETATM    4  C   UNL     1       7.945  23.216  53.473  1.00  0.00     0.040 A 
HETATM    5  C   UNL     1       7.294  23.481  54.677  1.00  0.00    -0.015 A 
HETATM    6  C   UNL     1       6.736  24.870  54.639  1.00  0.00     0.158 C 
HETATM    7  C   UNL     1       8.467  21.974  53.163  1.00  0.00     0.017 A 
HETATM    8  C   UNL     1       8.335  20.965  54.118  1.00  0.00     0.001 A 
HETATM    9  C   UNL     1       7.690  21.219  55.344  1.00  0.00     0.001 A 
HETATM   10  C   UNL     1       7.159  22.482  55.629  1.00  0.00     0.011 A 
ENDROOT
BRANCH   1  11
HETATM   11  C   UNL     1       6.505  26.464  52.704  1.00  0.00     0.230 C 
BRANCH  11  12
HETATM   12  C   UNL     1       5.442  26.040  51.687  1.00  0.00     0.240 C 
HETATM   13  N   UNL     1       5.408  26.802  50.534  1.00  0.00    -0.323 N 
HETATM   14  H   UNL     1       6.140  27.498  50.418  1.00  0.00     0.169 HD
HETATM   15  O   UNL     1       4.594  25.214  52.028  1.00  0.00    -0.271 OA
BRANCH  13  16
HETATM   16  C   UNL     1       4.401  26.802  49.535  1.00  0.00     0.068 A 
HETATM   17  C   UNL     1       3.495  27.884  49.493  1.00  0.00     0.097 A 
HETATM   18  C   UNL     1       2.429  27.875  48.577  1.00  0.00     0.075 A 
HETATM   19  C   UNL     1       2.273  26.815  47.682  1.00  0.00     0.070 A 
HETATM   20  C   UNL     1       3.203  25.780  47.685  1.00  0.00     0.039 A 
HETATM   21  C   UNL     1       4.253  25.769  48.606  1.00  0.00     0.035 A 
BRANCH  17  22
HETATM   22  O   UNL     1       3.716  28.893  50.404  1.00  0.00    -0.354 OA
HETATM   23  C   UNL     1       2.732  29.061  51.418  1.00  0.00     0.210 C 
ENDBRANCH  17  22
BRANCH  19  24
HETATM   24  O   UNL     1       1.277  26.684  46.754  1.00  0.00    -0.356 OA
HETATM   25  C   UNL     1       0.534  27.854  46.439  1.00  0.00     0.210 C 
ENDBRANCH  19  24
ENDBRANCH  13  16
ENDBRANCH  11  12
ENDBRANCH   1  11
BRANCH   6  26
HETATM   26  C   UNL     1       7.289  25.645  55.785  1.00  0.00    -0.003 A 
HETATM   27  C   UNL     1       6.782  26.900  56.265  1.00  0.00     0.001 A 
HETATM   28  C   UNL     1       7.622  27.331  57.291  1.00  0.00     0.043 A 
HETATM   29  C   UNL     1       5.692  27.722  55.904  1.00  0.00     0.014 A 
HETATM   30  C   UNL     1       7.440  28.545  57.964  1.00  0.00     0.030 A 
HETATM   31  N   UNL     1       8.587  26.368  57.456  1.00  0.00    -0.365 N 
HETATM   32  C   UNL     1       6.357  29.341  57.583  1.00  0.00     0.002 A 
HETATM   33  C   UNL     1       5.491  28.935  56.571  1.00  0.00     0.001 A 
HETATM   34  H   UNL     1       9.337  26.419  58.130  1.00  0.00     0.165 HD
HETATM   35  C   UNL     1       8.400  25.352  56.561  1.00  0.00     0.099 A 
ENDBRANCH   6  26
TORSDOF 6
ENDMDL
MODEL 7
REMARK VINA RESULT:      -9.2      1.898      3.052
REMARK  6 active torsions:
REMARK  status: ('A' for Active; 'I' for Inactive)
REMARK    1  A    between atoms: O_2  and  C_3 
REMARK    2  A    between atoms: C_5  and  O_6 
REMARK    3  A    between atoms: C_8  and  N_9 
REMARK       I    between atoms: N_9  and  C_10 
REMARK    4  A    between atoms: C_10  and  C_11 
REMARK    5  A    between atoms: C_11  and  N_12 
REMARK    6  A    between atoms: C_17  and  C_18 
ROOT
HETATM    1  N   UNL     1       7.861  26.580  56.670  1.00  0.00    -0.326 N 
HETATM    2  C   UNL     1       8.221  25.320  57.138  1.00  0.00     0.255 C 
HETATM    3  O   UNL     1       8.745  25.041  58.199  1.00  0.00    -0.267 OA
HETATM    4  C   UNL     1       7.939  24.355  56.068  1.00  0.00     0.040 A 
HETATM    5  C   UNL     1       7.486  25.060  54.955  1.00  0.00    -0.015 A 
HETATM    6  C   UNL     1       7.499  26.525  55.261  1.00  0.00     0.158 C 
HETATM    7  C   UNL     1       8.145  22.988  56.055  1.00  0.00     0.017 A 
HETATM    8  C   UNL     1       7.867  22.307  54.868  1.00  0.00     0.001 A 
HETATM    9  C   UNL     1       7.397  23.003  53.738  1.00  0.00     0.001 A 
HETATM   10  C   UNL     1       7.208  24.389  53.773  1.00  0.00     0.011 A 
ENDROOT
BRANCH   1  11
HETATM   11  C   UNL     1       8.527  27.758  57.201  1.00  0.00     0.230 C 
BRANCH  11  12
HETATM   12  C   UNL     1       7.820  29.106  57.032  1.00  0.00     0.240 C 
HETATM   13  N   UNL     1       6.898  29.403  58.019  1.00  0.00    -0.323 N 
HETATM   14  H   UNL     1       6.843  28.764  58.808  1.00  0.00     0.169 HD
HETATM   15  O   UNL     1       7.963  29.720  55.974  1.00  0.00    -0.271 OA
BRANCH  13  16
HETATM   16  C   UNL     1       5.936  30.445  58.009  1.00  0.00     0.068 A 
HETATM   17  C   UNL     1       6.334  31.732  58.431  1.00  0.00     0.097 A 
HETATM   18  C   UNL     1       5.388  32.768  58.522  1.00  0.00     0.075 A 
HETATM   19  C   UNL     1       4.056  32.544  58.166  1.00  0.00     0.070 A 
HETATM   20  C   UNL     1       3.681  31.291  57.692  1.00  0.00     0.039 A 
HETATM   21  C   UNL     1       4.608  30.250  57.619  1.00  0.00     0.035 A 
BRANCH  17  22
HETATM   22  O   UNL     1       7.664  31.876  58.761  1.00  0.00    -0.354 OA
HETATM   23  C   UNL     1       7.950  32.225  60.111  1.00  0.00     0.210 C 
ENDBRANCH  17  22
BRANCH  19  24
HETATM   24  O   UNL     1       3.044  33.461  58.219  1.00  0.00    -0.356 OA
HETATM   25  C   UNL     1       2.989  34.294  59.370  1.00  0.00     0.210 C 
ENDBRANCH  19  24
ENDBRANCH  13  16
ENDBRANCH  11  12
ENDBRANCH   1  11
BRANCH   6  26
HETATM   26  C   UNL     1       6.127  27.073  55.068  1.00  0.00    -0.003 A 
HETATM   27  C   UNL     1       5.674  27.797  53.913  1.00  0.00     0.001 A 
HETATM   28  C   UNL     1       4.363  28.205  54.158  1.00  0.00     0.043 A 
HETATM   29  C   UNL     1       6.269  28.162  52.686  1.00  0.00     0.014 A 
HETATM   30  C   UNL     1       3.622  28.969  53.249  1.00  0.00     0.030 A 
HETATM   31  N   UNL     1       4.014  27.726  55.397  1.00  0.00    -0.365 N 
HETATM   32  C   UNL     1       4.238  29.321  52.045  1.00  0.00     0.002 A 
HETATM   33  C   UNL     1       5.540  28.920  51.763  1.00  0.00     0.001 A 
HETATM   34  H   UNL     1       3.117  27.876  55.837  1.00  0.00     0.165 HD
HETATM   35  C   UNL     1       5.061  27.046  55.954  1.00  0.00     0.099 A 
ENDBRANCH   6  26
TORSDOF 6
ENDMDL
MODEL 8
REMARK VINA RESULT:      -9.1      1.527      4.475
REMARK  6 active torsions:
REMARK  status: ('A' for Active; 'I' for Inactive)
REMARK    1  A    between atoms: O_2  and  C_3 
REMARK    2  A    between atoms: C_5  and  O_6 
REMARK    3  A    between atoms: C_8  and  N_9 
REMARK       I    between atoms: N_9  and  C_10 
REMARK    4  A    between atoms: C_10  and  C_11 
REMARK    5  A    between atoms: C_11  and  N_12 
REMARK    6  A    between atoms: C_17  and  C_18 
ROOT
HETATM    1  N   UNL     1       7.589  25.803  54.571  1.00  0.00    -0.326 N 
HETATM    2  C   UNL     1       7.461  26.898  53.721  1.00  0.00     0.255 C 
HETATM    3  O   UNL     1       7.977  27.993  53.834  1.00  0.00    -0.267 OA
HETATM    4  C   UNL     1       6.496  26.535  52.676  1.00  0.00     0.040 A 
HETATM    5  C   UNL     1       6.008  25.260  52.958  1.00  0.00    -0.015 A 
HETATM    6  C   UNL     1       6.621  24.770  54.233  1.00  0.00     0.158 C 
HETATM    7  C   UNL     1       6.030  27.296  51.620  1.00  0.00     0.017 A 
HETATM    8  C   UNL     1       5.040  26.736  50.811  1.00  0.00     0.001 A 
HETATM    9  C   UNL     1       4.545  25.445  51.075  1.00  0.00     0.001 A 
HETATM   10  C   UNL     1       5.023  24.699  52.158  1.00  0.00     0.011 A 
ENDROOT
BRANCH   1  11
HETATM   11  C   UNL     1       7.969  26.014  55.958  1.00  0.00     0.230 C 
BRANCH  11  12
HETATM   12  C   UNL     1       7.207  27.084  56.744  1.00  0.00     0.240 C 
HETATM   13  N   UNL     1       7.843  28.310  56.818  1.00  0.00    -0.323 N 
HETATM   14  H   UNL     1       8.693  28.423  56.272  1.00  0.00     0.169 HD
HETATM   15  O   UNL     1       6.219  26.747  57.396  1.00  0.00    -0.271 OA
BRANCH  13  16
HETATM   16  C   UNL     1       7.506  29.402  57.657  1.00  0.00     0.068 A 
HETATM   17  C   UNL     1       6.456  30.258  57.259  1.00  0.00     0.097 A 
HETATM   18  C   UNL     1       6.153  31.402  58.017  1.00  0.00     0.075 A 
HETATM   19  C   UNL     1       6.863  31.686  59.185  1.00  0.00     0.070 A 
HETATM   20  C   UNL     1       7.855  30.808  59.608  1.00  0.00     0.039 A 
HETATM   21  C   UNL     1       8.179  29.680  58.850  1.00  0.00     0.035 A 
BRANCH  17  22
HETATM   22  O   UNL     1       5.800  29.910  56.098  1.00  0.00    -0.354 OA
HETATM   23  C   UNL     1       4.412  29.618  56.216  1.00  0.00     0.210 C 
ENDBRANCH  17  22
BRANCH  19  24
HETATM   24  O   UNL     1       6.672  32.767  60.001  1.00  0.00    -0.356 OA
HETATM   25  C   UNL     1       6.722  32.532  61.402  1.00  0.00     0.210 C 
ENDBRANCH  19  24
ENDBRANCH  13  16
ENDBRANCH  11  12
ENDBRANCH   1  11
BRANCH   6  26
HETATM   26  C   UNL     1       7.323  23.482  53.970  1.00  0.00    -0.003 A 
HETATM   27  C   UNL     1       7.754  22.548  54.971  1.00  0.00     0.001 A 
HETATM   28  C   UNL     1       8.438  21.520  54.324  1.00  0.00     0.043 A 
HETATM   29  C   UNL     1       7.641  22.493  56.377  1.00  0.00     0.014 A 
HETATM   30  C   UNL     1       9.027  20.450  55.007  1.00  0.00     0.030 A 
HETATM   31  N   UNL     1       8.403  21.794  52.978  1.00  0.00    -0.365 N 
HETATM   32  C   UNL     1       8.906  20.424  56.398  1.00  0.00     0.002 A 
HETATM   33  C   UNL     1       8.218  21.427  57.076  1.00  0.00     0.001 A 
HETATM   34  H   UNL     1       8.827  21.218  52.266  1.00  0.00     0.165 HD
HETATM   35  C   UNL     1       7.738  22.967  52.751  1.00  0.00     0.099 A 
ENDBRANCH   6  26
TORSDOF 6
ENDMDL
MODEL 9
REMARK VINA RESULT:      -9.0      2.949      6.083
REMARK  6 active torsions:
REMARK  status: ('A' for Active; 'I' for Inactive)
REMARK    1  A    between atoms: O_2  and  C_3 
REMARK    2  A    between atoms: C_5  and  O_6 
REMARK    3  A    between atoms: C_8  and  N_9 
REMARK       I    between atoms: N_9  and  C_10 
REMARK    4  A    between atoms: C_10  and  C_11 
REMARK    5  A    between atoms: C_11  and  N_12 
REMARK    6  A    between atoms: C_17  and  C_18 
ROOT
HETATM    1  N   UNL     1       6.811  24.075  54.099  1.00  0.00    -0.326 N 
HETATM    2  C   UNL     1       7.535  23.064  53.473  1.00  0.00     0.255 C 
HETATM    3  O   UNL     1       7.654  22.863  52.280  1.00  0.00    -0.267 OA
HETATM    4  C   UNL     1       8.079  22.195  54.525  1.00  0.00     0.040 A 
HETATM    5  C   UNL     1       7.611  22.655  55.754  1.00  0.00    -0.015 A 
HETATM    6  C   UNL     1       6.707  23.827  55.530  1.00  0.00     0.158 C 
HETATM    7  C   UNL     1       8.847  21.053  54.397  1.00  0.00     0.017 A 
HETATM    8  C   UNL     1       9.166  20.358  55.565  1.00  0.00     0.001 A 
HETATM    9  C   UNL     1       8.711  20.816  56.816  1.00  0.00     0.001 A 
HETATM   10  C   UNL     1       7.924  21.968  56.918  1.00  0.00     0.011 A 
ENDROOT
BRANCH   1  11
HETATM   11  C   UNL     1       5.711  24.709  53.393  1.00  0.00     0.230 C 
BRANCH  11  12
HETATM   12  C   UNL     1       5.976  26.074  52.752  1.00  0.00     0.240 C 
HETATM   13  N   UNL     1       4.928  26.574  52.001  1.00  0.00    -0.323 N 
HETATM   14  H   UNL     1       4.055  26.053  52.020  1.00  0.00     0.169 HD
HETATM   15  O   UNL     1       7.120  26.528  52.781  1.00  0.00    -0.271 OA
BRANCH  13  16
HETATM   16  C   UNL     1       4.960  27.679  51.113  1.00  0.00     0.068 A 
HETATM   17  C   UNL     1       4.702  27.450  49.744  1.00  0.00     0.097 A 
HETATM   18  C   UNL     1       4.815  28.504  48.820  1.00  0.00     0.075 A 
HETATM   19  C   UNL     1       5.150  29.789  49.248  1.00  0.00     0.070 A 
HETATM   20  C   UNL     1       5.343  30.025  50.606  1.00  0.00     0.039 A 
HETATM   21  C   UNL     1       5.255  28.980  51.529  1.00  0.00     0.035 A 
BRANCH  17  22
HETATM   22  O   UNL     1       4.373  26.158  49.399  1.00  0.00    -0.354 OA
HETATM   23  C   UNL     1       3.641  25.989  48.190  1.00  0.00     0.210 C 
ENDBRANCH  17  22
BRANCH  19  24
HETATM   24  O   UNL     1       5.300  30.890  48.452  1.00  0.00    -0.356 OA
HETATM   25  C   UNL     1       4.192  31.251  47.637  1.00  0.00     0.210 C 
ENDBRANCH  19  24
ENDBRANCH  13  16
ENDBRANCH  11  12
ENDBRANCH   1  11
BRANCH   6  26
HETATM   26  C   UNL     1       7.232  24.997  56.287  1.00  0.00    -0.003 A 
HETATM   27  C   UNL     1       6.508  26.206  56.563  1.00  0.00     0.001 A 
HETATM   28  C   UNL     1       7.375  27.079  57.219  1.00  0.00     0.043 A 
HETATM   29  C   UNL     1       5.194  26.647  56.293  1.00  0.00     0.014 A 
HETATM   30  C   UNL     1       7.004  28.371  57.607  1.00  0.00     0.030 A 
HETATM   31  N   UNL     1       8.572  26.423  57.369  1.00  0.00    -0.365 N 
HETATM   32  C   UNL     1       5.699  28.783  57.323  1.00  0.00     0.002 A 
HETATM   33  C   UNL     1       4.804  27.933  56.680  1.00  0.00     0.001 A 
HETATM   34  H   UNL     1       9.391  26.820  57.808  1.00  0.00     0.165 HD
HETATM   35  C   UNL     1       8.502  25.176  56.816  1.00  0.00     0.099 A 
ENDBRANCH   6  26
TORSDOF 6
ENDMDL
MODEL 10
REMARK VINA RESULT:      -9.0      3.610      7.395
REMARK  6 active torsions:
REMARK  status: ('A' for Active; 'I' for Inactive)
REMARK    1  A    between atoms: O_2  and  C_3 
REMARK    2  A    between atoms: C_5  and  O_6 
REMARK    3  A    between atoms: C_8  and  N_9 
REMARK       I    between atoms: N_9  and  C_10 
REMARK    4  A    between atoms: C_10  and  C_11 
REMARK    5  A    between atoms: C_11  and  N_12 
REMARK    6  A    between atoms: C_17  and  C_18 
ROOT
HETATM    1  N   UNL     1       5.590  26.410  53.453  1.00  0.00    -0.326 N 
HETATM    2  C   UNL     1       5.682  25.232  52.717  1.00  0.00     0.255 C 
HETATM    3  O   UNL     1       5.075  24.936  51.706  1.00  0.00    -0.267 OA
HETATM    4  C   UNL     1       6.598  24.335  53.433  1.00  0.00     0.040 A 
HETATM    5  C   UNL     1       6.980  24.959  54.619  1.00  0.00    -0.015 A 
HETATM    6  C   UNL     1       6.283  26.279  54.727  1.00  0.00     0.158 C 
HETATM    7  C   UNL     1       6.989  23.051  53.104  1.00  0.00     0.017 A 
HETATM    8  C   UNL     1       7.813  22.378  54.009  1.00  0.00     0.001 A 
HETATM    9  C   UNL     1       8.217  22.998  55.206  1.00  0.00     0.001 A 
HETATM   10  C   UNL     1       7.797  24.295  55.522  1.00  0.00     0.011 A 
ENDROOT
BRANCH   1  11
HETATM   11  C   UNL     1       4.386  27.218  53.363  1.00  0.00     0.230 C 
BRANCH  11  12
HETATM   12  C   UNL     1       4.311  28.252  52.236  1.00  0.00     0.240 C 
HETATM   13  N   UNL     1       3.500  27.892  51.175  1.00  0.00    -0.323 N 
HETATM   14  H   UNL     1       2.957  27.039  51.277  1.00  0.00     0.169 HD
HETATM   15  O   UNL     1       5.093  29.202  52.253  1.00  0.00    -0.271 OA
BRANCH  13  16
HETATM   16  C   UNL     1       3.417  28.521  49.907  1.00  0.00     0.068 A 
HETATM   17  C   UNL     1       3.801  27.786  48.765  1.00  0.00     0.097 A 
HETATM   18  C   UNL     1       3.820  28.404  47.502  1.00  0.00     0.075 A 
HETATM   19  C   UNL     1       3.431  29.738  47.361  1.00  0.00     0.070 A 
HETATM   20  C   UNL     1       2.996  30.441  48.479  1.00  0.00     0.039 A 
HETATM   21  C   UNL     1       2.994  29.843  49.741  1.00  0.00     0.035 A 
BRANCH  17  22
HETATM   22  O   UNL     1       4.166  26.476  48.984  1.00  0.00    -0.354 OA
HETATM   23  C   UNL     1       3.362  25.479  48.362  1.00  0.00     0.210 C 
ENDBRANCH  17  22
BRANCH  19  24
HETATM   24  O   UNL     1       3.416  30.452  46.195  1.00  0.00    -0.356 OA
HETATM   25  C   UNL     1       4.421  31.445  46.035  1.00  0.00     0.210 C 
ENDBRANCH  19  24
ENDBRANCH  13  16
ENDBRANCH  11  12
ENDBRANCH   1  11
BRANCH   6  26
HETATM   26  C   UNL     1       7.303  27.356  54.864  1.00  0.00    -0.003 A 
HETATM   27  C   UNL     1       7.669  28.007  56.091  1.00  0.00     0.001 A 
HETATM   28  C   UNL     1       8.591  29.006  55.780  1.00  0.00     0.043 A 
HETATM   29  C   UNL     1       7.283  27.850  57.439  1.00  0.00     0.014 A 
HETATM   30  C   UNL     1       9.136  29.864  56.743  1.00  0.00     0.030 A 
HETATM   31  N   UNL     1       8.806  28.952  54.425  1.00  0.00    -0.365 N 
HETATM   32  C   UNL     1       8.731  29.690  58.069  1.00  0.00     0.002 A 
HETATM   33  C   UNL     1       7.822  28.694  58.415  1.00  0.00     0.001 A 
HETATM   34  H   UNL     1       9.427  29.567  53.919  1.00  0.00     0.165 HD
HETATM   35  C   UNL     1       8.042  27.969  53.863  1.00  0.00     0.099 A 
ENDBRANCH   6  26
TORSDOF 6
ENDMDL
