MODEL 1
REMARK VINA RESULT:      -8.6      0.000      0.000
REMARK  7 active torsions:
REMARK  status: ('A' for Active; 'I' for Inactive)
REMARK       I    between atoms: C_2  and  N_3 
REMARK    1  A    between atoms: N_3  and  C_4 
REMARK    2  A    between atoms: C_7  and  N_8 
REMARK       I    between atoms: N_8  and  C_9 
REMARK    3  A    between atoms: C_9  and  C_10 
REMARK    4  A    between atoms: C_11  and  C_12 
REMARK    5  A    between atoms: C_13  and  O_14 
REMARK    6  A    between atoms: N_20  and  C_21 
REMARK    7  A    between atoms: C_24  and  O_25 
ROOT
HETATM    1  C   UNL     1       5.095  28.675  50.856  1.00  0.00     0.106 C 
HETATM    2  C   UNL     1       4.313  28.992  49.571  1.00  0.00     0.142 C 
HETATM    3  N   UNL     1       2.843  28.790  49.719  1.00  0.00    -0.308 N 
HETATM    4  C   UNL     1       2.190  29.168  50.903  1.00  0.00     0.225 C 
HETATM    5  O   UNL     1       0.991  29.434  50.989  1.00  0.00    -0.273 OA
HETATM    6  C   UNL     1       3.000  29.121  52.187  1.00  0.00     0.104 C 
HETATM    7  C   UNL     1       4.485  29.379  52.060  1.00  0.00     0.026 C 
ENDROOT
BRANCH   1   8
HETATM    8  C   UNL     1       5.273  27.175  51.125  1.00  0.00     0.228 C 
HETATM    9  N   UNL     1       5.755  26.853  52.379  1.00  0.00    -0.327 N 
HETATM   10  H   UNL     1       5.696  27.562  53.101  1.00  0.00     0.169 HD
HETATM   11  O   UNL     1       5.082  26.377  50.210  1.00  0.00    -0.273 OA
BRANCH   9  12
HETATM   12  C   UNL     1       6.356  25.642  52.781  1.00  0.00     0.034 A 
HETATM   13  C   UNL     1       7.419  25.036  52.113  1.00  0.00     0.032 A 
HETATM   14  C   UNL     1       8.032  23.887  52.637  1.00  0.00     0.032 A 
HETATM   15  C   UNL     1       7.594  23.329  53.836  1.00  0.00     0.034 A 
HETATM   16  C   UNL     1       6.507  23.918  54.489  1.00  0.00     0.032 A 
HETATM   17  C   UNL     1       5.894  25.064  53.968  1.00  0.00     0.032 A 
BRANCH  15  18
HETATM   18  N   UNL     1       8.193  22.211  54.455  1.00  0.00    -0.328 N 
HETATM   19  C   UNL     1       8.165  20.897  54.026  1.00  0.00     0.218 C 
HETATM   20  C   UNL     1       8.985  19.976  54.897  1.00  0.00     0.117 C 
HETATM   21  O   UNL     1       7.585  20.455  53.040  1.00  0.00    -0.274 OA
HETATM   22  H   UNL     1       8.732  22.410  55.288  1.00  0.00     0.169 HD
ENDBRANCH  15  18
ENDBRANCH   9  12
ENDBRANCH   1   8
BRANCH   2  23
HETATM   23  C   UNL     1       4.685  30.392  49.050  1.00  0.00    -0.001 A 
HETATM   24  C   UNL     1       4.871  30.597  47.664  1.00  0.00     0.076 A 
HETATM   25  C   UNL     1       5.277  31.849  47.189  1.00  0.00     0.037 A 
HETATM   26  C   UNL     1       5.492  32.907  48.072  1.00  0.00     0.003 A 
HETATM   27  C   UNL     1       5.295  32.724  49.434  1.00  0.00     0.001 A 
HETATM   28  C   UNL     1       4.894  31.479  49.921  1.00  0.00     0.012 A 
BRANCH  24  29
HETATM   29  O   UNL     1       4.638  29.507  46.864  1.00  0.00    -0.355 OA
HETATM   30  C   UNL     1       5.555  28.422  46.952  1.00  0.00     0.210 C 
ENDBRANCH  24  29
ENDBRANCH   2  23
BRANCH   3  31
HETATM   31  C   UNL     1       2.087  28.378  48.549  1.00  0.00     0.038 A 
HETATM   32  C   UNL     1       1.285  29.288  47.846  1.00  0.00     0.032 A 
HETATM   33  C   UNL     1       0.497  28.884  46.759  1.00  0.00     0.039 A 
HETATM   34  C   UNL     1       0.477  27.556  46.344  1.00  0.00     0.068 A 
HETATM   35  C   UNL     1       1.270  26.636  47.021  1.00  0.00     0.039 A 
HETATM   36  C   UNL     1       2.059  27.044  48.110  1.00  0.00     0.032 A 
BRANCH  34  37
HETATM   37  O   UNL     1      -0.342  27.291  45.285  1.00  0.00    -0.356 OA
HETATM   38  C   UNL     1      -0.955  28.406  44.651  1.00  0.00     0.210 C 
ENDBRANCH  34  37
ENDBRANCH   3  31
TORSDOF 7
ENDMDL
MODEL 2
REMARK VINA RESULT:      -8.4      2.179      4.904
REMARK  7 active torsions:
REMARK  status: ('A' for Active; 'I' for Inactive)
REMARK       I    between atoms: C_2  and  N_3 
REMARK    1  A    between atoms: N_3  and  C_4 
REMARK    2  A    between atoms: C_7  and  N_8 
REMARK       I    between atoms: N_8  and  C_9 
REMARK    3  A    between atoms: C_9  and  C_10 
REMARK    4  A    between atoms: C_11  and  C_12 
REMARK    5  A    between atoms: C_13  and  O_14 
REMARK    6  A    between atoms: N_20  and  C_21 
REMARK    7  A    between atoms: C_24  and  O_25 
ROOT
HETATM    1  C   UNL     1       3.893  27.840  48.901  1.00  0.00     0.106 C 
HETATM    2  C   UNL     1       3.306  28.972  49.760  1.00  0.00     0.142 C 
HETATM    3  N   UNL     1       4.340  29.700  50.549  1.00  0.00    -0.308 N 
HETATM    4  C   UNL     1       5.591  29.992  49.982  1.00  0.00     0.225 C 
HETATM    5  O   UNL     1       6.333  30.903  50.350  1.00  0.00    -0.273 OA
HETATM    6  C   UNL     1       6.113  29.035  48.925  1.00  0.00     0.104 C 
HETATM    7  C   UNL     1       5.076  28.329  48.080  1.00  0.00     0.026 C 
ENDROOT
BRANCH   1   8
HETATM    8  C   UNL     1       4.255  26.578  49.694  1.00  0.00     0.228 C 
HETATM    9  N   UNL     1       4.730  26.800  50.973  1.00  0.00    -0.327 N 
HETATM   10  H   UNL     1       4.554  27.707  51.388  1.00  0.00     0.169 HD
HETATM   11  O   UNL     1       4.202  25.484  49.135  1.00  0.00    -0.273 OA
BRANCH   9  12
HETATM   12  C   UNL     1       5.470  25.909  51.779  1.00  0.00     0.034 A 
HETATM   13  C   UNL     1       6.800  25.564  51.547  1.00  0.00     0.032 A 
HETATM   14  C   UNL     1       7.498  24.754  52.456  1.00  0.00     0.032 A 
HETATM   15  C   UNL     1       6.879  24.279  53.610  1.00  0.00     0.034 A 
HETATM   16  C   UNL     1       5.535  24.599  53.826  1.00  0.00     0.032 A 
HETATM   17  C   UNL     1       4.836  25.407  52.920  1.00  0.00     0.032 A 
BRANCH  15  18
HETATM   18  N   UNL     1       7.528  23.509  54.598  1.00  0.00    -0.328 N 
HETATM   19  C   UNL     1       7.853  22.166  54.538  1.00  0.00     0.218 C 
HETATM   20  C   UNL     1       8.618  21.691  55.751  1.00  0.00     0.117 C 
HETATM   21  O   UNL     1       7.607  21.388  53.624  1.00  0.00    -0.274 OA
HETATM   22  H   UNL     1       7.816  24.014  55.426  1.00  0.00     0.169 HD
ENDBRANCH  15  18
ENDBRANCH   9  12
ENDBRANCH   1   8
BRANCH   2  23
HETATM   23  C   UNL     1       2.434  29.901  48.897  1.00  0.00    -0.001 A 
HETATM   24  C   UNL     1       1.247  29.404  48.312  1.00  0.00     0.076 A 
HETATM   25  C   UNL     1       0.484  30.221  47.470  1.00  0.00     0.037 A 
HETATM   26  C   UNL     1       0.879  31.533  47.208  1.00  0.00     0.003 A 
HETATM   27  C   UNL     1       2.034  32.039  47.790  1.00  0.00     0.001 A 
HETATM   28  C   UNL     1       2.804  31.233  48.629  1.00  0.00     0.012 A 
BRANCH  24  29
HETATM   29  O   UNL     1       0.928  28.106  48.621  1.00  0.00    -0.355 OA
HETATM   30  C   UNL     1       0.723  27.206  47.538  1.00  0.00     0.210 C 
ENDBRANCH  24  29
ENDBRANCH   2  23
BRANCH   3  31
HETATM   31  C   UNL     1       3.954  30.261  51.832  1.00  0.00     0.038 A 
HETATM   32  C   UNL     1       4.078  29.519  53.016  1.00  0.00     0.032 A 
HETATM   33  C   UNL     1       3.643  30.025  54.248  1.00  0.00     0.039 A 
HETATM   34  C   UNL     1       3.060  31.286  54.339  1.00  0.00     0.068 A 
HETATM   35  C   UNL     1       2.932  32.043  53.181  1.00  0.00     0.039 A 
HETATM   36  C   UNL     1       3.370  31.534  51.946  1.00  0.00     0.032 A 
BRANCH  34  37
HETATM   37  O   UNL     1       2.667  31.654  55.593  1.00  0.00    -0.356 OA
HETATM   38  C   UNL     1       3.074  30.817  56.667  1.00  0.00     0.210 C 
ENDBRANCH  34  37
ENDBRANCH   3  31
TORSDOF 7
ENDMDL
MODEL 3
REMARK VINA RESULT:      -8.2     10.275     13.396
REMARK  7 active torsions:
REMARK  status: ('A' for Active; 'I' for Inactive)
REMARK       I    between atoms: C_2  and  N_3 
REMARK    1  A    between atoms: N_3  and  C_4 
REMARK    2  A    between atoms: C_7  and  N_8 
REMARK       I    between atoms: N_8  and  C_9 
REMARK    3  A    between atoms: C_9  and  C_10 
REMARK    4  A    between atoms: C_11  and  C_12 
REMARK    5  A    between atoms: C_13  and  O_14 
REMARK    6  A    between atoms: N_20  and  C_21 
REMARK    7  A    between atoms: C_24  and  O_25 
ROOT
HETATM    1  C   UNL     1       4.896  32.570  60.848  1.00  0.00     0.106 C 
HETATM    2  C   UNL     1       5.366  33.949  61.337  1.00  0.00     0.142 C 
HETATM    3  N   UNL     1       4.304  34.991  61.252  1.00  0.00    -0.308 N 
HETATM    4  C   UNL     1       2.976  34.680  61.586  1.00  0.00     0.225 C 
HETATM    5  O   UNL     1       2.132  35.500  61.947  1.00  0.00    -0.273 OA
HETATM    6  C   UNL     1       2.522  33.248  61.362  1.00  0.00     0.104 C 
HETATM    7  C   UNL     1       3.579  32.174  61.499  1.00  0.00     0.026 C 
ENDROOT
BRANCH   1   8
HETATM    8  C   UNL     1       4.817  32.443  59.321  1.00  0.00     0.228 C 
HETATM    9  N   UNL     1       4.279  31.259  58.853  1.00  0.00    -0.327 N 
HETATM   10  H   UNL     1       3.740  30.700  59.504  1.00  0.00     0.169 HD
HETATM   11  O   UNL     1       5.312  33.324  58.621  1.00  0.00    -0.273 OA
BRANCH   9  12
HETATM   12  C   UNL     1       4.412  30.707  57.562  1.00  0.00     0.034 A 
HETATM   13  C   UNL     1       3.473  30.861  56.544  1.00  0.00     0.032 A 
HETATM   14  C   UNL     1       3.728  30.371  55.254  1.00  0.00     0.032 A 
HETATM   15  C   UNL     1       4.926  29.722  54.962  1.00  0.00     0.034 A 
HETATM   16  C   UNL     1       5.855  29.539  55.992  1.00  0.00     0.032 A 
HETATM   17  C   UNL     1       5.601  30.028  57.279  1.00  0.00     0.032 A 
BRANCH  15  18
HETATM   18  N   UNL     1       5.280  29.252  53.679  1.00  0.00    -0.328 N 
HETATM   19  C   UNL     1       5.164  27.963  53.195  1.00  0.00     0.218 C 
HETATM   20  C   UNL     1       5.569  27.840  51.745  1.00  0.00     0.117 C 
HETATM   21  O   UNL     1       4.759  26.980  53.805  1.00  0.00    -0.274 OA
HETATM   22  H   UNL     1       5.625  29.954  53.037  1.00  0.00     0.169 HD
ENDBRANCH  15  18
ENDBRANCH   9  12
ENDBRANCH   1   8
BRANCH   2  23
HETATM   23  C   UNL     1       5.995  33.834  62.738  1.00  0.00    -0.001 A 
HETATM   24  C   UNL     1       7.256  33.215  62.891  1.00  0.00     0.076 A 
HETATM   25  C   UNL     1       7.803  33.044  64.168  1.00  0.00     0.037 A 
HETATM   26  C   UNL     1       7.117  33.489  65.298  1.00  0.00     0.003 A 
HETATM   27  C   UNL     1       5.885  34.115  65.159  1.00  0.00     0.001 A 
HETATM   28  C   UNL     1       5.328  34.288  63.892  1.00  0.00     0.012 A 
BRANCH  24  29
HETATM   29  O   UNL     1       7.865  32.808  61.731  1.00  0.00    -0.355 OA
HETATM   30  C   UNL     1       8.566  31.570  61.759  1.00  0.00     0.210 C 
ENDBRANCH  24  29
ENDBRANCH   2  23
BRANCH   3  31
HETATM   31  C   UNL     1       4.709  36.364  61.006  1.00  0.00     0.038 A 
HETATM   32  C   UNL     1       5.412  37.098  61.972  1.00  0.00     0.032 A 
HETATM   33  C   UNL     1       5.745  38.445  61.772  1.00  0.00     0.039 A 
HETATM   34  C   UNL     1       5.379  39.106  60.603  1.00  0.00     0.068 A 
HETATM   35  C   UNL     1       4.687  38.398  59.628  1.00  0.00     0.039 A 
HETATM   36  C   UNL     1       4.355  37.048  59.831  1.00  0.00     0.032 A 
BRANCH  34  37
HETATM   37  O   UNL     1       5.750  40.418  60.538  1.00  0.00    -0.356 OA
HETATM   38  C   UNL     1       6.955  40.779  61.201  1.00  0.00     0.210 C 
ENDBRANCH  34  37
ENDBRANCH   3  31
TORSDOF 7
ENDMDL
MODEL 4
REMARK VINA RESULT:      -8.2     10.792     13.047
REMARK  7 active torsions:
REMARK  status: ('A' for Active; 'I' for Inactive)
REMARK       I    between atoms: C_2  and  N_3 
REMARK    1  A    between atoms: N_3  and  C_4 
REMARK    2  A    between atoms: C_7  and  N_8 
REMARK       I    between atoms: N_8  and  C_9 
REMARK    3  A    between atoms: C_9  and  C_10 
REMARK    4  A    between atoms: C_11  and  C_12 
REMARK    5  A    between atoms: C_13  and  O_14 
REMARK    6  A    between atoms: N_20  and  C_21 
REMARK    7  A    between atoms: C_24  and  O_25 
ROOT
HETATM    1  C   UNL     1       6.482  34.274  62.998  1.00  0.00     0.106 C 
HETATM    2  C   UNL     1       5.445  35.072  62.191  1.00  0.00     0.142 C 
HETATM    3  N   UNL     1       4.078  34.481  62.254  1.00  0.00    -0.308 N 
HETATM    4  C   UNL     1       3.590  33.948  63.458  1.00  0.00     0.225 C 
HETATM    5  O   UNL     1       2.398  33.825  63.739  1.00  0.00    -0.273 OA
HETATM    6  C   UNL     1       4.609  33.370  64.425  1.00  0.00     0.104 C 
HETATM    7  C   UNL     1       5.986  33.996  64.410  1.00  0.00     0.026 C 
ENDROOT
BRANCH   1   8
HETATM    8  C   UNL     1       6.949  32.983  62.313  1.00  0.00     0.228 C 
HETATM    9  N   UNL     1       7.291  33.112  60.981  1.00  0.00    -0.327 N 
HETATM   10  H   UNL     1       7.475  34.045  60.632  1.00  0.00     0.169 HD
HETATM   11  O   UNL     1       6.897  31.924  62.935  1.00  0.00    -0.273 OA
BRANCH   9  12
HETATM   12  C   UNL     1       7.392  32.086  60.018  1.00  0.00     0.034 A 
HETATM   13  C   UNL     1       8.403  31.128  59.998  1.00  0.00     0.032 A 
HETATM   14  C   UNL     1       8.374  30.075  59.070  1.00  0.00     0.032 A 
HETATM   15  C   UNL     1       7.334  29.964  58.150  1.00  0.00     0.034 A 
HETATM   16  C   UNL     1       6.336  30.944  58.149  1.00  0.00     0.032 A 
HETATM   17  C   UNL     1       6.363  31.995  59.074  1.00  0.00     0.032 A 
BRANCH  15  18
HETATM   18  N   UNL     1       7.204  28.906  57.225  1.00  0.00    -0.328 N 
HETATM   19  C   UNL     1       7.995  28.654  56.120  1.00  0.00     0.218 C 
HETATM   20  C   UNL     1       7.610  27.384  55.399  1.00  0.00     0.117 C 
HETATM   21  O   UNL     1       8.940  29.325  55.721  1.00  0.00    -0.274 OA
HETATM   22  H   UNL     1       6.466  28.242  57.422  1.00  0.00     0.169 HD
ENDBRANCH  15  18
ENDBRANCH   9  12
ENDBRANCH   1   8
BRANCH   2  23
HETATM   23  C   UNL     1       5.485  36.558  62.590  1.00  0.00    -0.001 A 
HETATM   24  C   UNL     1       5.375  37.554  61.593  1.00  0.00     0.076 A 
HETATM   25  C   UNL     1       5.479  38.906  61.938  1.00  0.00     0.037 A 
HETATM   26  C   UNL     1       5.682  39.285  63.265  1.00  0.00     0.003 A 
HETATM   27  C   UNL     1       5.775  38.317  64.257  1.00  0.00     0.001 A 
HETATM   28  C   UNL     1       5.676  36.966  63.924  1.00  0.00     0.012 A 
BRANCH  24  29
HETATM   29  O   UNL     1       5.174  37.098  60.315  1.00  0.00    -0.355 OA
HETATM   30  C   UNL     1       4.302  37.852  59.481  1.00  0.00     0.210 C 
ENDBRANCH  24  29
ENDBRANCH   2  23
BRANCH   3  31
HETATM   31  C   UNL     1       3.207  34.645  61.104  1.00  0.00     0.038 A 
HETATM   32  C   UNL     1       3.540  34.096  59.857  1.00  0.00     0.032 A 
HETATM   33  C   UNL     1       2.741  34.309  58.725  1.00  0.00     0.039 A 
HETATM   34  C   UNL     1       1.588  35.085  58.798  1.00  0.00     0.068 A 
HETATM   35  C   UNL     1       1.234  35.635  60.024  1.00  0.00     0.039 A 
HETATM   36  C   UNL     1       2.036  35.420  61.158  1.00  0.00     0.032 A 
BRANCH  34  37
HETATM   37  O   UNL     1       0.908  35.226  57.623  1.00  0.00    -0.356 OA
HETATM   38  C   UNL     1       1.663  35.627  56.487  1.00  0.00     0.210 C 
ENDBRANCH  34  37
ENDBRANCH   3  31
TORSDOF 7
ENDMDL
MODEL 5
REMARK VINA RESULT:      -8.1      1.819      4.965
REMARK  7 active torsions:
REMARK  status: ('A' for Active; 'I' for Inactive)
REMARK       I    between atoms: C_2  and  N_3 
REMARK    1  A    between atoms: N_3  and  C_4 
REMARK    2  A    between atoms: C_7  and  N_8 
REMARK       I    between atoms: N_8  and  C_9 
REMARK    3  A    between atoms: C_9  and  C_10 
REMARK    4  A    between atoms: C_11  and  C_12 
REMARK    5  A    between atoms: C_13  and  O_14 
REMARK    6  A    between atoms: N_20  and  C_21 
REMARK    7  A    between atoms: C_24  and  O_25 
ROOT
HETATM    1  C   UNL     1       3.364  27.484  49.533  1.00  0.00     0.106 C 
HETATM    2  C   UNL     1       3.364  28.906  48.949  1.00  0.00     0.142 C 
HETATM    3  N   UNL     1       4.623  29.240  48.225  1.00  0.00    -0.308 N 
HETATM    4  C   UNL     1       5.250  28.280  47.413  1.00  0.00     0.225 C 
HETATM    5  O   UNL     1       6.011  28.539  46.481  1.00  0.00    -0.273 OA
HETATM    6  C   UNL     1       5.069  26.822  47.797  1.00  0.00     0.104 C 
HETATM    7  C   UNL     1       3.772  26.459  48.485  1.00  0.00     0.026 C 
ENDROOT
BRANCH   1   8
HETATM    8  C   UNL     1       4.203  27.333  50.809  1.00  0.00     0.228 C 
HETATM    9  N   UNL     1       4.992  26.200  50.866  1.00  0.00    -0.327 N 
HETATM   10  H   UNL     1       5.176  25.712  49.998  1.00  0.00     0.169 HD
HETATM   11  O   UNL     1       4.056  28.144  51.721  1.00  0.00    -0.273 OA
BRANCH   9  12
HETATM   12  C   UNL     1       5.563  25.610  52.014  1.00  0.00     0.034 A 
HETATM   13  C   UNL     1       4.848  25.289  53.166  1.00  0.00     0.032 A 
HETATM   14  C   UNL     1       5.467  24.606  54.225  1.00  0.00     0.032 A 
HETATM   15  C   UNL     1       6.807  24.233  54.147  1.00  0.00     0.034 A 
HETATM   16  C   UNL     1       7.532  24.584  53.004  1.00  0.00     0.032 A 
HETATM   17  C   UNL     1       6.916  25.265  51.946  1.00  0.00     0.032 A 
BRANCH  15  18
HETATM   18  N   UNL     1       7.484  23.497  55.142  1.00  0.00    -0.328 N 
HETATM   19  C   UNL     1       7.813  22.154  55.116  1.00  0.00     0.218 C 
HETATM   20  C   UNL     1       8.608  21.720  56.324  1.00  0.00     0.117 C 
HETATM   21  O   UNL     1       7.548  21.347  54.232  1.00  0.00    -0.274 OA
HETATM   22  H   UNL     1       7.789  24.028  55.947  1.00  0.00     0.169 HD
ENDBRANCH  15  18
ENDBRANCH   9  12
ENDBRANCH   1   8
BRANCH   2  23
HETATM   23  C   UNL     1       2.097  29.138  48.106  1.00  0.00    -0.001 A 
HETATM   24  C   UNL     1       1.324  30.303  48.309  1.00  0.00     0.076 A 
HETATM   25  C   UNL     1       0.134  30.489  47.595  1.00  0.00     0.037 A 
HETATM   26  C   UNL     1      -0.295  29.534  46.673  1.00  0.00     0.003 A 
HETATM   27  C   UNL     1       0.464  28.393  46.452  1.00  0.00     0.001 A 
HETATM   28  C   UNL     1       1.651  28.195  47.160  1.00  0.00     0.012 A 
BRANCH  24  29
HETATM   29  O   UNL     1       1.816  31.192  49.230  1.00  0.00    -0.355 OA
HETATM   30  C   UNL     1       1.650  32.579  48.956  1.00  0.00     0.210 C 
ENDBRANCH  24  29
ENDBRANCH   2  23
BRANCH   3  31
HETATM   31  C   UNL     1       5.070  30.621  48.228  1.00  0.00     0.038 A 
HETATM   32  C   UNL     1       5.773  31.154  49.318  1.00  0.00     0.032 A 
HETATM   33  C   UNL     1       6.147  32.505  49.360  1.00  0.00     0.039 A 
HETATM   34  C   UNL     1       5.824  33.370  48.319  1.00  0.00     0.068 A 
HETATM   35  C   UNL     1       5.133  32.863  47.225  1.00  0.00     0.039 A 
HETATM   36  C   UNL     1       4.760  31.509  47.184  1.00  0.00     0.032 A 
BRANCH  34  37
HETATM   37  O   UNL     1       6.233  34.661  48.490  1.00  0.00    -0.356 OA
HETATM   38  C   UNL     1       6.237  35.164  49.819  1.00  0.00     0.210 C 
ENDBRANCH  34  37
ENDBRANCH   3  31
TORSDOF 7
ENDMDL
MODEL 6
REMARK VINA RESULT:      -8.1     11.854     14.084
REMARK  7 active torsions:
REMARK  status: ('A' for Active; 'I' for Inactive)
REMARK       I    between atoms: C_2  and  N_3 
REMARK    1  A    between atoms: N_3  and  C_4 
REMARK    2  A    between atoms: C_7  and  N_8 
REMARK       I    between atoms: N_8  and  C_9 
REMARK    3  A    between atoms: C_9  and  C_10 
REMARK    4  A    between atoms: C_11  and  C_12 
REMARK    5  A    between atoms: C_13  and  O_14 
REMARK    6  A    between atoms: N_20  and  C_21 
REMARK    7  A    between atoms: C_24  and  O_25 
ROOT
HETATM    1  C   UNL     1       5.816  34.592  63.925  1.00  0.00     0.106 C 
HETATM    2  C   UNL     1       5.453  35.711  62.936  1.00  0.00     0.142 C 
HETATM    3  N   UNL     1       4.117  35.519  62.303  1.00  0.00    -0.308 N 
HETATM    4  C   UNL     1       3.035  35.042  63.061  1.00  0.00     0.225 C 
HETATM    5  O   UNL     1       1.850  35.231  62.788  1.00  0.00    -0.273 OA
HETATM    6  C   UNL     1       3.357  34.125  64.228  1.00  0.00     0.104 C 
HETATM    7  C   UNL     1       4.687  34.344  64.914  1.00  0.00     0.026 C 
ENDROOT
BRANCH   1   8
HETATM    8  C   UNL     1       6.260  33.285  63.254  1.00  0.00     0.228 C 
HETATM    9  N   UNL     1       7.274  33.413  62.325  1.00  0.00    -0.327 N 
HETATM   10  H   UNL     1       7.826  34.263  62.346  1.00  0.00     0.169 HD
HETATM   11  O   UNL     1       5.644  32.249  63.496  1.00  0.00    -0.273 OA
BRANCH   9  12
HETATM   12  C   UNL     1       7.628  32.499  61.310  1.00  0.00     0.034 A 
HETATM   13  C   UNL     1       6.916  32.334  60.123  1.00  0.00     0.032 A 
HETATM   14  C   UNL     1       7.392  31.480  59.116  1.00  0.00     0.032 A 
HETATM   15  C   UNL     1       8.585  30.780  59.279  1.00  0.00     0.034 A 
HETATM   16  C   UNL     1       9.283  30.921  60.483  1.00  0.00     0.032 A 
HETATM   17  C   UNL     1       8.809  31.773  61.489  1.00  0.00     0.032 A 
BRANCH  15  18
HETATM   18  N   UNL     1       9.158  29.949  58.293  1.00  0.00    -0.328 N 
HETATM   19  C   UNL     1      10.232  30.236  57.472  1.00  0.00     0.218 C 
HETATM   20  C   UNL     1      10.623  29.077  56.587  1.00  0.00     0.117 C 
HETATM   21  O   UNL     1      10.868  31.284  57.429  1.00  0.00    -0.274 OA
HETATM   22  H   UNL     1       8.751  29.026  58.209  1.00  0.00     0.169 HD
ENDBRANCH  15  18
ENDBRANCH   9  12
ENDBRANCH   1   8
BRANCH   2  23
HETATM   23  C   UNL     1       5.619  37.088  63.602  1.00  0.00    -0.001 A 
HETATM   24  C   UNL     1       6.252  38.136  62.896  1.00  0.00     0.076 A 
HETATM   25  C   UNL     1       6.469  39.371  63.519  1.00  0.00     0.037 A 
HETATM   26  C   UNL     1       6.056  39.583  64.834  1.00  0.00     0.003 A 
HETATM   27  C   UNL     1       5.416  38.568  65.532  1.00  0.00     0.001 A 
HETATM   28  C   UNL     1       5.198  37.331  64.923  1.00  0.00     0.012 A 
BRANCH  24  29
HETATM   29  O   UNL     1       6.626  37.847  61.608  1.00  0.00    -0.355 OA
HETATM   30  C   UNL     1       6.840  38.943  60.727  1.00  0.00     0.210 C 
ENDBRANCH  24  29
ENDBRANCH   2  23
BRANCH   3  31
HETATM   31  C   UNL     1       3.920  36.015  60.953  1.00  0.00     0.038 A 
HETATM   32  C   UNL     1       4.239  35.228  59.837  1.00  0.00     0.032 A 
HETATM   33  C   UNL     1       4.119  35.723  58.531  1.00  0.00     0.039 A 
HETATM   34  C   UNL     1       3.685  37.025  58.297  1.00  0.00     0.068 A 
HETATM   35  C   UNL     1       3.357  37.822  59.386  1.00  0.00     0.039 A 
HETATM   36  C   UNL     1       3.478  37.323  60.695  1.00  0.00     0.032 A 
BRANCH  34  37
HETATM   37  O   UNL     1       3.626  37.389  56.982  1.00  0.00    -0.356 OA
HETATM   38  C   UNL     1       2.919  36.521  56.106  1.00  0.00     0.210 C 
ENDBRANCH  34  37
ENDBRANCH   3  31
TORSDOF 7
ENDMDL
MODEL 7
REMARK VINA RESULT:      -8.0      4.162     10.080
REMARK  7 active torsions:
REMARK  status: ('A' for Active; 'I' for Inactive)
REMARK       I    between atoms: C_2  and  N_3 
REMARK    1  A    between atoms: N_3  and  C_4 
REMARK    2  A    between atoms: C_7  and  N_8 
REMARK       I    between atoms: N_8  and  C_9 
REMARK    3  A    between atoms: C_9  and  C_10 
REMARK    4  A    between atoms: C_11  and  C_12 
REMARK    5  A    between atoms: C_13  and  O_14 
REMARK    6  A    between atoms: N_20  and  C_21 
REMARK    7  A    between atoms: C_24  and  O_25 
ROOT
HETATM    1  C   UNL     1       5.808  26.875  53.362  1.00  0.00     0.106 C 
HETATM    2  C   UNL     1       6.956  26.976  54.379  1.00  0.00     0.142 C 
HETATM    3  N   UNL     1       6.705  27.989  55.443  1.00  0.00    -0.308 N 
HETATM    4  C   UNL     1       5.423  28.130  56.000  1.00  0.00     0.225 C 
HETATM    5  O   UNL     1       5.190  28.601  57.113  1.00  0.00    -0.273 OA
HETATM    6  C   UNL     1       4.239  27.791  55.111  1.00  0.00     0.104 C 
HETATM    7  C   UNL     1       4.465  26.725  54.062  1.00  0.00     0.026 C 
ENDROOT
BRANCH   1   8
HETATM    8  C   UNL     1       5.775  28.020  52.341  1.00  0.00     0.228 C 
HETATM    9  N   UNL     1       4.878  27.859  51.302  1.00  0.00    -0.327 N 
HETATM   10  H   UNL     1       4.140  27.175  51.421  1.00  0.00     0.169 HD
HETATM   11  O   UNL     1       6.589  28.935  52.443  1.00  0.00    -0.273 OA
BRANCH   9  12
HETATM   12  C   UNL     1       4.879  28.524  50.058  1.00  0.00     0.034 A 
HETATM   13  C   UNL     1       5.167  27.908  48.842  1.00  0.00     0.032 A 
HETATM   14  C   UNL     1       5.042  28.614  47.635  1.00  0.00     0.032 A 
HETATM   15  C   UNL     1       4.628  29.944  47.626  1.00  0.00     0.034 A 
HETATM   16  C   UNL     1       4.370  30.571  48.849  1.00  0.00     0.032 A 
HETATM   17  C   UNL     1       4.494  29.868  50.054  1.00  0.00     0.032 A 
BRANCH  15  18
HETATM   18  N   UNL     1       4.424  30.702  46.454  1.00  0.00    -0.328 N 
HETATM   19  C   UNL     1       3.227  30.940  45.805  1.00  0.00     0.218 C 
HETATM   20  C   UNL     1       3.374  31.864  44.619  1.00  0.00     0.117 C 
HETATM   21  O   UNL     1       2.122  30.507  46.113  1.00  0.00    -0.274 OA
HETATM   22  H   UNL     1       5.249  31.148  46.072  1.00  0.00     0.169 HD
ENDBRANCH  15  18
ENDBRANCH   9  12
ENDBRANCH   1   8
BRANCH   2  23
HETATM   23  C   UNL     1       7.303  25.583  54.935  1.00  0.00    -0.001 A 
HETATM   24  C   UNL     1       7.940  24.636  54.102  1.00  0.00     0.076 A 
HETATM   25  C   UNL     1       8.197  23.345  54.577  1.00  0.00     0.037 A 
HETATM   26  C   UNL     1       7.838  22.983  55.875  1.00  0.00     0.003 A 
HETATM   27  C   UNL     1       7.227  23.910  56.710  1.00  0.00     0.001 A 
HETATM   28  C   UNL     1       6.963  25.199  56.246  1.00  0.00     0.012 A 
BRANCH  24  29
HETATM   29  O   UNL     1       8.262  25.071  52.841  1.00  0.00    -0.355 OA
HETATM   30  C   UNL     1       7.601  24.450  51.745  1.00  0.00     0.210 C 
ENDBRANCH  24  29
ENDBRANCH   2  23
BRANCH   3  31
HETATM   31  C   UNL     1       7.847  28.681  56.015  1.00  0.00     0.038 A 
HETATM   32  C   UNL     1       7.838  29.115  57.349  1.00  0.00     0.032 A 
HETATM   33  C   UNL     1       8.906  29.845  57.889  1.00  0.00     0.039 A 
HETATM   34  C   UNL     1      10.014  30.173  57.113  1.00  0.00     0.068 A 
HETATM   35  C   UNL     1      10.048  29.749  55.790  1.00  0.00     0.039 A 
HETATM   36  C   UNL     1       8.976  29.017  55.251  1.00  0.00     0.032 A 
BRANCH  34  37
HETATM   37  O   UNL     1      10.977  30.898  57.754  1.00  0.00    -0.356 OA
HETATM   38  C   UNL     1      10.547  31.746  58.811  1.00  0.00     0.210 C 
ENDBRANCH  34  37
ENDBRANCH   3  31
TORSDOF 7
ENDMDL
MODEL 8
REMARK VINA RESULT:      -7.9      2.261      5.245
REMARK  7 active torsions:
REMARK  status: ('A' for Active; 'I' for Inactive)
REMARK       I    between atoms: C_2  and  N_3 
REMARK    1  A    between atoms: N_3  and  C_4 
REMARK    2  A    between atoms: C_7  and  N_8 
REMARK       I    between atoms: N_8  and  C_9 
REMARK    3  A    between atoms: C_9  and  C_10 
REMARK    4  A    between atoms: C_11  and  C_12 
REMARK    5  A    between atoms: C_13  and  O_14 
REMARK    6  A    between atoms: N_20  and  C_21 
REMARK    7  A    between atoms: C_24  and  O_25 
ROOT
HETATM    1  C   UNL     1       3.215  28.856  50.222  1.00  0.00     0.106 C 
HETATM    2  C   UNL     1       3.341  30.326  49.791  1.00  0.00     0.142 C 
HETATM    3  N   UNL     1       4.141  30.502  48.546  1.00  0.00    -0.308 N 
HETATM    4  C   UNL     1       4.006  29.595  47.481  1.00  0.00     0.225 C 
HETATM    5  O   UNL     1       4.272  29.848  46.306  1.00  0.00    -0.273 OA
HETATM    6  C   UNL     1       3.624  28.167  47.831  1.00  0.00     0.104 C 
HETATM    7  C   UNL     1       2.766  27.979  49.062  1.00  0.00     0.026 C 
ENDROOT
BRANCH   1   8
HETATM    8  C   UNL     1       4.476  28.289  50.887  1.00  0.00     0.228 C 
HETATM    9  N   UNL     1       4.481  26.920  51.074  1.00  0.00    -0.327 N 
HETATM   10  H   UNL     1       3.819  26.371  50.538  1.00  0.00     0.169 HD
HETATM   11  O   UNL     1       5.337  29.066  51.295  1.00  0.00    -0.273 OA
BRANCH   9  12
HETATM   12  C   UNL     1       5.292  26.178  51.958  1.00  0.00     0.034 A 
HETATM   13  C   UNL     1       4.879  25.733  53.212  1.00  0.00     0.032 A 
HETATM   14  C   UNL     1       5.709  24.909  53.989  1.00  0.00     0.032 A 
HETATM   15  C   UNL     1       6.961  24.517  53.523  1.00  0.00     0.034 A 
HETATM   16  C   UNL     1       7.389  24.990  52.278  1.00  0.00     0.032 A 
HETATM   17  C   UNL     1       6.562  25.812  51.502  1.00  0.00     0.032 A 
BRANCH  15  18
HETATM   18  N   UNL     1       7.828  23.647  54.217  1.00  0.00    -0.328 N 
HETATM   19  C   UNL     1       8.138  22.338  53.896  1.00  0.00     0.218 C 
HETATM   20  C   UNL     1       9.167  21.733  54.822  1.00  0.00     0.117 C 
HETATM   21  O   UNL     1       7.690  21.681  52.964  1.00  0.00    -0.274 OA
HETATM   22  H   UNL     1       8.299  24.046  55.019  1.00  0.00     0.169 HD
ENDBRANCH  15  18
ENDBRANCH   9  12
ENDBRANCH   1   8
BRANCH   2  23
HETATM   23  C   UNL     1       1.951  30.984  49.719  1.00  0.00    -0.001 A 
HETATM   24  C   UNL     1       1.477  31.741  50.814  1.00  0.00     0.076 A 
HETATM   25  C   UNL     1       0.188  32.285  50.785  1.00  0.00     0.037 A 
HETATM   26  C   UNL     1      -0.637  32.094  49.676  1.00  0.00     0.003 A 
HETATM   27  C   UNL     1      -0.176  31.367  48.586  1.00  0.00     0.001 A 
HETATM   28  C   UNL     1       1.106  30.817  48.605  1.00  0.00     0.012 A 
BRANCH  24  29
HETATM   29  O   UNL     1       2.349  31.883  51.863  1.00  0.00    -0.355 OA
HETATM   30  C   UNL     1       2.433  33.164  52.477  1.00  0.00     0.210 C 
ENDBRANCH  24  29
ENDBRANCH   2  23
BRANCH   3  31
HETATM   31  C   UNL     1       4.908  31.725  48.390  1.00  0.00     0.038 A 
HETATM   32  C   UNL     1       6.099  31.930  49.101  1.00  0.00     0.032 A 
HETATM   33  C   UNL     1       6.809  33.136  49.012  1.00  0.00     0.039 A 
HETATM   34  C   UNL     1       6.347  34.181  48.216  1.00  0.00     0.068 A 
HETATM   35  C   UNL     1       5.172  33.999  47.497  1.00  0.00     0.039 A 
HETATM   36  C   UNL     1       4.463  32.789  47.588  1.00  0.00     0.032 A 
BRANCH  34  37
HETATM   37  O   UNL     1       7.121  35.305  48.227  1.00  0.00    -0.356 OA
HETATM   38  C   UNL     1       8.524  35.121  48.087  1.00  0.00     0.210 C 
ENDBRANCH  34  37
ENDBRANCH   3  31
TORSDOF 7
ENDMDL
MODEL 9
REMARK VINA RESULT:      -7.8      2.176      4.677
REMARK  7 active torsions:
REMARK  status: ('A' for Active; 'I' for Inactive)
REMARK       I    between atoms: C_2  and  N_3 
REMARK    1  A    between atoms: N_3  and  C_4 
REMARK    2  A    between atoms: C_7  and  N_8 
REMARK       I    between atoms: N_8  and  C_9 
REMARK    3  A    between atoms: C_9  and  C_10 
REMARK    4  A    between atoms: C_11  and  C_12 
REMARK    5  A    between atoms: C_13  and  O_14 
REMARK    6  A    between atoms: N_20  and  C_21 
REMARK    7  A    between atoms: C_24  and  O_25 
ROOT
HETATM    1  C   UNL     1       4.430  27.908  49.075  1.00  0.00     0.106 C 
HETATM    2  C   UNL     1       3.220  28.822  49.327  1.00  0.00     0.142 C 
HETATM    3  N   UNL     1       3.598  30.253  49.503  1.00  0.00    -0.308 N 
HETATM    4  C   UNL     1       4.601  30.826  48.704  1.00  0.00     0.225 C 
HETATM    5  O   UNL     1       4.708  32.029  48.466  1.00  0.00    -0.273 OA
HETATM    6  C   UNL     1       5.699  29.904  48.203  1.00  0.00     0.104 C 
HETATM    7  C   UNL     1       5.316  28.460  47.968  1.00  0.00     0.026 C 
ENDROOT
BRANCH   1   8
HETATM    8  C   UNL     1       5.249  27.594  50.334  1.00  0.00     0.228 C 
HETATM    9  N   UNL     1       5.582  26.264  50.505  1.00  0.00    -0.327 N 
HETATM   10  H   UNL     1       5.516  25.656  49.697  1.00  0.00     0.169 HD
HETATM   11  O   UNL     1       5.469  28.492  51.144  1.00  0.00    -0.273 OA
BRANCH   9  12
HETATM   12  C   UNL     1       5.985  25.627  51.698  1.00  0.00     0.034 A 
HETATM   13  C   UNL     1       5.131  25.350  52.764  1.00  0.00     0.032 A 
HETATM   14  C   UNL     1       5.585  24.618  53.873  1.00  0.00     0.032 A 
HETATM   15  C   UNL     1       6.897  24.153  53.932  1.00  0.00     0.034 A 
HETATM   16  C   UNL     1       7.762  24.460  52.877  1.00  0.00     0.032 A 
HETATM   17  C   UNL     1       7.311  25.189  51.770  1.00  0.00     0.032 A 
BRANCH  15  18
HETATM   18  N   UNL     1       7.411  23.364  54.983  1.00  0.00    -0.328 N 
HETATM   19  C   UNL     1       7.756  22.026  54.938  1.00  0.00     0.218 C 
HETATM   20  C   UNL     1       8.350  21.528  56.234  1.00  0.00     0.117 C 
HETATM   21  O   UNL     1       7.647  21.269  53.981  1.00  0.00    -0.274 OA
HETATM   22  H   UNL     1       7.576  23.851  55.855  1.00  0.00     0.169 HD
ENDBRANCH  15  18
ENDBRANCH   9  12
ENDBRANCH   1   8
BRANCH   2  23
HETATM   23  C   UNL     1       2.149  28.605  48.243  1.00  0.00    -0.001 A 
HETATM   24  C   UNL     1       1.832  27.292  47.826  1.00  0.00     0.076 A 
HETATM   25  C   UNL     1       0.910  27.089  46.792  1.00  0.00     0.037 A 
HETATM   26  C   UNL     1       0.290  28.174  46.172  1.00  0.00     0.003 A 
HETATM   27  C   UNL     1       0.580  29.467  46.585  1.00  0.00     0.001 A 
HETATM   28  C   UNL     1       1.500  29.683  47.612  1.00  0.00     0.012 A 
BRANCH  24  29
HETATM   29  O   UNL     1       2.483  26.282  48.487  1.00  0.00    -0.355 OA
HETATM   30  C   UNL     1       2.892  25.155  47.720  1.00  0.00     0.210 C 
ENDBRANCH  24  29
ENDBRANCH   2  23
BRANCH   3  31
HETATM   31  C   UNL     1       2.780  31.077  50.376  1.00  0.00     0.038 A 
HETATM   32  C   UNL     1       1.603  31.681  49.910  1.00  0.00     0.032 A 
HETATM   33  C   UNL     1       0.844  32.533  50.724  1.00  0.00     0.039 A 
HETATM   34  C   UNL     1       1.241  32.819  52.027  1.00  0.00     0.068 A 
HETATM   35  C   UNL     1       2.400  32.227  52.514  1.00  0.00     0.039 A 
HETATM   36  C   UNL     1       3.159  31.372  51.696  1.00  0.00     0.032 A 
BRANCH  34  37
HETATM   37  O   UNL     1       0.423  33.674  52.709  1.00  0.00    -0.356 OA
HETATM   38  C   UNL     1       1.022  34.456  53.734  1.00  0.00     0.210 C 
ENDBRANCH  34  37
ENDBRANCH   3  31
TORSDOF 7
ENDMDL
MODEL 10
REMARK VINA RESULT:      -7.4      4.109      8.798
REMARK  7 active torsions:
REMARK  status: ('A' for Active; 'I' for Inactive)
REMARK       I    between atoms: C_2  and  N_3 
REMARK    1  A    between atoms: N_3  and  C_4 
REMARK    2  A    between atoms: C_7  and  N_8 
REMARK       I    between atoms: N_8  and  C_9 
REMARK    3  A    between atoms: C_9  and  C_10 
REMARK    4  A    between atoms: C_11  and  C_12 
REMARK    5  A    between atoms: C_13  and  O_14 
REMARK    6  A    between atoms: N_20  and  C_21 
REMARK    7  A    between atoms: C_24  and  O_25 
ROOT
HETATM    1  C   UNL     1       3.483  30.465  46.723  1.00  0.00     0.106 C 
HETATM    2  C   UNL     1       3.494  29.739  48.078  1.00  0.00     0.142 C 
HETATM    3  N   UNL     1       2.574  30.354  49.076  1.00  0.00    -0.308 N 
HETATM    4  C   UNL     1       1.311  30.827  48.682  1.00  0.00     0.225 C 
HETATM    5  O   UNL     1       0.346  30.959  49.433  1.00  0.00    -0.273 OA
HETATM    6  C   UNL     1       1.173  31.325  47.254  1.00  0.00     0.104 C 
HETATM    7  C   UNL     1       2.063  30.671  46.220  1.00  0.00     0.026 C 
ENDROOT
BRANCH   1   8
HETATM    8  C   UNL     1       4.269  31.783  46.716  1.00  0.00     0.228 C 
HETATM    9  N   UNL     1       5.084  31.991  47.811  1.00  0.00    -0.327 N 
HETATM   10  H   UNL     1       5.320  31.187  48.380  1.00  0.00     0.169 HD
HETATM   11  O   UNL     1       4.060  32.599  45.820  1.00  0.00    -0.273 OA
BRANCH   9  12
HETATM   12  C   UNL     1       5.619  33.217  48.262  1.00  0.00     0.034 A 
HETATM   13  C   UNL     1       4.924  34.132  49.050  1.00  0.00     0.032 A 
HETATM   14  C   UNL     1       5.562  35.279  49.546  1.00  0.00     0.032 A 
HETATM   15  C   UNL     1       6.903  35.528  49.263  1.00  0.00     0.034 A 
HETATM   16  C   UNL     1       7.592  34.626  48.446  1.00  0.00     0.032 A 
HETATM   17  C   UNL     1       6.957  33.481  47.950  1.00  0.00     0.032 A 
BRANCH  15  18
HETATM   18  N   UNL     1       7.629  36.627  49.771  1.00  0.00    -0.328 N 
HETATM   19  C   UNL     1       7.896  36.917  51.096  1.00  0.00     0.218 C 
HETATM   20  C   UNL     1       8.772  38.136  51.266  1.00  0.00     0.117 C 
HETATM   21  O   UNL     1       7.523  36.288  52.079  1.00  0.00    -0.274 OA
HETATM   22  H   UNL     1       8.025  37.248  49.076  1.00  0.00     0.169 HD
ENDBRANCH  15  18
ENDBRANCH   9  12
ENDBRANCH   1   8
BRANCH   2  23
HETATM   23  C   UNL     1       3.254  28.231  47.878  1.00  0.00    -0.001 A 
HETATM   24  C   UNL     1       4.161  27.299  48.431  1.00  0.00     0.076 A 
HETATM   25  C   UNL     1       3.989  25.930  48.197  1.00  0.00     0.037 A 
HETATM   26  C   UNL     1       2.921  25.471  47.426  1.00  0.00     0.003 A 
HETATM   27  C   UNL     1       2.013  26.376  46.891  1.00  0.00     0.001 A 
HETATM   28  C   UNL     1       2.176  27.744  47.115  1.00  0.00     0.012 A 
BRANCH  24  29
HETATM   29  O   UNL     1       5.182  27.830  49.178  1.00  0.00    -0.355 OA
HETATM   30  C   UNL     1       5.471  27.212  50.426  1.00  0.00     0.210 C 
ENDBRANCH  24  29
ENDBRANCH   2  23
BRANCH   3  31
HETATM   31  C   UNL     1       2.935  30.276  50.481  1.00  0.00     0.038 A 
HETATM   32  C   UNL     1       3.671  31.298  51.099  1.00  0.00     0.032 A 
HETATM   33  C   UNL     1       4.085  31.199  52.435  1.00  0.00     0.039 A 
HETATM   34  C   UNL     1       3.786  30.072  53.195  1.00  0.00     0.068 A 
HETATM   35  C   UNL     1       3.052  29.049  52.606  1.00  0.00     0.039 A 
HETATM   36  C   UNL     1       2.638  29.150  51.267  1.00  0.00     0.032 A 
BRANCH  34  37
HETATM   37  O   UNL     1       4.258  30.094  54.475  1.00  0.00    -0.356 OA
HETATM   38  C   UNL     1       4.194  28.876  55.206  1.00  0.00     0.210 C 
ENDBRANCH  34  37
ENDBRANCH   3  31
TORSDOF 7
ENDMDL
