MODEL 1
REMARK VINA RESULT:     -10.0      0.000      0.000
REMARK  7 active torsions:
REMARK  status: ('A' for Active; 'I' for Inactive)
REMARK    1  A    between atoms: C_7  and  C_8 
REMARK       I    between atoms: C_8  and  N_9 
REMARK    2  A    between atoms: N_9  and  C_10 
REMARK    3  A    between atoms: C_10  and  C_11 
REMARK    4  A    between atoms: C_11  and  O_12 
REMARK    5  A    between atoms: C_11  and  C_13 
REMARK    6  A    between atoms: C_15  and  O_16 
REMARK    7  A    between atoms: O_16  and  C_17 
ROOT
HETATM    1  C   UNL     1       7.497  27.258  57.424  1.00  0.00     0.253 C 
HETATM    2  N   UNL     1       6.519  27.376  56.468  1.00  0.00    -0.354 N 
HETATM    3  O   UNL     1       7.701  26.225  58.053  1.00  0.00    -0.268 OA
HETATM    4  H   UNL     1       6.297  28.274  56.060  1.00  0.00     0.162 HD
ENDROOT
BRANCH   2   5
HETATM    5  C   UNL     1       5.708  26.228  56.076  1.00  0.00     0.159 C 
BRANCH   5   6
HETATM    6  C   UNL     1       5.839  25.881  54.580  1.00  0.00     0.169 C 
BRANCH   6   7
HETATM    7  O   UNL     1       6.370  27.014  53.879  1.00  0.00    -0.389 OA
HETATM    8  H   UNL     1       6.907  26.643  53.158  1.00  0.00     0.210 HD
ENDBRANCH   6   7
BRANCH   6   9
HETATM    9  C   UNL     1       6.738  24.680  54.373  1.00  0.00    -0.025 A 
HETATM   10  C   UNL     1       7.214  23.919  55.456  1.00  0.00     0.046 A 
HETATM   11  C   UNL     1       8.027  22.803  55.242  1.00  0.00     0.075 A 
HETATM   12  C   UNL     1       8.336  22.421  53.935  1.00  0.00     0.037 A 
HETATM   13  C   UNL     1       7.865  23.160  52.851  1.00  0.00     0.003 A 
HETATM   14  C   UNL     1       7.073  24.285  53.069  1.00  0.00     0.010 A 
BRANCH  11  15
HETATM   15  O   UNL     1       8.552  21.998  56.214  1.00  0.00    -0.290 OA
BRANCH  15  16
HETATM   16  C   UNL     1       8.674  20.625  55.883  1.00  0.00     0.505 C 
HETATM   17  F   UNL     1       9.735  20.101  56.546  1.00  0.00    -0.184 F 
HETATM   18  F   UNL     1       7.571  19.996  56.365  1.00  0.00    -0.184 F 
ENDBRANCH  15  16
ENDBRANCH  11  15
ENDBRANCH   6   9
ENDBRANCH   5   6
ENDBRANCH   2   5
BRANCH   1  19
HETATM   19  C   UNL     1       8.265  28.506  57.714  1.00  0.00     0.048 A 
HETATM   20  C   UNL     1       9.516  28.766  56.999  1.00  0.00     0.022 A 
HETATM   21  C   UNL     1      10.226  29.894  57.199  1.00  0.00     0.054 A 
HETATM   22  C   UNL     1       9.747  30.865  58.118  1.00  0.00     0.157 A 
HETATM   23  N   UNL     1       8.546  30.608  58.761  1.00  0.00    -0.291 N 
HETATM   24  N   UNL     1      10.217  32.027  58.512  1.00  0.00    -0.130 NA
HETATM   25  C   UNL     1       8.324  31.713  59.555  1.00  0.00     0.130 A 
HETATM   26  C   UNL     1       7.802  29.443  58.566  1.00  0.00     0.117 A 
HETATM   27  C   UNL     1       7.145  31.893  60.431  1.00  0.00     0.094 C 
HETATM   28  N   UNL     1       9.325  32.557  59.414  1.00  0.00    -0.135 NA
ENDBRANCH   1  19
TORSDOF 7
ENDMDL
MODEL 2
REMARK VINA RESULT:      -9.8      4.725      8.972
REMARK  7 active torsions:
REMARK  status: ('A' for Active; 'I' for Inactive)
REMARK    1  A    between atoms: C_7  and  C_8 
REMARK       I    between atoms: C_8  and  N_9 
REMARK    2  A    between atoms: N_9  and  C_10 
REMARK    3  A    between atoms: C_10  and  C_11 
REMARK    4  A    between atoms: C_11  and  O_12 
REMARK    5  A    between atoms: C_11  and  C_13 
REMARK    6  A    between atoms: C_15  and  O_16 
REMARK    7  A    between atoms: O_16  and  C_17 
ROOT
HETATM    1  C   UNL     1       6.476  25.534  55.301  1.00  0.00     0.253 C 
HETATM    2  N   UNL     1       7.404  26.533  55.461  1.00  0.00    -0.354 N 
HETATM    3  O   UNL     1       5.336  25.597  55.748  1.00  0.00    -0.268 OA
HETATM    4  H   UNL     1       8.368  26.395  55.190  1.00  0.00     0.162 HD
ENDROOT
BRANCH   2   5
HETATM    5  C   UNL     1       7.049  27.791  56.111  1.00  0.00     0.159 C 
BRANCH   5   6
HETATM    6  C   UNL     1       7.624  27.915  57.536  1.00  0.00     0.169 C 
BRANCH   6   7
HETATM    7  O   UNL     1       8.216  26.665  57.915  1.00  0.00    -0.389 OA
HETATM    8  H   UNL     1       7.569  25.986  57.660  1.00  0.00     0.210 HD
ENDBRANCH   6   7
BRANCH   6   9
HETATM    9  C   UNL     1       8.656  29.020  57.615  1.00  0.00    -0.025 A 
HETATM   10  C   UNL     1       8.469  30.148  58.434  1.00  0.00     0.046 A 
HETATM   11  C   UNL     1       9.443  31.147  58.506  1.00  0.00     0.075 A 
HETATM   12  C   UNL     1      10.631  31.000  57.786  1.00  0.00     0.037 A 
HETATM   13  C   UNL     1      10.835  29.883  56.976  1.00  0.00     0.003 A 
HETATM   14  C   UNL     1       9.851  28.900  56.889  1.00  0.00     0.010 A 
BRANCH  11  15
HETATM   15  O   UNL     1       9.366  32.286  59.258  1.00  0.00    -0.290 OA
BRANCH  15  16
HETATM   16  C   UNL     1       9.027  32.106  60.623  1.00  0.00     0.505 C 
HETATM   17  F   UNL     1      10.149  32.220  61.377  1.00  0.00    -0.184 F 
HETATM   18  F   UNL     1       8.221  33.139  60.977  1.00  0.00    -0.184 F 
ENDBRANCH  15  16
ENDBRANCH  11  15
ENDBRANCH   6   9
ENDBRANCH   5   6
ENDBRANCH   2   5
BRANCH   1  19
HETATM   19  C   UNL     1       6.967  24.309  54.601  1.00  0.00     0.048 A 
HETATM   20  C   UNL     1       7.256  24.363  53.167  1.00  0.00     0.022 A 
HETATM   21  C   UNL     1       7.734  23.295  52.499  1.00  0.00     0.054 A 
HETATM   22  C   UNL     1       7.979  22.085  53.201  1.00  0.00     0.157 A 
HETATM   23  N   UNL     1       7.724  22.069  54.564  1.00  0.00    -0.291 N 
HETATM   24  N   UNL     1       8.427  20.910  52.822  1.00  0.00    -0.130 NA
HETATM   25  C   UNL     1       8.072  20.799  54.975  1.00  0.00     0.130 A 
HETATM   26  C   UNL     1       7.225  23.165  55.268  1.00  0.00     0.117 A 
HETATM   27  C   UNL     1       7.975  20.312  56.369  1.00  0.00     0.094 C 
HETATM   28  N   UNL     1       8.483  20.104  53.935  1.00  0.00    -0.135 NA
ENDBRANCH   1  19
TORSDOF 7
ENDMDL
MODEL 3
REMARK VINA RESULT:      -9.6      2.458      3.338
REMARK  7 active torsions:
REMARK  status: ('A' for Active; 'I' for Inactive)
REMARK    1  A    between atoms: C_7  and  C_8 
REMARK       I    between atoms: C_8  and  N_9 
REMARK    2  A    between atoms: N_9  and  C_10 
REMARK    3  A    between atoms: C_10  and  C_11 
REMARK    4  A    between atoms: C_11  and  O_12 
REMARK    5  A    between atoms: C_11  and  C_13 
REMARK    6  A    between atoms: C_15  and  O_16 
REMARK    7  A    between atoms: O_16  and  C_17 
ROOT
HETATM    1  C   UNL     1       7.911  27.517  56.859  1.00  0.00     0.253 C 
HETATM    2  N   UNL     1       8.018  26.405  57.657  1.00  0.00    -0.354 N 
HETATM    3  O   UNL     1       7.361  27.506  55.763  1.00  0.00    -0.268 OA
HETATM    4  H   UNL     1       8.584  26.419  58.495  1.00  0.00     0.162 HD
ENDROOT
BRANCH   2   5
HETATM    5  C   UNL     1       7.392  25.142  57.276  1.00  0.00     0.159 C 
BRANCH   5   6
HETATM    6  C   UNL     1       8.414  24.066  56.861  1.00  0.00     0.169 C 
BRANCH   6   7
HETATM    7  O   UNL     1       8.291  22.937  57.737  1.00  0.00    -0.389 OA
HETATM    8  H   UNL     1       8.532  22.165  57.197  1.00  0.00     0.210 HD
ENDBRANCH   6   7
BRANCH   6   9
HETATM    9  C   UNL     1       8.199  23.631  55.426  1.00  0.00    -0.025 A 
HETATM   10  C   UNL     1       7.394  24.373  54.542  1.00  0.00     0.046 A 
HETATM   11  C   UNL     1       7.225  23.964  53.218  1.00  0.00     0.075 A 
HETATM   12  C   UNL     1       7.895  22.828  52.760  1.00  0.00     0.037 A 
HETATM   13  C   UNL     1       8.704  22.087  53.620  1.00  0.00     0.003 A 
HETATM   14  C   UNL     1       8.853  22.485  54.947  1.00  0.00     0.010 A 
BRANCH  11  15
HETATM   15  O   UNL     1       6.463  24.599  52.277  1.00  0.00    -0.290 OA
BRANCH  15  16
HETATM   16  C   UNL     1       5.129  24.896  52.657  1.00  0.00     0.505 C 
HETATM   17  F   UNL     1       4.893  26.216  52.447  1.00  0.00    -0.184 F 
HETATM   18  F   UNL     1       4.310  24.220  51.811  1.00  0.00    -0.184 F 
ENDBRANCH  15  16
ENDBRANCH  11  15
ENDBRANCH   6   9
ENDBRANCH   5   6
ENDBRANCH   2   5
BRANCH   1  19
HETATM   19  C   UNL     1       8.580  28.746  57.379  1.00  0.00     0.048 A 
HETATM   20  C   UNL     1       9.922  29.092  56.908  1.00  0.00     0.022 A 
HETATM   21  C   UNL     1      10.553  30.208  57.321  1.00  0.00     0.054 A 
HETATM   22  C   UNL     1       9.900  31.084  58.227  1.00  0.00     0.157 A 
HETATM   23  N   UNL     1       8.617  30.749  58.636  1.00  0.00    -0.291 N 
HETATM   24  N   UNL     1      10.261  32.214  58.792  1.00  0.00    -0.130 NA
HETATM   25  C   UNL     1       8.232  31.774  59.474  1.00  0.00     0.130 A 
HETATM   26  C   UNL     1       7.954  29.595  58.220  1.00  0.00     0.117 A 
HETATM   27  C   UNL     1       6.921  31.854  60.153  1.00  0.00     0.094 C 
HETATM   28  N   UNL     1       9.216  32.645  59.575  1.00  0.00    -0.135 NA
ENDBRANCH   1  19
TORSDOF 7
ENDMDL
MODEL 4
REMARK VINA RESULT:      -9.0      4.291      8.049
REMARK  7 active torsions:
REMARK  status: ('A' for Active; 'I' for Inactive)
REMARK    1  A    between atoms: C_7  and  C_8 
REMARK       I    between atoms: C_8  and  N_9 
REMARK    2  A    between atoms: N_9  and  C_10 
REMARK    3  A    between atoms: C_10  and  C_11 
REMARK    4  A    between atoms: C_11  and  O_12 
REMARK    5  A    between atoms: C_11  and  C_13 
REMARK    6  A    between atoms: C_15  and  O_16 
REMARK    7  A    between atoms: O_16  and  C_17 
ROOT
HETATM    1  C   UNL     1       6.946  25.316  54.046  1.00  0.00     0.253 C 
HETATM    2  N   UNL     1       5.779  25.642  54.694  1.00  0.00    -0.354 N 
HETATM    3  O   UNL     1       7.604  26.123  53.401  1.00  0.00    -0.268 OA
HETATM    4  H   UNL     1       5.199  24.926  55.111  1.00  0.00     0.162 HD
ENDROOT
BRANCH   2   5
HETATM    5  C   UNL     1       5.295  27.018  54.723  1.00  0.00     0.159 C 
BRANCH   5   6
HETATM    6  C   UNL     1       4.875  27.479  56.133  1.00  0.00     0.169 C 
BRANCH   6   7
HETATM    7  O   UNL     1       4.646  26.326  56.956  1.00  0.00    -0.389 OA
HETATM    8  H   UNL     1       4.373  25.622  56.343  1.00  0.00     0.210 HD
ENDBRANCH   6   7
BRANCH   6   9
HETATM    9  C   UNL     1       5.935  28.359  56.760  1.00  0.00    -0.025 A 
HETATM   10  C   UNL     1       7.304  28.052  56.660  1.00  0.00     0.046 A 
HETATM   11  C   UNL     1       8.267  28.888  57.230  1.00  0.00     0.075 A 
HETATM   12  C   UNL     1       7.863  30.060  57.872  1.00  0.00     0.037 A 
HETATM   13  C   UNL     1       6.510  30.383  57.972  1.00  0.00     0.003 A 
HETATM   14  C   UNL     1       5.551  29.535  57.422  1.00  0.00     0.010 A 
BRANCH  11  15
HETATM   15  O   UNL     1       9.618  28.685  57.202  1.00  0.00    -0.290 OA
BRANCH  15  16
HETATM   16  C   UNL     1      10.393  29.745  56.667  1.00  0.00     0.505 C 
HETATM   17  F   UNL     1      11.708  29.480  56.872  1.00  0.00    -0.184 F 
HETATM   18  F   UNL     1      10.205  29.742  55.322  1.00  0.00    -0.184 F 
ENDBRANCH  15  16
ENDBRANCH  11  15
ENDBRANCH   6   9
ENDBRANCH   5   6
ENDBRANCH   2   5
BRANCH   1  19
HETATM   19  C   UNL     1       7.335  23.875  54.113  1.00  0.00     0.048 A 
HETATM   20  C   UNL     1       7.532  23.122  52.874  1.00  0.00     0.022 A 
HETATM   21  C   UNL     1       7.918  21.831  52.883  1.00  0.00     0.054 A 
HETATM   22  C   UNL     1       8.152  21.181  54.123  1.00  0.00     0.157 A 
HETATM   23  N   UNL     1       7.986  21.925  55.282  1.00  0.00    -0.291 N 
HETATM   24  N   UNL     1       8.521  19.958  54.433  1.00  0.00    -0.130 NA
HETATM   25  C   UNL     1       8.301  21.059  56.308  1.00  0.00     0.130 A 
HETATM   26  C   UNL     1       7.584  23.261  55.288  1.00  0.00     0.117 A 
HETATM   27  C   UNL     1       8.274  21.415  57.744  1.00  0.00     0.094 C 
HETATM   28  N   UNL     1       8.613  19.883  55.803  1.00  0.00    -0.135 NA
ENDBRANCH   1  19
TORSDOF 7
ENDMDL
MODEL 5
REMARK VINA RESULT:      -9.0      1.677      2.150
REMARK  7 active torsions:
REMARK  status: ('A' for Active; 'I' for Inactive)
REMARK    1  A    between atoms: C_7  and  C_8 
REMARK       I    between atoms: C_8  and  N_9 
REMARK    2  A    between atoms: N_9  and  C_10 
REMARK    3  A    between atoms: C_10  and  C_11 
REMARK    4  A    between atoms: C_11  and  O_12 
REMARK    5  A    between atoms: C_11  and  C_13 
REMARK    6  A    between atoms: C_15  and  O_16 
REMARK    7  A    between atoms: O_16  and  C_17 
ROOT
HETATM    1  C   UNL     1       7.077  28.691  55.766  1.00  0.00     0.253 C 
HETATM    2  N   UNL     1       7.609  27.641  55.057  1.00  0.00    -0.354 N 
HETATM    3  O   UNL     1       5.897  29.016  55.702  1.00  0.00    -0.268 OA
HETATM    4  H   UNL     1       8.606  27.480  55.037  1.00  0.00     0.162 HD
ENDROOT
BRANCH   2   5
HETATM    5  C   UNL     1       6.760  26.781  54.239  1.00  0.00     0.159 C 
BRANCH   5   6
HETATM    6  C   UNL     1       6.067  25.670  55.053  1.00  0.00     0.169 C 
BRANCH   6   7
HETATM    7  O   UNL     1       4.926  25.195  54.326  1.00  0.00    -0.389 OA
HETATM    8  H   UNL     1       4.154  25.541  54.804  1.00  0.00     0.210 HD
ENDBRANCH   6   7
BRANCH   6   9
HETATM    9  C   UNL     1       7.016  24.522  55.331  1.00  0.00    -0.025 A 
HETATM   10  C   UNL     1       7.538  23.728  54.294  1.00  0.00     0.046 A 
HETATM   11  C   UNL     1       8.426  22.686  54.570  1.00  0.00     0.075 A 
HETATM   12  C   UNL     1       8.828  22.460  55.888  1.00  0.00     0.037 A 
HETATM   13  C   UNL     1       8.327  23.244  56.927  1.00  0.00     0.003 A 
HETATM   14  C   UNL     1       7.423  24.268  56.649  1.00  0.00     0.010 A 
BRANCH  11  15
HETATM   15  O   UNL     1       8.987  21.848  53.648  1.00  0.00    -0.290 OA
BRANCH  15  16
HETATM   16  C   UNL     1       8.374  20.577  53.511  1.00  0.00     0.505 C 
HETATM   17  F   UNL     1       8.344  20.238  52.198  1.00  0.00    -0.184 F 
HETATM   18  F   UNL     1       9.181  19.672  54.122  1.00  0.00    -0.184 F 
ENDBRANCH  15  16
ENDBRANCH  11  15
ENDBRANCH   6   9
ENDBRANCH   5   6
ENDBRANCH   2   5
BRANCH   1  19
HETATM   19  C   UNL     1       8.055  29.476  56.577  1.00  0.00     0.048 A 
HETATM   20  C   UNL     1       9.467  29.489  56.193  1.00  0.00     0.022 A 
HETATM   21  C   UNL     1      10.381  30.210  56.872  1.00  0.00     0.054 A 
HETATM   22  C   UNL     1       9.967  30.991  57.984  1.00  0.00     0.157 A 
HETATM   23  N   UNL     1       8.619  30.985  58.309  1.00  0.00    -0.291 N 
HETATM   24  N   UNL     1      10.618  31.770  58.817  1.00  0.00    -0.130 NA
HETATM   25  C   UNL     1       8.510  31.835  59.389  1.00  0.00     0.130 A 
HETATM   26  C   UNL     1       7.663  30.240  57.617  1.00  0.00     0.117 A 
HETATM   27  C   UNL     1       7.243  32.152  60.084  1.00  0.00     0.094 C 
HETATM   28  N   UNL     1       9.704  32.298  59.699  1.00  0.00    -0.135 NA
ENDBRANCH   1  19
TORSDOF 7
ENDMDL
MODEL 6
REMARK VINA RESULT:      -8.7      4.495      8.903
REMARK  7 active torsions:
REMARK  status: ('A' for Active; 'I' for Inactive)
REMARK    1  A    between atoms: C_7  and  C_8 
REMARK       I    between atoms: C_8  and  N_9 
REMARK    2  A    between atoms: N_9  and  C_10 
REMARK    3  A    between atoms: C_10  and  C_11 
REMARK    4  A    between atoms: C_11  and  O_12 
REMARK    5  A    between atoms: C_11  and  C_13 
REMARK    6  A    between atoms: C_15  and  O_16 
REMARK    7  A    between atoms: O_16  and  C_17 
ROOT
HETATM    1  C   UNL     1       6.692  25.414  54.793  1.00  0.00     0.253 C 
HETATM    2  N   UNL     1       7.666  26.225  55.325  1.00  0.00    -0.354 N 
HETATM    3  O   UNL     1       5.509  25.729  54.746  1.00  0.00    -0.268 OA
HETATM    4  H   UNL     1       8.608  25.884  55.461  1.00  0.00     0.162 HD
ENDROOT
BRANCH   2   5
HETATM    5  C   UNL     1       7.350  27.570  55.793  1.00  0.00     0.159 C 
BRANCH   5   6
HETATM    6  C   UNL     1       6.891  27.604  57.264  1.00  0.00     0.169 C 
BRANCH   6   7
HETATM    7  O   UNL     1       7.635  26.632  58.011  1.00  0.00    -0.389 OA
HETATM    8  H   UNL     1       7.081  26.420  58.781  1.00  0.00     0.210 HD
ENDBRANCH   6   7
BRANCH   6   9
HETATM    9  C   UNL     1       7.086  28.979  57.867  1.00  0.00    -0.025 A 
HETATM   10  C   UNL     1       8.228  29.298  58.625  1.00  0.00     0.046 A 
HETATM   11  C   UNL     1       8.397  30.578  59.157  1.00  0.00     0.075 A 
HETATM   12  C   UNL     1       7.438  31.560  58.898  1.00  0.00     0.037 A 
HETATM   13  C   UNL     1       6.305  31.262  58.141  1.00  0.00     0.003 A 
HETATM   14  C   UNL     1       6.129  29.977  57.631  1.00  0.00     0.010 A 
BRANCH  11  15
HETATM   15  O   UNL     1       9.456  30.997  59.912  1.00  0.00    -0.290 OA
BRANCH  15  16
HETATM   16  C   UNL     1       9.251  31.012  61.314  1.00  0.00     0.505 C 
HETATM   17  F   UNL     1       9.897  29.955  61.868  1.00  0.00    -0.184 F 
HETATM   18  F   UNL     1       9.855  32.128  61.798  1.00  0.00    -0.184 F 
ENDBRANCH  15  16
ENDBRANCH  11  15
ENDBRANCH   6   9
ENDBRANCH   5   6
ENDBRANCH   2   5
BRANCH   1  19
HETATM   19  C   UNL     1       7.157  24.071  54.335  1.00  0.00     0.048 A 
HETATM   20  C   UNL     1       7.294  23.804  52.902  1.00  0.00     0.022 A 
HETATM   21  C   UNL     1       7.742  22.621  52.441  1.00  0.00     0.054 A 
HETATM   22  C   UNL     1       8.105  21.604  53.363  1.00  0.00     0.157 A 
HETATM   23  N   UNL     1       7.994  21.892  54.715  1.00  0.00    -0.291 N 
HETATM   24  N   UNL     1       8.557  20.380  53.209  1.00  0.00    -0.130 NA
HETATM   25  C   UNL     1       8.431  20.753  55.358  1.00  0.00     0.130 A 
HETATM   26  C   UNL     1       7.527  23.111  55.208  1.00  0.00     0.117 A 
HETATM   27  C   UNL     1       8.498  20.592  56.827  1.00  0.00     0.094 C 
HETATM   28  N   UNL     1       8.760  19.847  54.460  1.00  0.00    -0.135 NA
ENDBRANCH   1  19
TORSDOF 7
ENDMDL
MODEL 7
REMARK VINA RESULT:      -8.7      5.954      8.956
REMARK  7 active torsions:
REMARK  status: ('A' for Active; 'I' for Inactive)
REMARK    1  A    between atoms: C_7  and  C_8 
REMARK       I    between atoms: C_8  and  N_9 
REMARK    2  A    between atoms: N_9  and  C_10 
REMARK    3  A    between atoms: C_10  and  C_11 
REMARK    4  A    between atoms: C_11  and  O_12 
REMARK    5  A    between atoms: C_11  and  C_13 
REMARK    6  A    between atoms: C_15  and  O_16 
REMARK    7  A    between atoms: O_16  and  C_17 
ROOT
HETATM    1  C   UNL     1       4.839  27.094  50.002  1.00  0.00     0.253 C 
HETATM    2  N   UNL     1       4.977  25.940  50.734  1.00  0.00    -0.354 N 
HETATM    3  O   UNL     1       5.513  28.098  50.199  1.00  0.00    -0.268 OA
HETATM    4  H   UNL     1       4.322  25.177  50.629  1.00  0.00     0.162 HD
ENDROOT
BRANCH   2   5
HETATM    5  C   UNL     1       6.015  25.815  51.752  1.00  0.00     0.159 C 
BRANCH   5   6
HETATM    6  C   UNL     1       5.459  25.424  53.135  1.00  0.00     0.169 C 
BRANCH   6   7
HETATM    7  O   UNL     1       4.171  24.814  52.969  1.00  0.00    -0.389 OA
HETATM    8  H   UNL     1       4.257  24.241  52.188  1.00  0.00     0.210 HD
ENDBRANCH   6   7
BRANCH   6   9
HETATM    9  C   UNL     1       6.393  24.471  53.851  1.00  0.00    -0.025 A 
HETATM   10  C   UNL     1       7.243  23.600  53.146  1.00  0.00     0.046 A 
HETATM   11  C   UNL     1       8.110  22.743  53.827  1.00  0.00     0.075 A 
HETATM   12  C   UNL     1       8.158  22.782  55.222  1.00  0.00     0.037 A 
HETATM   13  C   UNL     1       7.328  23.646  55.936  1.00  0.00     0.003 A 
HETATM   14  C   UNL     1       6.448  24.484  55.254  1.00  0.00     0.010 A 
BRANCH  11  15
HETATM   15  O   UNL     1       8.971  21.852  53.249  1.00  0.00    -0.290 OA
BRANCH  15  16
HETATM   16  C   UNL     1       8.501  20.520  53.136  1.00  0.00     0.505 C 
HETATM   17  F   UNL     1       8.725  19.870  54.305  1.00  0.00    -0.184 F 
HETATM   18  F   UNL     1       7.153  20.580  52.983  1.00  0.00    -0.184 F 
ENDBRANCH  15  16
ENDBRANCH  11  15
ENDBRANCH   6   9
ENDBRANCH   5   6
ENDBRANCH   2   5
BRANCH   1  19
HETATM   19  C   UNL     1       3.750  27.078  48.980  1.00  0.00     0.048 A 
HETATM   20  C   UNL     1       3.505  25.862  48.203  1.00  0.00     0.022 A 
HETATM   21  C   UNL     1       2.512  25.788  47.296  1.00  0.00     0.054 A 
HETATM   22  C   UNL     1       1.668  26.912  47.091  1.00  0.00     0.157 A 
HETATM   23  N   UNL     1       1.902  28.041  47.861  1.00  0.00    -0.291 N 
HETATM   24  N   UNL     1       0.649  27.127  46.291  1.00  0.00    -0.130 NA
HETATM   25  C   UNL     1       0.934  28.943  47.473  1.00  0.00     0.130 A 
HETATM   26  C   UNL     1       2.929  28.134  48.801  1.00  0.00     0.117 A 
HETATM   27  C   UNL     1       0.782  30.304  48.032  1.00  0.00     0.094 C 
HETATM   28  N   UNL     1       0.190  28.401  46.530  1.00  0.00    -0.135 NA
ENDBRANCH   1  19
TORSDOF 7
ENDMDL
MODEL 8
REMARK VINA RESULT:      -8.6      1.707      2.262
REMARK  7 active torsions:
REMARK  status: ('A' for Active; 'I' for Inactive)
REMARK    1  A    between atoms: C_7  and  C_8 
REMARK       I    between atoms: C_8  and  N_9 
REMARK    2  A    between atoms: N_9  and  C_10 
REMARK    3  A    between atoms: C_10  and  C_11 
REMARK    4  A    between atoms: C_11  and  O_12 
REMARK    5  A    between atoms: C_11  and  C_13 
REMARK    6  A    between atoms: C_15  and  O_16 
REMARK    7  A    between atoms: O_16  and  C_17 
ROOT
HETATM    1  C   UNL     1       7.900  29.013  56.755  1.00  0.00     0.253 C 
HETATM    2  N   UNL     1       6.980  28.013  56.555  1.00  0.00    -0.354 N 
HETATM    3  O   UNL     1       8.963  29.080  56.149  1.00  0.00    -0.268 OA
HETATM    4  H   UNL     1       6.175  27.920  57.159  1.00  0.00     0.162 HD
ENDROOT
BRANCH   2   5
HETATM    5  C   UNL     1       7.184  27.001  55.524  1.00  0.00     0.159 C 
BRANCH   5   6
HETATM    6  C   UNL     1       6.501  25.659  55.856  1.00  0.00     0.169 C 
BRANCH   6   7
HETATM    7  O   UNL     1       5.106  25.749  55.535  1.00  0.00    -0.389 OA
HETATM    8  H   UNL     1       4.945  26.689  55.348  1.00  0.00     0.210 HD
ENDBRANCH   6   7
BRANCH   6   9
HETATM    9  C   UNL     1       7.134  24.518  55.087  1.00  0.00    -0.025 A 
HETATM   10  C   UNL     1       7.887  23.521  55.733  1.00  0.00     0.046 A 
HETATM   11  C   UNL     1       8.447  22.467  55.006  1.00  0.00     0.075 A 
HETATM   12  C   UNL     1       8.221  22.386  53.631  1.00  0.00     0.037 A 
HETATM   13  C   UNL     1       7.469  23.362  52.978  1.00  0.00     0.003 A 
HETATM   14  C   UNL     1       6.931  24.424  53.702  1.00  0.00     0.010 A 
BRANCH  11  15
HETATM   15  O   UNL     1       9.201  21.451  55.525  1.00  0.00    -0.290 OA
BRANCH  15  16
HETATM   16  C   UNL     1       8.508  20.514  56.331  1.00  0.00     0.505 C 
HETATM   17  F   UNL     1       8.345  21.033  57.574  1.00  0.00    -0.184 F 
HETATM   18  F   UNL     1       7.263  20.375  55.807  1.00  0.00    -0.184 F 
ENDBRANCH  15  16
ENDBRANCH  11  15
ENDBRANCH   6   9
ENDBRANCH   5   6
ENDBRANCH   2   5
BRANCH   1  19
HETATM   19  C   UNL     1       7.557  29.994  57.828  1.00  0.00     0.048 A 
HETATM   20  C   UNL     1       6.443  30.923  57.629  1.00  0.00     0.022 A 
HETATM   21  C   UNL     1       6.074  31.802  58.581  1.00  0.00     0.054 A 
HETATM   22  C   UNL     1       6.770  31.825  59.818  1.00  0.00     0.157 A 
HETATM   23  N   UNL     1       7.802  30.915  59.993  1.00  0.00    -0.291 N 
HETATM   24  N   UNL     1       6.640  32.557  60.901  1.00  0.00    -0.130 NA
HETATM   25  C   UNL     1       8.268  31.146  61.270  1.00  0.00     0.130 A 
HETATM   26  C   UNL     1       8.199  30.002  59.015  1.00  0.00     0.117 A 
HETATM   27  C   UNL     1       9.375  30.402  61.908  1.00  0.00     0.094 C 
HETATM   28  N   UNL     1       7.580  32.132  61.810  1.00  0.00    -0.135 NA
ENDBRANCH   1  19
TORSDOF 7
ENDMDL
MODEL 9
REMARK VINA RESULT:      -8.5      4.542      8.042
REMARK  7 active torsions:
REMARK  status: ('A' for Active; 'I' for Inactive)
REMARK    1  A    between atoms: C_7  and  C_8 
REMARK       I    between atoms: C_8  and  N_9 
REMARK    2  A    between atoms: N_9  and  C_10 
REMARK    3  A    between atoms: C_10  and  C_11 
REMARK    4  A    between atoms: C_11  and  O_12 
REMARK    5  A    between atoms: C_11  and  C_13 
REMARK    6  A    between atoms: C_15  and  O_16 
REMARK    7  A    between atoms: O_16  and  C_17 
ROOT
HETATM    1  C   UNL     1       6.217  24.796  54.232  1.00  0.00     0.253 C 
HETATM    2  N   UNL     1       6.445  25.576  53.126  1.00  0.00    -0.354 N 
HETATM    3  O   UNL     1       5.522  25.155  55.176  1.00  0.00    -0.268 OA
HETATM    4  H   UNL     1       7.121  25.301  52.426  1.00  0.00     0.162 HD
ENDROOT
BRANCH   2   5
HETATM    5  C   UNL     1       5.788  26.870  52.970  1.00  0.00     0.159 C 
BRANCH   5   6
HETATM    6  C   UNL     1       6.744  28.060  53.182  1.00  0.00     0.169 C 
BRANCH   6   7
HETATM    7  O   UNL     1       6.264  29.187  52.436  1.00  0.00    -0.389 OA
HETATM    8  H   UNL     1       6.373  29.952  53.026  1.00  0.00     0.210 HD
ENDBRANCH   6   7
BRANCH   6   9
HETATM    9  C   UNL     1       6.853  28.420  54.649  1.00  0.00    -0.025 A 
HETATM   10  C   UNL     1       8.097  28.654  55.261  1.00  0.00     0.046 A 
HETATM   11  C   UNL     1       8.173  29.004  56.612  1.00  0.00     0.075 A 
HETATM   12  C   UNL     1       6.996  29.159  57.347  1.00  0.00     0.037 A 
HETATM   13  C   UNL     1       5.754  28.939  56.752  1.00  0.00     0.003 A 
HETATM   14  C   UNL     1       5.683  28.569  55.410  1.00  0.00     0.010 A 
BRANCH  11  15
HETATM   15  O   UNL     1       9.322  29.245  57.311  1.00  0.00    -0.290 OA
BRANCH  15  16
HETATM   16  C   UNL     1      10.356  29.902  56.597  1.00  0.00     0.505 C 
HETATM   17  F   UNL     1      10.635  31.082  57.205  1.00  0.00    -0.184 F 
HETATM   18  F   UNL     1      11.473  29.137  56.712  1.00  0.00    -0.184 F 
ENDBRANCH  15  16
ENDBRANCH  11  15
ENDBRANCH   6   9
ENDBRANCH   5   6
ENDBRANCH   2   5
BRANCH   1  19
HETATM   19  C   UNL     1       6.937  23.488  54.254  1.00  0.00     0.048 A 
HETATM   20  C   UNL     1       7.316  22.850  52.992  1.00  0.00     0.022 A 
HETATM   21  C   UNL     1       7.998  21.689  52.961  1.00  0.00     0.054 A 
HETATM   22  C   UNL     1       8.373  21.067  54.181  1.00  0.00     0.157 A 
HETATM   23  N   UNL     1       8.028  21.705  55.362  1.00  0.00    -0.291 N 
HETATM   24  N   UNL     1       9.020  19.956  54.453  1.00  0.00    -0.130 NA
HETATM   25  C   UNL     1       8.534  20.901  56.362  1.00  0.00     0.130 A 
HETATM   26  C   UNL     1       7.318  22.906  55.410  1.00  0.00     0.117 A 
HETATM   27  C   UNL     1       8.413  21.185  57.809  1.00  0.00     0.094 C 
HETATM   28  N   UNL     1       9.119  19.853  55.821  1.00  0.00    -0.135 NA
ENDBRANCH   1  19
TORSDOF 7
ENDMDL
MODEL 10
REMARK VINA RESULT:      -8.4      1.745      2.513
REMARK  7 active torsions:
REMARK  status: ('A' for Active; 'I' for Inactive)
REMARK    1  A    between atoms: C_7  and  C_8 
REMARK       I    between atoms: C_8  and  N_9 
REMARK    2  A    between atoms: N_9  and  C_10 
REMARK    3  A    between atoms: C_10  and  C_11 
REMARK    4  A    between atoms: C_11  and  O_12 
REMARK    5  A    between atoms: C_11  and  C_13 
REMARK    6  A    between atoms: C_15  and  O_16 
REMARK    7  A    between atoms: O_16  and  C_17 
ROOT
HETATM    1  C   UNL     1       5.814  28.894  56.781  1.00  0.00     0.253 C 
HETATM    2  N   UNL     1       6.136  28.636  55.472  1.00  0.00    -0.354 N 
HETATM    3  O   UNL     1       4.837  28.408  57.341  1.00  0.00    -0.268 OA
HETATM    4  H   UNL     1       6.873  29.149  55.007  1.00  0.00     0.162 HD
ENDROOT
BRANCH   2   5
HETATM    5  C   UNL     1       5.368  27.679  54.683  1.00  0.00     0.159 C 
BRANCH   5   6
HETATM    6  C   UNL     1       6.019  27.359  53.323  1.00  0.00     0.169 C 
BRANCH   6   7
HETATM    7  O   UNL     1       6.992  28.368  53.018  1.00  0.00    -0.389 OA
HETATM    8  H   UNL     1       7.288  28.708  53.879  1.00  0.00     0.210 HD
ENDBRANCH   6   7
BRANCH   6   9
HETATM    9  C   UNL     1       6.678  25.995  53.339  1.00  0.00    -0.025 A 
HETATM   10  C   UNL     1       6.598  25.149  54.460  1.00  0.00     0.046 A 
HETATM   11  C   UNL     1       7.197  23.888  54.446  1.00  0.00     0.075 A 
HETATM   12  C   UNL     1       7.849  23.451  53.291  1.00  0.00     0.037 A 
HETATM   13  C   UNL     1       7.930  24.274  52.168  1.00  0.00     0.003 A 
HETATM   14  C   UNL     1       7.350  25.541  52.194  1.00  0.00     0.010 A 
BRANCH  11  15
HETATM   15  O   UNL     1       7.191  22.989  55.476  1.00  0.00    -0.290 OA
BRANCH  15  16
HETATM   16  C   UNL     1       8.377  22.923  56.249  1.00  0.00     0.505 C 
HETATM   17  F   UNL     1       9.186  21.960  55.740  1.00  0.00    -0.184 F 
HETATM   18  F   UNL     1       9.032  24.101  56.083  1.00  0.00    -0.184 F 
ENDBRANCH  15  16
ENDBRANCH  11  15
ENDBRANCH   6   9
ENDBRANCH   5   6
ENDBRANCH   2   5
BRANCH   1  19
HETATM   19  C   UNL     1       6.695  29.879  57.477  1.00  0.00     0.048 A 
HETATM   20  C   UNL     1       6.105  30.856  58.393  1.00  0.00     0.022 A 
HETATM   21  C   UNL     1       6.863  31.741  59.070  1.00  0.00     0.054 A 
HETATM   22  C   UNL     1       8.273  31.722  58.905  1.00  0.00     0.157 A 
HETATM   23  N   UNL     1       8.810  30.768  58.054  1.00  0.00    -0.291 N 
HETATM   24  N   UNL     1       9.240  32.450  59.417  1.00  0.00    -0.130 NA
HETATM   25  C   UNL     1      10.173  30.968  58.110  1.00  0.00     0.130 A 
HETATM   26  C   UNL     1       8.038  29.848  57.343  1.00  0.00     0.117 A 
HETATM   27  C   UNL     1      11.169  30.170  57.363  1.00  0.00     0.094 C 
HETATM   28  N   UNL     1      10.431  31.976  58.917  1.00  0.00    -0.135 NA
ENDBRANCH   1  19
TORSDOF 7
ENDMDL
