MODEL 1
REMARK VINA RESULT:      -7.9      0.000      0.000
REMARK  5 active torsions:
REMARK  status: ('A' for Active; 'I' for Inactive)
REMARK    1  A    between atoms: C_2  and  O_3 
REMARK    2  A    between atoms: O_3  and  C_4 
REMARK    3  A    between atoms: C_6  and  C_7 
REMARK    4  A    between atoms: C_11  and  N_12 
REMARK       I    between atoms: N_12  and  C_13 
REMARK       I    between atoms: C_13  and  N_14 
REMARK    5  A    between atoms: N_14  and  C_15 
ROOT
HETATM    1  N   UNL     1       7.757  26.471  53.664  1.00  0.00    -0.308 N 
HETATM    2  C   UNL     1       6.830  27.404  53.256  1.00  0.00     0.325 C 
HETATM    3  N   UNL     1       5.638  26.922  52.791  1.00  0.00    -0.305 N 
HETATM    4  O   UNL     1       7.178  28.582  53.264  1.00  0.00    -0.247 OA
HETATM    5  H   UNL     1       8.687  26.884  53.671  1.00  0.00     0.170 HD
HETATM    6  H   UNL     1       5.450  25.943  52.910  1.00  0.00     0.171 HD
ENDROOT
BRANCH   1   7
HETATM    7  C   UNL     1       7.642  25.079  53.836  1.00  0.00     0.051 C 
HETATM    8  C   UNL     1       7.230  24.555  55.075  1.00  0.00     0.077 C 
HETATM    9  C   UNL     1       7.250  23.159  55.266  1.00  0.00     0.055 C 
HETATM   10  C   UNL     1       7.630  22.306  54.232  1.00  0.00     0.069 C 
HETATM   11  C   UNL     1       7.895  22.822  52.971  1.00  0.00     0.039 C 
HETATM   12  C   UNL     1       7.899  24.202  52.773  1.00  0.00     0.033 C 
BRANCH   8  13
HETATM   13  C   UNL     1       6.875  25.437  56.243  1.00  0.00     0.419 C 
HETATM   14  F   UNL     1       5.753  26.181  56.035  1.00  0.00    -0.166 F 
HETATM   15  F   UNL     1       6.641  24.722  57.378  1.00  0.00    -0.166 F 
HETATM   16  F   UNL     1       7.856  26.329  56.560  1.00  0.00    -0.166 F 
ENDBRANCH   8  13
BRANCH  10  17
HETATM   17  O   UNL     1       7.729  20.951  54.371  1.00  0.00    -0.351 OA
BRANCH  17  18
HETATM   18  C   UNL     1       7.763  20.522  55.737  1.00  0.00     0.171 C 
HETATM   19  C   UNL     1       9.217  20.337  56.135  1.00  0.00     0.034 C 
ENDBRANCH  17  18
ENDBRANCH  10  17
ENDBRANCH   1   7
BRANCH   3  20
HETATM   20  C   UNL     1       4.631  27.627  52.157  1.00  0.00     0.086 A 
HETATM   21  C   UNL     1       3.760  28.681  52.560  1.00  0.00     0.079 A 
HETATM   22  C   UNL     1       3.684  29.430  53.838  1.00  0.00     0.075 C 
HETATM   23  N   UNL     1       2.945  29.049  51.558  1.00  0.00    -0.177 NA
HETATM   24  N   UNL     1       3.292  28.257  50.540  1.00  0.00    -0.280 N 
HETATM   25  H   UNL     1       2.791  28.365  49.664  1.00  0.00     0.189 HD
HETATM   26  C   UNL     1       4.312  27.398  50.831  1.00  0.00     0.052 A 
HETATM   27  C   UNL     1       4.832  26.439  49.827  1.00  0.00     0.072 C 
ENDBRANCH   3  20
TORSDOF 5
ENDMDL
MODEL 2
REMARK VINA RESULT:      -7.8      4.154      5.723
REMARK  5 active torsions:
REMARK  status: ('A' for Active; 'I' for Inactive)
REMARK    1  A    between atoms: C_2  and  O_3 
REMARK    2  A    between atoms: O_3  and  C_4 
REMARK    3  A    between atoms: C_6  and  C_7 
REMARK    4  A    between atoms: C_11  and  N_12 
REMARK       I    between atoms: N_12  and  C_13 
REMARK       I    between atoms: C_13  and  N_14 
REMARK    5  A    between atoms: N_14  and  C_15 
ROOT
HETATM    1  N   UNL     1       6.705  27.760  55.975  1.00  0.00    -0.308 N 
HETATM    2  C   UNL     1       7.156  29.013  56.324  1.00  0.00     0.325 C 
HETATM    3  N   UNL     1       8.245  29.064  57.150  1.00  0.00    -0.305 N 
HETATM    4  O   UNL     1       6.500  29.975  55.936  1.00  0.00    -0.247 OA
HETATM    5  H   UNL     1       5.741  27.814  55.655  1.00  0.00     0.170 HD
HETATM    6  H   UNL     1       8.737  28.208  57.332  1.00  0.00     0.171 HD
ENDROOT
BRANCH   1   7
HETATM    7  C   UNL     1       7.266  26.488  56.196  1.00  0.00     0.051 C 
HETATM    8  C   UNL     1       7.618  25.674  55.104  1.00  0.00     0.077 C 
HETATM    9  C   UNL     1       8.052  24.355  55.348  1.00  0.00     0.055 C 
HETATM   10  C   UNL     1       8.174  23.878  56.651  1.00  0.00     0.069 C 
HETATM   11  C   UNL     1       7.965  24.732  57.725  1.00  0.00     0.039 C 
HETATM   12  C   UNL     1       7.515  26.032  57.499  1.00  0.00     0.033 C 
BRANCH   8  13
HETATM   13  C   UNL     1       7.440  26.122  53.677  1.00  0.00     0.419 C 
HETATM   14  F   UNL     1       7.973  27.350  53.427  1.00  0.00    -0.166 F 
HETATM   15  F   UNL     1       8.032  25.273  52.792  1.00  0.00    -0.166 F 
HETATM   16  F   UNL     1       6.132  26.203  53.299  1.00  0.00    -0.166 F 
ENDBRANCH   8  13
BRANCH  10  17
HETATM   17  O   UNL     1       8.531  22.594  56.952  1.00  0.00    -0.351 OA
BRANCH  17  18
HETATM   18  C   UNL     1       8.683  21.761  55.796  1.00  0.00     0.171 C 
HETATM   19  C   UNL     1       7.714  20.599  55.924  1.00  0.00     0.034 C 
ENDBRANCH  17  18
ENDBRANCH  10  17
ENDBRANCH   1   7
BRANCH   3  20
HETATM   20  C   UNL     1       8.770  30.173  57.789  1.00  0.00     0.086 A 
HETATM   21  C   UNL     1       8.209  31.200  58.603  1.00  0.00     0.079 A 
HETATM   22  C   UNL     1       6.821  31.390  59.091  1.00  0.00     0.075 C 
HETATM   23  N   UNL     1       9.150  32.067  59.010  1.00  0.00    -0.177 NA
HETATM   24  N   UNL     1      10.282  31.602  58.478  1.00  0.00    -0.280 N 
HETATM   25  H   UNL     1      11.138  32.116  58.660  1.00  0.00     0.189 HD
HETATM   26  C   UNL     1      10.122  30.456  57.753  1.00  0.00     0.052 A 
HETATM   27  C   UNL     1      11.267  29.793  57.083  1.00  0.00     0.072 C 
ENDBRANCH   3  20
TORSDOF 5
ENDMDL
MODEL 3
REMARK VINA RESULT:      -7.5      4.648      7.448
REMARK  5 active torsions:
REMARK  status: ('A' for Active; 'I' for Inactive)
REMARK    1  A    between atoms: C_2  and  O_3 
REMARK    2  A    between atoms: O_3  and  C_4 
REMARK    3  A    between atoms: C_6  and  C_7 
REMARK    4  A    between atoms: C_11  and  N_12 
REMARK       I    between atoms: N_12  and  C_13 
REMARK       I    between atoms: C_13  and  N_14 
REMARK    5  A    between atoms: N_14  and  C_15 
ROOT
HETATM    1  N   UNL     1       7.893  29.162  55.287  1.00  0.00    -0.308 N 
HETATM    2  C   UNL     1       7.619  27.875  54.880  1.00  0.00     0.325 C 
HETATM    3  N   UNL     1       7.379  26.958  55.867  1.00  0.00    -0.305 N 
HETATM    4  O   UNL     1       7.694  27.637  53.678  1.00  0.00    -0.247 OA
HETATM    5  H   UNL     1       8.369  29.667  54.543  1.00  0.00     0.170 HD
HETATM    6  H   UNL     1       7.269  27.298  56.805  1.00  0.00     0.171 HD
ENDROOT
BRANCH   1   7
HETATM    7  C   UNL     1       7.820  29.756  56.560  1.00  0.00     0.051 C 
HETATM    8  C   UNL     1       8.993  29.961  57.310  1.00  0.00     0.077 C 
HETATM    9  C   UNL     1       8.883  30.433  58.633  1.00  0.00     0.055 C 
HETATM   10  C   UNL     1       7.637  30.734  59.178  1.00  0.00     0.069 C 
HETATM   11  C   UNL     1       6.500  30.668  58.386  1.00  0.00     0.039 C 
HETATM   12  C   UNL     1       6.590  30.182  57.082  1.00  0.00     0.033 C 
BRANCH   8  13
HETATM   13  C   UNL     1      10.356  29.588  56.789  1.00  0.00     0.419 C 
HETATM   14  F   UNL     1      10.588  30.031  55.522  1.00  0.00    -0.166 F 
HETATM   15  F   UNL     1      11.359  30.102  57.551  1.00  0.00    -0.166 F 
HETATM   16  F   UNL     1      10.567  28.241  56.753  1.00  0.00    -0.166 F 
ENDBRANCH   8  13
BRANCH  10  17
HETATM   17  O   UNL     1       7.458  31.137  60.471  1.00  0.00    -0.351 OA
BRANCH  17  18
HETATM   18  C   UNL     1       8.619  30.950  61.290  1.00  0.00     0.171 C 
HETATM   19  C   UNL     1       8.595  32.001  62.385  1.00  0.00     0.034 C 
ENDBRANCH  17  18
ENDBRANCH  10  17
ENDBRANCH   1   7
BRANCH   3  20
HETATM   20  C   UNL     1       7.267  25.586  55.736  1.00  0.00     0.086 A 
HETATM   21  C   UNL     1       6.477  24.734  54.910  1.00  0.00     0.079 A 
HETATM   22  C   UNL     1       5.507  25.065  53.838  1.00  0.00     0.075 C 
HETATM   23  N   UNL     1       6.744  23.440  55.147  1.00  0.00    -0.177 NA
HETATM   24  N   UNL     1       7.687  23.465  56.093  1.00  0.00    -0.280 N 
HETATM   25  H   UNL     1       8.042  22.576  56.431  1.00  0.00     0.189 HD
HETATM   26  C   UNL     1       8.058  24.723  56.472  1.00  0.00     0.052 A 
HETATM   27  C   UNL     1       9.089  24.950  57.512  1.00  0.00     0.072 C 
ENDBRANCH   3  20
TORSDOF 5
ENDMDL
MODEL 4
REMARK VINA RESULT:      -7.4      3.569      5.886
REMARK  5 active torsions:
REMARK  status: ('A' for Active; 'I' for Inactive)
REMARK    1  A    between atoms: C_2  and  O_3 
REMARK    2  A    between atoms: O_3  and  C_4 
REMARK    3  A    between atoms: C_6  and  C_7 
REMARK    4  A    between atoms: C_11  and  N_12 
REMARK       I    between atoms: N_12  and  C_13 
REMARK       I    between atoms: C_13  and  N_14 
REMARK    5  A    between atoms: N_14  and  C_15 
ROOT
HETATM    1  N   UNL     1       6.982  25.277  56.302  1.00  0.00    -0.308 N 
HETATM    2  C   UNL     1       7.214  26.350  57.134  1.00  0.00     0.325 C 
HETATM    3  N   UNL     1       7.024  27.593  56.597  1.00  0.00    -0.305 N 
HETATM    4  O   UNL     1       7.649  26.108  58.256  1.00  0.00    -0.247 OA
HETATM    5  H   UNL     1       7.452  24.450  56.663  1.00  0.00     0.170 HD
HETATM    6  H   UNL     1       6.591  27.652  55.693  1.00  0.00     0.171 HD
ENDROOT
BRANCH   1   7
HETATM    7  C   UNL     1       6.425  25.220  55.011  1.00  0.00     0.051 C 
HETATM    8  C   UNL     1       6.833  24.220  54.111  1.00  0.00     0.077 C 
HETATM    9  C   UNL     1       6.363  24.263  52.783  1.00  0.00     0.055 C 
HETATM   10  C   UNL     1       5.473  25.255  52.377  1.00  0.00     0.069 C 
HETATM   11  C   UNL     1       4.963  26.151  53.306  1.00  0.00     0.039 C 
HETATM   12  C   UNL     1       5.435  26.133  54.618  1.00  0.00     0.033 C 
BRANCH   8  13
HETATM   13  C   UNL     1       7.844  23.167  54.484  1.00  0.00     0.419 C 
HETATM   14  F   UNL     1       8.270  22.429  53.421  1.00  0.00    -0.166 F 
HETATM   15  F   UNL     1       8.966  23.701  55.037  1.00  0.00    -0.166 F 
HETATM   16  F   UNL     1       7.371  22.266  55.392  1.00  0.00    -0.166 F 
ENDBRANCH   8  13
BRANCH  10  17
HETATM   17  O   UNL     1       5.028  25.388  51.093  1.00  0.00    -0.351 OA
BRANCH  17  18
HETATM   18  C   UNL     1       4.996  26.747  50.641  1.00  0.00     0.171 C 
HETATM   19  C   UNL     1       4.444  26.759  49.227  1.00  0.00     0.034 C 
ENDBRANCH  17  18
ENDBRANCH  10  17
ENDBRANCH   1   7
BRANCH   3  20
HETATM   20  C   UNL     1       7.364  28.814  57.152  1.00  0.00     0.086 A 
HETATM   21  C   UNL     1       8.603  29.465  57.420  1.00  0.00     0.079 A 
HETATM   22  C   UNL     1       9.994  29.041  57.130  1.00  0.00     0.075 C 
HETATM   23  N   UNL     1       8.409  30.677  57.966  1.00  0.00    -0.177 NA
HETATM   24  N   UNL     1       7.081  30.799  58.036  1.00  0.00    -0.280 N 
HETATM   25  H   UNL     1       6.704  31.656  58.428  1.00  0.00     0.189 HD
HETATM   26  C   UNL     1       6.399  29.724  57.543  1.00  0.00     0.052 A 
HETATM   27  C   UNL     1       4.917  29.676  57.540  1.00  0.00     0.072 C 
ENDBRANCH   3  20
TORSDOF 5
ENDMDL
MODEL 5
REMARK VINA RESULT:      -7.4      1.856      2.307
REMARK  5 active torsions:
REMARK  status: ('A' for Active; 'I' for Inactive)
REMARK    1  A    between atoms: C_2  and  O_3 
REMARK    2  A    between atoms: O_3  and  C_4 
REMARK    3  A    between atoms: C_6  and  C_7 
REMARK    4  A    between atoms: C_11  and  N_12 
REMARK       I    between atoms: N_12  and  C_13 
REMARK       I    between atoms: C_13  and  N_14 
REMARK    5  A    between atoms: N_14  and  C_15 
ROOT
HETATM    1  N   UNL     1       4.680  26.530  54.038  1.00  0.00    -0.308 N 
HETATM    2  C   UNL     1       4.215  27.264  52.971  1.00  0.00     0.325 C 
HETATM    3  N   UNL     1       4.799  27.022  51.758  1.00  0.00    -0.305 N 
HETATM    4  O   UNL     1       3.377  28.130  53.207  1.00  0.00    -0.247 OA
HETATM    5  H   UNL     1       4.440  26.994  54.911  1.00  0.00     0.170 HD
HETATM    6  H   UNL     1       5.417  26.234  51.685  1.00  0.00     0.171 HD
ENDROOT
BRANCH   1   7
HETATM    7  C   UNL     1       5.567  25.438  54.083  1.00  0.00     0.051 C 
HETATM    8  C   UNL     1       6.125  25.034  55.309  1.00  0.00     0.077 C 
HETATM    9  C   UNL     1       7.111  24.027  55.312  1.00  0.00     0.055 C 
HETATM   10  C   UNL     1       7.498  23.409  54.125  1.00  0.00     0.069 C 
HETATM   11  C   UNL     1       6.839  23.710  52.940  1.00  0.00     0.039 C 
HETATM   12  C   UNL     1       5.877  24.719  52.919  1.00  0.00     0.033 C 
BRANCH   8  13
HETATM   13  C   UNL     1       5.790  25.717  56.609  1.00  0.00     0.419 C 
HETATM   14  F   UNL     1       6.550  25.287  57.655  1.00  0.00    -0.166 F 
HETATM   15  F   UNL     1       5.973  27.064  56.547  1.00  0.00    -0.166 F 
HETATM   16  F   UNL     1       4.495  25.533  56.994  1.00  0.00    -0.166 F 
ENDBRANCH   8  13
BRANCH  10  17
HETATM   17  O   UNL     1       8.488  22.471  54.051  1.00  0.00    -0.351 OA
BRANCH  17  18
HETATM   18  C   UNL     1       8.003  21.126  54.142  1.00  0.00     0.171 C 
HETATM   19  C   UNL     1       8.392  20.400  52.866  1.00  0.00     0.034 C 
ENDBRANCH  17  18
ENDBRANCH  10  17
ENDBRANCH   1   7
BRANCH   3  20
HETATM   20  C   UNL     1       4.649  27.744  50.588  1.00  0.00     0.086 A 
HETATM   21  C   UNL     1       4.832  29.115  50.245  1.00  0.00     0.079 A 
HETATM   22  C   UNL     1       5.314  30.255  51.062  1.00  0.00     0.075 C 
HETATM   23  N   UNL     1       4.568  29.332  48.946  1.00  0.00    -0.177 NA
HETATM   24  N   UNL     1       4.235  28.129  48.471  1.00  0.00    -0.280 N 
HETATM   25  H   UNL     1       3.989  28.059  47.489  1.00  0.00     0.189 HD
HETATM   26  C   UNL     1       4.285  27.133  49.403  1.00  0.00     0.052 A 
HETATM   27  C   UNL     1       3.945  25.731  49.062  1.00  0.00     0.072 C 
ENDBRANCH   3  20
TORSDOF 5
ENDMDL
MODEL 6
REMARK VINA RESULT:      -7.3      3.316      4.663
REMARK  5 active torsions:
REMARK  status: ('A' for Active; 'I' for Inactive)
REMARK    1  A    between atoms: C_2  and  O_3 
REMARK    2  A    between atoms: O_3  and  C_4 
REMARK    3  A    between atoms: C_6  and  C_7 
REMARK    4  A    between atoms: C_11  and  N_12 
REMARK       I    between atoms: N_12  and  C_13 
REMARK       I    between atoms: C_13  and  N_14 
REMARK    5  A    between atoms: N_14  and  C_15 
ROOT
HETATM    1  N   UNL     1       5.179  26.207  54.799  1.00  0.00    -0.308 N 
HETATM    2  C   UNL     1       5.257  27.485  55.307  1.00  0.00     0.325 C 
HETATM    3  N   UNL     1       6.361  27.780  56.058  1.00  0.00    -0.305 N 
HETATM    4  O   UNL     1       4.296  28.225  55.117  1.00  0.00    -0.247 OA
HETATM    5  H   UNL     1       4.216  25.988  54.555  1.00  0.00     0.170 HD
HETATM    6  H   UNL     1       7.110  27.111  56.072  1.00  0.00     0.171 HD
ENDROOT
BRANCH   1   7
HETATM    7  C   UNL     1       6.127  25.167  54.783  1.00  0.00     0.051 C 
HETATM    8  C   UNL     1       6.759  24.809  53.579  1.00  0.00     0.077 C 
HETATM    9  C   UNL     1       7.603  23.680  53.561  1.00  0.00     0.055 C 
HETATM   10  C   UNL     1       7.843  22.954  54.725  1.00  0.00     0.069 C 
HETATM   11  C   UNL     1       7.331  23.399  55.937  1.00  0.00     0.039 C 
HETATM   12  C   UNL     1       6.478  24.501  55.966  1.00  0.00     0.033 C 
BRANCH   8  13
HETATM   13  C   UNL     1       6.480  25.521  52.281  1.00  0.00     0.419 C 
HETATM   14  F   UNL     1       6.646  26.871  52.361  1.00  0.00    -0.166 F 
HETATM   15  F   UNL     1       7.299  25.105  51.277  1.00  0.00    -0.166 F 
HETATM   16  F   UNL     1       5.208  25.332  51.828  1.00  0.00    -0.166 F 
ENDBRANCH   8  13
BRANCH  10  17
HETATM   17  O   UNL     1       8.599  21.818  54.762  1.00  0.00    -0.351 OA
BRANCH  17  18
HETATM   18  C   UNL     1       7.907  20.659  54.282  1.00  0.00     0.171 C 
HETATM   19  C   UNL     1       8.419  20.351  52.887  1.00  0.00     0.034 C 
ENDBRANCH  17  18
ENDBRANCH  10  17
ENDBRANCH   1   7
BRANCH   3  20
HETATM   20  C   UNL     1       6.585  28.909  56.824  1.00  0.00     0.086 A 
HETATM   21  C   UNL     1       5.730  29.864  57.446  1.00  0.00     0.079 A 
HETATM   22  C   UNL     1       4.249  29.929  57.515  1.00  0.00     0.075 C 
HETATM   23  N   UNL     1       6.437  30.793  58.111  1.00  0.00    -0.177 NA
HETATM   24  N   UNL     1       7.710  30.434  57.925  1.00  0.00    -0.280 N 
HETATM   25  H   UNL     1       8.431  31.010  58.347  1.00  0.00     0.189 HD
HETATM   26  C   UNL     1       7.862  29.300  57.180  1.00  0.00     0.052 A 
HETATM   27  C   UNL     1       9.203  28.749  56.866  1.00  0.00     0.072 C 
ENDBRANCH   3  20
TORSDOF 5
ENDMDL
MODEL 7
REMARK VINA RESULT:      -7.3      9.987     11.893
REMARK  5 active torsions:
REMARK  status: ('A' for Active; 'I' for Inactive)
REMARK    1  A    between atoms: C_2  and  O_3 
REMARK    2  A    between atoms: O_3  and  C_4 
REMARK    3  A    between atoms: C_6  and  C_7 
REMARK    4  A    between atoms: C_11  and  N_12 
REMARK       I    between atoms: N_12  and  C_13 
REMARK       I    between atoms: C_13  and  N_14 
REMARK    5  A    between atoms: N_14  and  C_15 
ROOT
HETATM    1  N   UNL     1       6.268  31.464  62.296  1.00  0.00    -0.308 N 
HETATM    2  C   UNL     1       5.543  32.351  63.060  1.00  0.00     0.325 C 
HETATM    3  N   UNL     1       6.002  33.639  63.105  1.00  0.00    -0.305 N 
HETATM    4  O   UNL     1       4.598  31.900  63.700  1.00  0.00    -0.247 OA
HETATM    5  H   UNL     1       6.059  30.510  62.581  1.00  0.00     0.170 HD
HETATM    6  H   UNL     1       6.739  33.896  62.474  1.00  0.00     0.171 HD
ENDROOT
BRANCH   1   7
HETATM    7  C   UNL     1       7.338  31.679  61.408  1.00  0.00     0.051 C 
HETATM    8  C   UNL     1       7.086  32.119  60.096  1.00  0.00     0.077 C 
HETATM    9  C   UNL     1       8.159  32.199  59.185  1.00  0.00     0.055 C 
HETATM   10  C   UNL     1       9.456  31.890  59.587  1.00  0.00     0.069 C 
HETATM   11  C   UNL     1       9.717  31.597  60.919  1.00  0.00     0.039 C 
HETATM   12  C   UNL     1       8.664  31.494  61.826  1.00  0.00     0.033 C 
BRANCH   8  13
HETATM   13  C   UNL     1       5.693  32.401  59.595  1.00  0.00     0.419 C 
HETATM   14  F   UNL     1       5.620  32.512  58.240  1.00  0.00    -0.166 F 
HETATM   15  F   UNL     1       4.815  31.418  59.935  1.00  0.00    -0.166 F 
HETATM   16  F   UNL     1       5.169  33.559  60.089  1.00  0.00    -0.166 F 
ENDBRANCH   8  13
BRANCH  10  17
HETATM   17  O   UNL     1      10.527  31.889  58.740  1.00  0.00    -0.351 OA
BRANCH  17  18
HETATM   18  C   UNL     1      10.307  31.127  57.548  1.00  0.00     0.171 C 
HETATM   19  C   UNL     1      11.379  30.055  57.471  1.00  0.00     0.034 C 
ENDBRANCH  17  18
ENDBRANCH  10  17
ENDBRANCH   1   7
BRANCH   3  20
HETATM   20  C   UNL     1       5.574  34.660  63.933  1.00  0.00     0.086 A 
HETATM   21  C   UNL     1       4.691  35.765  63.761  1.00  0.00     0.079 A 
HETATM   22  C   UNL     1       3.868  36.166  62.593  1.00  0.00     0.075 C 
HETATM   23  N   UNL     1       4.582  36.484  64.890  1.00  0.00    -0.177 NA
HETATM   24  N   UNL     1       5.368  35.849  65.763  1.00  0.00    -0.280 N 
HETATM   25  H   UNL     1       5.439  36.229  66.701  1.00  0.00     0.189 HD
HETATM   26  C   UNL     1       5.973  34.736  65.255  1.00  0.00     0.052 A 
HETATM   27  C   UNL     1       6.886  33.903  66.075  1.00  0.00     0.072 C 
ENDBRANCH   3  20
TORSDOF 5
ENDMDL
MODEL 8
REMARK VINA RESULT:      -7.3      1.852      2.750
REMARK  5 active torsions:
REMARK  status: ('A' for Active; 'I' for Inactive)
REMARK    1  A    between atoms: C_2  and  O_3 
REMARK    2  A    between atoms: O_3  and  C_4 
REMARK    3  A    between atoms: C_6  and  C_7 
REMARK    4  A    between atoms: C_11  and  N_12 
REMARK       I    between atoms: N_12  and  C_13 
REMARK       I    between atoms: C_13  and  N_14 
REMARK    5  A    between atoms: N_14  and  C_15 
ROOT
HETATM    1  N   UNL     1       6.675  27.628  52.556  1.00  0.00    -0.308 N 
HETATM    2  C   UNL     1       5.797  28.258  51.702  1.00  0.00     0.325 C 
HETATM    3  N   UNL     1       4.949  27.453  50.993  1.00  0.00    -0.305 N 
HETATM    4  O   UNL     1       5.902  29.475  51.586  1.00  0.00    -0.247 OA
HETATM    5  H   UNL     1       7.454  28.247  52.772  1.00  0.00     0.170 HD
HETATM    6  H   UNL     1       4.910  26.481  51.238  1.00  0.00     0.171 HD
ENDROOT
BRANCH   1   7
HETATM    7  C   UNL     1       6.760  26.281  52.955  1.00  0.00     0.051 C 
HETATM    8  C   UNL     1       6.222  25.878  54.191  1.00  0.00     0.077 C 
HETATM    9  C   UNL     1       6.435  24.556  54.630  1.00  0.00     0.055 C 
HETATM   10  C   UNL     1       7.130  23.648  53.835  1.00  0.00     0.069 C 
HETATM   11  C   UNL     1       7.531  24.011  52.556  1.00  0.00     0.039 C 
HETATM   12  C   UNL     1       7.345  25.321  52.117  1.00  0.00     0.033 C 
BRANCH   8  13
HETATM   13  C   UNL     1       5.521  26.840  55.115  1.00  0.00     0.419 C 
HETATM   14  F   UNL     1       4.441  27.444  54.546  1.00  0.00    -0.166 F 
HETATM   15  F   UNL     1       5.056  26.230  56.239  1.00  0.00    -0.166 F 
HETATM   16  F   UNL     1       6.326  27.853  55.545  1.00  0.00    -0.166 F 
ENDBRANCH   8  13
BRANCH  10  17
HETATM   17  O   UNL     1       7.422  22.373  54.227  1.00  0.00    -0.351 OA
BRANCH  17  18
HETATM   18  C   UNL     1       8.572  21.827  53.570  1.00  0.00     0.171 C 
HETATM   19  C   UNL     1       8.185  20.478  52.990  1.00  0.00     0.034 C 
ENDBRANCH  17  18
ENDBRANCH  10  17
ENDBRANCH   1   7
BRANCH   3  20
HETATM   20  C   UNL     1       4.116  27.815  49.949  1.00  0.00     0.086 A 
HETATM   21  C   UNL     1       4.106  27.534  48.552  1.00  0.00     0.079 A 
HETATM   22  C   UNL     1       5.003  26.678  47.737  1.00  0.00     0.075 C 
HETATM   23  N   UNL     1       3.058  28.114  47.945  1.00  0.00    -0.177 NA
HETATM   24  N   UNL     1       2.411  28.742  48.930  1.00  0.00    -0.280 N 
HETATM   25  H   UNL     1       1.572  29.259  48.691  1.00  0.00     0.189 HD
HETATM   26  C   UNL     1       2.986  28.582  50.159  1.00  0.00     0.052 A 
HETATM   27  C   UNL     1       2.411  29.209  51.374  1.00  0.00     0.072 C 
ENDBRANCH   3  20
TORSDOF 5
ENDMDL
MODEL 9
REMARK VINA RESULT:      -7.2      3.356      6.286
REMARK  5 active torsions:
REMARK  status: ('A' for Active; 'I' for Inactive)
REMARK    1  A    between atoms: C_2  and  O_3 
REMARK    2  A    between atoms: O_3  and  C_4 
REMARK    3  A    between atoms: C_6  and  C_7 
REMARK    4  A    between atoms: C_11  and  N_12 
REMARK       I    between atoms: N_12  and  C_13 
REMARK       I    between atoms: C_13  and  N_14 
REMARK    5  A    between atoms: N_14  and  C_15 
ROOT
HETATM    1  N   UNL     1       5.037  26.029  54.931  1.00  0.00    -0.308 N 
HETATM    2  C   UNL     1       5.299  26.750  56.074  1.00  0.00     0.325 C 
HETATM    3  N   UNL     1       5.847  27.991  55.905  1.00  0.00    -0.305 N 
HETATM    4  O   UNL     1       5.098  26.191  57.149  1.00  0.00    -0.247 OA
HETATM    5  H   UNL     1       4.954  25.040  55.154  1.00  0.00     0.170 HD
HETATM    6  H   UNL     1       5.888  28.362  54.973  1.00  0.00     0.171 HD
ENDROOT
BRANCH   1   7
HETATM    7  C   UNL     1       5.092  26.407  53.576  1.00  0.00     0.051 C 
HETATM    8  C   UNL     1       5.995  25.773  52.704  1.00  0.00     0.077 C 
HETATM    9  C   UNL     1       6.127  26.258  51.387  1.00  0.00     0.055 C 
HETATM   10  C   UNL     1       5.345  27.320  50.940  1.00  0.00     0.069 C 
HETATM   11  C   UNL     1       4.355  27.844  51.759  1.00  0.00     0.039 C 
HETATM   12  C   UNL     1       4.227  27.389  53.071  1.00  0.00     0.033 C 
BRANCH   8  13
HETATM   13  C   UNL     1       6.910  24.666  53.159  1.00  0.00     0.419 C 
HETATM   14  F   UNL     1       7.835  25.073  54.072  1.00  0.00    -0.166 F 
HETATM   15  F   UNL     1       6.231  23.645  53.749  1.00  0.00    -0.166 F 
HETATM   16  F   UNL     1       7.620  24.104  52.140  1.00  0.00    -0.166 F 
ENDBRANCH   8  13
BRANCH  10  17
HETATM   17  O   UNL     1       5.467  27.875  49.698  1.00  0.00    -0.351 OA
BRANCH  17  18
HETATM   18  C   UNL     1       4.285  27.742  48.899  1.00  0.00     0.171 C 
HETATM   19  C   UNL     1       4.451  26.519  48.015  1.00  0.00     0.034 C 
ENDBRANCH  17  18
ENDBRANCH  10  17
ENDBRANCH   1   7
BRANCH   3  20
HETATM   20  C   UNL     1       6.369  28.824  56.877  1.00  0.00     0.086 A 
HETATM   21  C   UNL     1       7.663  28.976  57.455  1.00  0.00     0.079 A 
HETATM   22  C   UNL     1       8.941  28.288  57.147  1.00  0.00     0.075 C 
HETATM   23  N   UNL     1       7.676  29.956  58.373  1.00  0.00    -0.177 NA
HETATM   24  N   UNL     1       6.424  30.423  58.376  1.00  0.00    -0.280 N 
HETATM   25  H   UNL     1       6.203  31.182  59.011  1.00  0.00     0.189 HD
HETATM   26  C   UNL     1       5.600  29.799  57.484  1.00  0.00     0.052 A 
HETATM   27  C   UNL     1       4.173  30.179  57.346  1.00  0.00     0.072 C 
ENDBRANCH   3  20
TORSDOF 5
ENDMDL
MODEL 10
REMARK VINA RESULT:      -7.2      2.092      2.857
REMARK  5 active torsions:
REMARK  status: ('A' for Active; 'I' for Inactive)
REMARK    1  A    between atoms: C_2  and  O_3 
REMARK    2  A    between atoms: O_3  and  C_4 
REMARK    3  A    between atoms: C_6  and  C_7 
REMARK    4  A    between atoms: C_11  and  N_12 
REMARK       I    between atoms: N_12  and  C_13 
REMARK       I    between atoms: C_13  and  N_14 
REMARK    5  A    between atoms: N_14  and  C_15 
ROOT
HETATM    1  N   UNL     1       6.108  27.966  52.103  1.00  0.00    -0.308 N 
HETATM    2  C   UNL     1       5.186  28.472  51.215  1.00  0.00     0.325 C 
HETATM    3  N   UNL     1       4.347  27.570  50.621  1.00  0.00    -0.305 N 
HETATM    4  O   UNL     1       5.245  29.673  50.966  1.00  0.00    -0.247 OA
HETATM    5  H   UNL     1       6.870  28.627  52.228  1.00  0.00     0.170 HD
HETATM    6  H   UNL     1       4.349  26.628  50.969  1.00  0.00     0.171 HD
ENDROOT
BRANCH   1   7
HETATM    7  C   UNL     1       6.250  26.672  52.640  1.00  0.00     0.051 C 
HETATM    8  C   UNL     1       5.784  26.395  53.938  1.00  0.00     0.077 C 
HETATM    9  C   UNL     1       6.056  25.133  54.505  1.00  0.00     0.055 C 
HETATM   10  C   UNL     1       6.736  24.159  53.778  1.00  0.00     0.069 C 
HETATM   11  C   UNL     1       7.063  24.390  52.449  1.00  0.00     0.039 C 
HETATM   12  C   UNL     1       6.820  25.640  51.882  1.00  0.00     0.033 C 
BRANCH   8  13
HETATM   13  C   UNL     1       5.104  27.436  54.788  1.00  0.00     0.419 C 
HETATM   14  F   UNL     1       3.931  27.882  54.257  1.00  0.00    -0.166 F 
HETATM   15  F   UNL     1       4.795  26.968  56.029  1.00  0.00    -0.166 F 
HETATM   16  F   UNL     1       5.866  28.549  54.987  1.00  0.00    -0.166 F 
ENDBRANCH   8  13
BRANCH  10  17
HETATM   17  O   UNL     1       7.082  22.942  54.290  1.00  0.00    -0.351 OA
BRANCH  17  18
HETATM   18  C   UNL     1       8.216  22.355  53.640  1.00  0.00     0.171 C 
HETATM   19  C   UNL     1       7.892  20.899  53.355  1.00  0.00     0.034 C 
ENDBRANCH  17  18
ENDBRANCH  10  17
ENDBRANCH   1   7
BRANCH   3  20
HETATM   20  C   UNL     1       3.474  27.791  49.571  1.00  0.00     0.086 A 
HETATM   21  C   UNL     1       2.227  28.471  49.451  1.00  0.00     0.079 A 
HETATM   22  C   UNL     1       1.451  29.239  50.454  1.00  0.00     0.075 C 
HETATM   23  N   UNL     1       1.765  28.424  48.191  1.00  0.00    -0.177 NA
HETATM   24  N   UNL     1       2.697  27.740  47.522  1.00  0.00    -0.280 N 
HETATM   25  H   UNL     1       2.548  27.580  46.531  1.00  0.00     0.189 HD
HETATM   26  C   UNL     1       3.757  27.352  48.291  1.00  0.00     0.052 A 
HETATM   27  C   UNL     1       4.889  26.580  47.723  1.00  0.00     0.072 C 
ENDBRANCH   3  20
TORSDOF 5
ENDMDL
