MODEL 1
REMARK VINA RESULT:      -8.2      0.000      0.000
REMARK  8 active torsions:
REMARK  status: ('A' for Active; 'I' for Inactive)
REMARK    1  A    between atoms: C_4  and  C_5 
REMARK    2  A    between atoms: C_5  and  N_6 
REMARK    3  A    between atoms: N_6  and  C_9 
REMARK    4  A    between atoms: C_9  and  C_10 
REMARK    5  A    between atoms: C_10  and  C_11 
REMARK    6  A    between atoms: C_11  and  N_12 
REMARK       I    between atoms: N_12  and  C_13 
REMARK    7  A    between atoms: C_13  and  C_14 
REMARK    8  A    between atoms: C_16  and  O_17 
ROOT
HETATM    1  C   UNL     1       6.720  28.197  53.624  1.00  0.00     0.047 C 
ENDROOT
BRANCH   1   2
HETATM    2  C   UNL     1       6.931  28.256  55.130  1.00  0.00     0.235 C 
BRANCH   2   3
HETATM    3  N   UNL     1       8.054  29.197  55.422  1.00  0.00    -0.067 N 
HETATM    4  H   UNL     1       7.704  30.142  55.627  1.00  0.00     0.277 HD
HETATM    5  H   UNL     1       8.608  29.292  54.557  1.00  0.00     0.277 HD
BRANCH   3   6
HETATM    6  C   UNL     1       9.011  28.786  56.506  1.00  0.00     0.223 C 
HETATM    7  C   UNL     1       8.461  27.576  57.260  1.00  0.00     0.046 C 
BRANCH   6   8
HETATM    8  C   UNL     1       9.290  29.923  57.439  1.00  0.00     0.032 A 
HETATM    9  S   UNL     1       8.260  30.303  58.764  1.00  0.00    -0.076 SA
HETATM   10  C   UNL     1       9.305  31.596  59.202  1.00  0.00     0.071 A 
HETATM   11  C   UNL     1       9.005  32.438  60.393  1.00  0.00     0.078 C 
HETATM   12  N   UNL     1      10.350  31.755  58.421  1.00  0.00    -0.257 NA
HETATM   13  C   UNL     1      10.354  30.805  57.425  1.00  0.00     0.134 A 
ENDBRANCH   6   8
ENDBRANCH   3   6
ENDBRANCH   2   3
ENDBRANCH   1   2
BRANCH   1  14
HETATM   14  C   UNL     1       6.050  26.897  53.172  1.00  0.00     0.124 C 
BRANCH  14  15
HETATM   15  N   UNL     1       6.552  25.673  53.772  1.00  0.00    -0.357 N 
HETATM   16  C   UNL     1       7.443  24.831  53.131  1.00  0.00     0.251 C 
HETATM   17  O   UNL     1       8.095  25.158  52.147  1.00  0.00    -0.268 OA
HETATM   18  H   UNL     1       5.923  25.219  54.430  1.00  0.00     0.162 HD
BRANCH  16  19
HETATM   19  C   UNL     1       7.594  23.480  53.720  1.00  0.00     0.034 A 
HETATM   20  C   UNL     1       7.849  22.401  52.867  1.00  0.00     0.053 A 
HETATM   21  C   UNL     1       7.991  21.129  53.412  1.00  0.00     0.066 A 
HETATM   22  C   UNL     1       7.902  20.926  54.786  1.00  0.00     0.036 A 
HETATM   23  C   UNL     1       7.665  22.005  55.637  1.00  0.00     0.004 A 
HETATM   24  C   UNL     1       7.507  23.286  55.106  1.00  0.00     0.017 A 
BRANCH  21  25
HETATM   25  O   UNL     1       8.218  20.038  52.629  1.00  0.00    -0.361 OA
HETATM   26  H   UNL     1       9.128  19.724  52.761  1.00  0.00     0.217 HD
ENDBRANCH  21  25
ENDBRANCH  16  19
ENDBRANCH  14  15
ENDBRANCH   1  14
TORSDOF 8
ENDMDL
MODEL 2
REMARK VINA RESULT:      -8.0      1.736      2.030
REMARK  8 active torsions:
REMARK  status: ('A' for Active; 'I' for Inactive)
REMARK    1  A    between atoms: C_4  and  C_5 
REMARK    2  A    between atoms: C_5  and  N_6 
REMARK    3  A    between atoms: N_6  and  C_9 
REMARK    4  A    between atoms: C_9  and  C_10 
REMARK    5  A    between atoms: C_10  and  C_11 
REMARK    6  A    between atoms: C_11  and  N_12 
REMARK       I    between atoms: N_12  and  C_13 
REMARK    7  A    between atoms: C_13  and  C_14 
REMARK    8  A    between atoms: C_16  and  O_17 
ROOT
HETATM    1  C   UNL     1       6.977  26.783  57.389  1.00  0.00     0.047 C 
ENDROOT
BRANCH   1   2
HETATM    2  C   UNL     1       7.882  27.676  56.552  1.00  0.00     0.235 C 
BRANCH   2   3
HETATM    3  N   UNL     1       8.927  28.270  57.440  1.00  0.00    -0.067 N 
HETATM    4  H   UNL     1       9.713  27.622  57.575  1.00  0.00     0.277 HD
HETATM    5  H   UNL     1       8.506  28.388  58.374  1.00  0.00     0.277 HD
BRANCH   3   6
HETATM    6  C   UNL     1       9.466  29.614  57.037  1.00  0.00     0.223 C 
HETATM    7  C   UNL     1      10.958  29.507  56.721  1.00  0.00     0.046 C 
BRANCH   6   8
HETATM    8  C   UNL     1       9.211  30.637  58.100  1.00  0.00     0.032 A 
HETATM    9  S   UNL     1       7.756  30.670  59.020  1.00  0.00    -0.076 SA
HETATM   10  C   UNL     1       8.342  32.028  59.894  1.00  0.00     0.071 A 
HETATM   11  C   UNL     1       7.522  32.641  60.976  1.00  0.00     0.078 C 
HETATM   12  N   UNL     1       9.534  32.449  59.534  1.00  0.00    -0.257 NA
HETATM   13  C   UNL     1      10.037  31.660  58.524  1.00  0.00     0.134 A 
ENDBRANCH   6   8
ENDBRANCH   3   6
ENDBRANCH   2   3
ENDBRANCH   1   2
BRANCH   1  14
HETATM   14  C   UNL     1       6.286  25.700  56.559  1.00  0.00     0.124 C 
BRANCH  14  15
HETATM   15  N   UNL     1       7.085  24.531  56.232  1.00  0.00    -0.357 N 
HETATM   16  C   UNL     1       6.997  23.875  55.018  1.00  0.00     0.251 C 
HETATM   17  O   UNL     1       6.463  24.356  54.025  1.00  0.00    -0.268 OA
HETATM   18  H   UNL     1       7.350  23.948  57.022  1.00  0.00     0.162 HD
BRANCH  16  19
HETATM   19  C   UNL     1       7.614  22.528  54.964  1.00  0.00     0.034 A 
HETATM   20  C   UNL     1       7.681  21.870  53.732  1.00  0.00     0.053 A 
HETATM   21  C   UNL     1       8.257  20.606  53.674  1.00  0.00     0.066 A 
HETATM   22  C   UNL     1       8.780  20.005  54.815  1.00  0.00     0.036 A 
HETATM   23  C   UNL     1       8.727  20.669  56.040  1.00  0.00     0.004 A 
HETATM   24  C   UNL     1       8.141  21.934  56.119  1.00  0.00     0.017 A 
BRANCH  21  25
HETATM   25  O   UNL     1       8.331  19.908  52.506  1.00  0.00    -0.361 OA
HETATM   26  H   UNL     1       9.146  19.379  52.492  1.00  0.00     0.217 HD
ENDBRANCH  21  25
ENDBRANCH  16  19
ENDBRANCH  14  15
ENDBRANCH   1  14
TORSDOF 8
ENDMDL
MODEL 3
REMARK VINA RESULT:      -8.0      1.161      1.550
REMARK  8 active torsions:
REMARK  status: ('A' for Active; 'I' for Inactive)
REMARK    1  A    between atoms: C_4  and  C_5 
REMARK    2  A    between atoms: C_5  and  N_6 
REMARK    3  A    between atoms: N_6  and  C_9 
REMARK    4  A    between atoms: C_9  and  C_10 
REMARK    5  A    between atoms: C_10  and  C_11 
REMARK    6  A    between atoms: C_11  and  N_12 
REMARK       I    between atoms: N_12  and  C_13 
REMARK    7  A    between atoms: C_13  and  C_14 
REMARK    8  A    between atoms: C_16  and  O_17 
ROOT
HETATM    1  C   UNL     1       7.569  27.502  54.105  1.00  0.00     0.047 C 
ENDROOT
BRANCH   1   2
HETATM    2  C   UNL     1       7.210  28.627  55.067  1.00  0.00     0.235 C 
BRANCH   2   3
HETATM    3  N   UNL     1       8.469  29.288  55.525  1.00  0.00    -0.067 N 
HETATM    4  H   UNL     1       8.378  30.312  55.508  1.00  0.00     0.277 HD
HETATM    5  H   UNL     1       9.201  29.067  54.833  1.00  0.00     0.277 HD
BRANCH   3   6
HETATM    6  C   UNL     1       9.000  28.867  56.866  1.00  0.00     0.223 C 
HETATM    7  C   UNL     1       8.053  27.855  57.510  1.00  0.00     0.046 C 
BRANCH   6   8
HETATM    8  C   UNL     1       9.211  30.051  57.758  1.00  0.00     0.032 A 
HETATM    9  S   UNL     1       8.203  30.378  59.114  1.00  0.00    -0.076 SA
HETATM   10  C   UNL     1       9.145  31.769  59.476  1.00  0.00     0.071 A 
HETATM   11  C   UNL     1       8.817  32.616  60.656  1.00  0.00     0.078 C 
HETATM   12  N   UNL     1      10.141  31.997  58.650  1.00  0.00    -0.257 NA
HETATM   13  C   UNL     1      10.191  31.022  57.679  1.00  0.00     0.134 A 
ENDBRANCH   6   8
ENDBRANCH   3   6
ENDBRANCH   2   3
ENDBRANCH   1   2
BRANCH   1  14
HETATM   14  C   UNL     1       6.580  26.335  54.167  1.00  0.00     0.124 C 
BRANCH  14  15
HETATM   15  N   UNL     1       7.143  25.030  54.465  1.00  0.00    -0.357 N 
HETATM   16  C   UNL     1       7.792  24.257  53.519  1.00  0.00     0.251 C 
HETATM   17  O   UNL     1       8.191  24.692  52.445  1.00  0.00    -0.268 OA
HETATM   18  H   UNL     1       6.676  24.510  55.203  1.00  0.00     0.162 HD
BRANCH  16  19
HETATM   19  C   UNL     1       8.006  22.836  53.881  1.00  0.00     0.034 A 
HETATM   20  C   UNL     1       8.221  22.511  55.224  1.00  0.00     0.053 A 
HETATM   21  C   UNL     1       8.424  21.180  55.572  1.00  0.00     0.066 A 
HETATM   22  C   UNL     1       8.396  20.177  54.608  1.00  0.00     0.036 A 
HETATM   23  C   UNL     1       8.165  20.500  53.271  1.00  0.00     0.004 A 
HETATM   24  C   UNL     1       7.971  21.832  52.903  1.00  0.00     0.017 A 
BRANCH  21  25
HETATM   25  O   UNL     1       8.660  20.806  56.861  1.00  0.00    -0.361 OA
HETATM   26  H   UNL     1       7.866  20.962  57.397  1.00  0.00     0.217 HD
ENDBRANCH  21  25
ENDBRANCH  16  19
ENDBRANCH  14  15
ENDBRANCH   1  14
TORSDOF 8
ENDMDL
MODEL 4
REMARK VINA RESULT:      -7.9      1.920      2.756
REMARK  8 active torsions:
REMARK  status: ('A' for Active; 'I' for Inactive)
REMARK    1  A    between atoms: C_4  and  C_5 
REMARK    2  A    between atoms: C_5  and  N_6 
REMARK    3  A    between atoms: N_6  and  C_9 
REMARK    4  A    between atoms: C_9  and  C_10 
REMARK    5  A    between atoms: C_10  and  C_11 
REMARK    6  A    between atoms: C_11  and  N_12 
REMARK       I    between atoms: N_12  and  C_13 
REMARK    7  A    between atoms: C_13  and  C_14 
REMARK    8  A    between atoms: C_16  and  O_17 
ROOT
HETATM    1  C   UNL     1       4.672  26.465  52.845  1.00  0.00     0.047 C 
ENDROOT
BRANCH   1   2
HETATM    2  C   UNL     1       5.003  27.575  53.832  1.00  0.00     0.235 C 
BRANCH   2   3
HETATM    3  N   UNL     1       4.875  27.040  55.221  1.00  0.00    -0.067 N 
HETATM    4  H   UNL     1       5.675  26.442  55.465  1.00  0.00     0.277 HD
HETATM    5  H   UNL     1       4.054  26.416  55.234  1.00  0.00     0.277 HD
BRANCH   3   6
HETATM    6  C   UNL     1       4.668  28.050  56.315  1.00  0.00     0.223 C 
HETATM    7  C   UNL     1       4.063  29.329  55.739  1.00  0.00     0.046 C 
BRANCH   6   8
HETATM    8  C   UNL     1       5.951  28.335  57.033  1.00  0.00     0.032 A 
HETATM    9  S   UNL     1       6.394  29.920  57.537  1.00  0.00    -0.076 SA
HETATM   10  C   UNL     1       7.846  29.297  58.212  1.00  0.00     0.071 A 
HETATM   11  C   UNL     1       8.809  30.202  58.899  1.00  0.00     0.078 C 
HETATM   12  N   UNL     1       8.011  28.000  58.075  1.00  0.00    -0.257 NA
HETATM   13  C   UNL     1       6.937  27.446  57.416  1.00  0.00     0.134 A 
ENDBRANCH   6   8
ENDBRANCH   3   6
ENDBRANCH   2   3
ENDBRANCH   1   2
BRANCH   1  14
HETATM   14  C   UNL     1       5.918  25.728  52.346  1.00  0.00     0.124 C 
BRANCH  14  15
HETATM   15  N   UNL     1       6.178  24.428  52.940  1.00  0.00    -0.357 N 
HETATM   16  C   UNL     1       7.000  24.254  54.039  1.00  0.00     0.251 C 
HETATM   17  O   UNL     1       7.356  25.170  54.770  1.00  0.00    -0.268 OA
HETATM   18  H   UNL     1       6.137  23.639  52.300  1.00  0.00     0.162 HD
BRANCH  16  19
HETATM   19  C   UNL     1       7.428  22.862  54.312  1.00  0.00     0.034 A 
HETATM   20  C   UNL     1       7.725  22.026  53.231  1.00  0.00     0.053 A 
HETATM   21  C   UNL     1       8.126  20.718  53.479  1.00  0.00     0.066 A 
HETATM   22  C   UNL     1       8.251  20.244  54.782  1.00  0.00     0.036 A 
HETATM   23  C   UNL     1       7.971  21.083  55.860  1.00  0.00     0.004 A 
HETATM   24  C   UNL     1       7.555  22.395  55.628  1.00  0.00     0.017 A 
BRANCH  21  25
HETATM   25  O   UNL     1       8.408  19.852  52.466  1.00  0.00    -0.361 OA
HETATM   26  H   UNL     1       7.631  19.298  52.283  1.00  0.00     0.217 HD
ENDBRANCH  21  25
ENDBRANCH  16  19
ENDBRANCH  14  15
ENDBRANCH   1  14
TORSDOF 8
ENDMDL
MODEL 5
REMARK VINA RESULT:      -7.9      2.363      3.139
REMARK  8 active torsions:
REMARK  status: ('A' for Active; 'I' for Inactive)
REMARK    1  A    between atoms: C_4  and  C_5 
REMARK    2  A    between atoms: C_5  and  N_6 
REMARK    3  A    between atoms: N_6  and  C_9 
REMARK    4  A    between atoms: C_9  and  C_10 
REMARK    5  A    between atoms: C_10  and  C_11 
REMARK    6  A    between atoms: C_11  and  N_12 
REMARK       I    between atoms: N_12  and  C_13 
REMARK    7  A    between atoms: C_13  and  C_14 
REMARK    8  A    between atoms: C_16  and  O_17 
ROOT
HETATM    1  C   UNL     1       8.267  26.909  57.016  1.00  0.00     0.047 C 
ENDROOT
BRANCH   1   2
HETATM    2  C   UNL     1       7.760  28.341  56.912  1.00  0.00     0.235 C 
BRANCH   2   3
HETATM    3  N   UNL     1       7.850  28.983  58.259  1.00  0.00    -0.067 N 
HETATM    4  H   UNL     1       8.391  28.402  58.912  1.00  0.00     0.277 HD
HETATM    5  H   UNL     1       6.896  29.016  58.647  1.00  0.00     0.277 HD
BRANCH   3   6
HETATM    6  C   UNL     1       8.382  30.388  58.299  1.00  0.00     0.223 C 
HETATM    7  C   UNL     1       9.899  30.380  58.111  1.00  0.00     0.046 C 
BRANCH   6   8
HETATM    8  C   UNL     1       7.999  31.073  59.574  1.00  0.00     0.032 A 
HETATM    9  S   UNL     1       8.918  30.911  61.021  1.00  0.00    -0.076 SA
HETATM   10  C   UNL     1       7.825  31.961  61.830  1.00  0.00     0.071 A 
HETATM   11  C   UNL     1       8.037  32.315  63.261  1.00  0.00     0.078 C 
HETATM   12  N   UNL     1       6.832  32.405  61.092  1.00  0.00    -0.257 NA
HETATM   13  C   UNL     1       6.929  31.914  59.810  1.00  0.00     0.134 A 
ENDBRANCH   6   8
ENDBRANCH   3   6
ENDBRANCH   2   3
ENDBRANCH   1   2
BRANCH   1  14
HETATM   14  C   UNL     1       7.140  25.901  57.254  1.00  0.00     0.124 C 
BRANCH  14  15
HETATM   15  N   UNL     1       7.116  24.744  56.375  1.00  0.00    -0.357 N 
HETATM   16  C   UNL     1       7.980  23.673  56.518  1.00  0.00     0.251 C 
HETATM   17  O   UNL     1       8.641  23.466  57.529  1.00  0.00    -0.268 OA
HETATM   18  H   UNL     1       6.800  24.923  55.426  1.00  0.00     0.162 HD
BRANCH  16  19
HETATM   19  C   UNL     1       8.057  22.747  55.364  1.00  0.00     0.034 A 
HETATM   20  C   UNL     1       8.517  21.444  55.579  1.00  0.00     0.053 A 
HETATM   21  C   UNL     1       8.594  20.569  54.501  1.00  0.00     0.066 A 
HETATM   22  C   UNL     1       8.203  20.969  53.227  1.00  0.00     0.036 A 
HETATM   23  C   UNL     1       7.728  22.263  53.016  1.00  0.00     0.004 A 
HETATM   24  C   UNL     1       7.656  23.158  54.085  1.00  0.00     0.017 A 
BRANCH  21  25
HETATM   25  O   UNL     1       9.054  19.295  54.646  1.00  0.00    -0.361 OA
HETATM   26  H   UNL     1       9.245  19.120  55.582  1.00  0.00     0.217 HD
ENDBRANCH  21  25
ENDBRANCH  16  19
ENDBRANCH  14  15
ENDBRANCH   1  14
TORSDOF 8
ENDMDL
MODEL 6
REMARK VINA RESULT:      -7.7      2.231      3.090
REMARK  8 active torsions:
REMARK  status: ('A' for Active; 'I' for Inactive)
REMARK    1  A    between atoms: C_4  and  C_5 
REMARK    2  A    between atoms: C_5  and  N_6 
REMARK    3  A    between atoms: N_6  and  C_9 
REMARK    4  A    between atoms: C_9  and  C_10 
REMARK    5  A    between atoms: C_10  and  C_11 
REMARK    6  A    between atoms: C_11  and  N_12 
REMARK       I    between atoms: N_12  and  C_13 
REMARK    7  A    between atoms: C_13  and  C_14 
REMARK    8  A    between atoms: C_16  and  O_17 
ROOT
HETATM    1  C   UNL     1       5.435  26.669  53.757  1.00  0.00     0.047 C 
ENDROOT
BRANCH   1   2
HETATM    2  C   UNL     1       4.890  27.873  54.513  1.00  0.00     0.235 C 
BRANCH   2   3
HETATM    3  N   UNL     1       4.493  27.440  55.887  1.00  0.00    -0.067 N 
HETATM    4  H   UNL     1       4.736  26.455  56.051  1.00  0.00     0.277 HD
HETATM    5  H   UNL     1       3.463  27.480  55.934  1.00  0.00     0.277 HD
BRANCH   3   6
HETATM    6  C   UNL     1       5.011  28.268  57.028  1.00  0.00     0.223 C 
HETATM    7  C   UNL     1       4.510  29.706  56.903  1.00  0.00     0.046 C 
BRANCH   6   8
HETATM    8  C   UNL     1       6.506  28.220  57.092  1.00  0.00     0.032 A 
HETATM    9  S   UNL     1       7.491  29.579  56.708  1.00  0.00    -0.076 SA
HETATM   10  C   UNL     1       8.897  28.657  57.059  1.00  0.00     0.071 A 
HETATM   11  C   UNL     1      10.250  29.269  56.942  1.00  0.00     0.078 C 
HETATM   12  N   UNL     1       8.670  27.416  57.431  1.00  0.00    -0.257 NA
HETATM   13  C   UNL     1       7.318  27.164  57.461  1.00  0.00     0.134 A 
ENDBRANCH   6   8
ENDBRANCH   3   6
ENDBRANCH   2   3
ENDBRANCH   1   2
BRANCH   1  14
HETATM   14  C   UNL     1       6.957  26.547  53.860  1.00  0.00     0.124 C 
BRANCH  14  15
HETATM   15  N   UNL     1       7.476  25.235  54.203  1.00  0.00    -0.357 N 
HETATM   16  C   UNL     1       7.724  24.254  53.260  1.00  0.00     0.251 C 
HETATM   17  O   UNL     1       7.797  24.474  52.057  1.00  0.00    -0.268 OA
HETATM   18  H   UNL     1       7.226  24.893  55.128  1.00  0.00     0.162 HD
BRANCH  16  19
HETATM   19  C   UNL     1       7.924  22.884  53.788  1.00  0.00     0.034 A 
HETATM   20  C   UNL     1       8.035  22.707  55.171  1.00  0.00     0.053 A 
HETATM   21  C   UNL     1       8.225  21.425  55.674  1.00  0.00     0.066 A 
HETATM   22  C   UNL     1       8.284  20.325  54.824  1.00  0.00     0.036 A 
HETATM   23  C   UNL     1       8.156  20.500  53.446  1.00  0.00     0.004 A 
HETATM   24  C   UNL     1       7.978  21.782  52.923  1.00  0.00     0.017 A 
BRANCH  21  25
HETATM   25  O   UNL     1       8.361  21.195  57.010  1.00  0.00    -0.361 OA
HETATM   26  H   UNL     1       7.694  20.552  57.301  1.00  0.00     0.217 HD
ENDBRANCH  21  25
ENDBRANCH  16  19
ENDBRANCH  14  15
ENDBRANCH   1  14
TORSDOF 8
ENDMDL
MODEL 7
REMARK VINA RESULT:      -7.7      5.192      8.000
REMARK  8 active torsions:
REMARK  status: ('A' for Active; 'I' for Inactive)
REMARK    1  A    between atoms: C_4  and  C_5 
REMARK    2  A    between atoms: C_5  and  N_6 
REMARK    3  A    between atoms: N_6  and  C_9 
REMARK    4  A    between atoms: C_9  and  C_10 
REMARK    5  A    between atoms: C_10  and  C_11 
REMARK    6  A    between atoms: C_11  and  N_12 
REMARK       I    between atoms: N_12  and  C_13 
REMARK    7  A    between atoms: C_13  and  C_14 
REMARK    8  A    between atoms: C_16  and  O_17 
ROOT
HETATM    1  C   UNL     1       4.841  25.708  53.340  1.00  0.00     0.047 C 
ENDROOT
BRANCH   1   2
HETATM    2  C   UNL     1       5.393  26.510  52.169  1.00  0.00     0.235 C 
BRANCH   2   3
HETATM    3  N   UNL     1       4.532  26.269  50.972  1.00  0.00    -0.067 N 
HETATM    4  H   UNL     1       3.539  26.423  51.191  1.00  0.00     0.277 HD
HETATM    5  H   UNL     1       4.608  25.268  50.736  1.00  0.00     0.277 HD
BRANCH   3   6
HETATM    6  C   UNL     1       4.882  27.035  49.728  1.00  0.00     0.223 C 
HETATM    7  C   UNL     1       5.070  28.515  50.058  1.00  0.00     0.046 C 
BRANCH   6   8
HETATM    8  C   UNL     1       3.841  26.846  48.668  1.00  0.00     0.032 A 
HETATM    9  S   UNL     1       2.412  27.803  48.597  1.00  0.00    -0.076 SA
HETATM   10  C   UNL     1       1.915  26.952  47.189  1.00  0.00     0.071 A 
HETATM   11  C   UNL     1       0.638  27.301  46.507  1.00  0.00     0.078 C 
HETATM   12  N   UNL     1       2.740  26.010  46.789  1.00  0.00    -0.257 NA
HETATM   13  C   UNL     1       3.838  25.950  47.616  1.00  0.00     0.134 A 
ENDBRANCH   6   8
ENDBRANCH   3   6
ENDBRANCH   2   3
ENDBRANCH   1   2
BRANCH   1  14
HETATM   14  C   UNL     1       5.813  25.643  54.520  1.00  0.00     0.124 C 
BRANCH  14  15
HETATM   15  N   UNL     1       6.536  24.395  54.691  1.00  0.00    -0.357 N 
HETATM   16  C   UNL     1       7.617  24.039  53.904  1.00  0.00     0.251 C 
HETATM   17  O   UNL     1       8.230  24.830  53.197  1.00  0.00    -0.268 OA
HETATM   18  H   UNL     1       5.989  23.618  55.053  1.00  0.00     0.162 HD
BRANCH  16  19
HETATM   19  C   UNL     1       8.027  22.616  53.973  1.00  0.00     0.034 A 
HETATM   20  C   UNL     1       8.581  22.134  55.164  1.00  0.00     0.053 A 
HETATM   21  C   UNL     1       8.969  20.801  55.236  1.00  0.00     0.066 A 
HETATM   22  C   UNL     1       8.794  19.946  54.152  1.00  0.00     0.036 A 
HETATM   23  C   UNL     1       8.226  20.423  52.971  1.00  0.00     0.004 A 
HETATM   24  C   UNL     1       7.843  21.762  52.877  1.00  0.00     0.017 A 
BRANCH  21  25
HETATM   25  O   UNL     1       9.534  20.281  56.361  1.00  0.00    -0.361 OA
HETATM   26  H   UNL     1       9.792  19.359  56.202  1.00  0.00     0.217 HD
ENDBRANCH  21  25
ENDBRANCH  16  19
ENDBRANCH  14  15
ENDBRANCH   1  14
TORSDOF 8
ENDMDL
MODEL 8
REMARK VINA RESULT:      -7.5      2.102      2.557
REMARK  8 active torsions:
REMARK  status: ('A' for Active; 'I' for Inactive)
REMARK    1  A    between atoms: C_4  and  C_5 
REMARK    2  A    between atoms: C_5  and  N_6 
REMARK    3  A    between atoms: N_6  and  C_9 
REMARK    4  A    between atoms: C_9  and  C_10 
REMARK    5  A    between atoms: C_10  and  C_11 
REMARK    6  A    between atoms: C_11  and  N_12 
REMARK       I    between atoms: N_12  and  C_13 
REMARK    7  A    between atoms: C_13  and  C_14 
REMARK    8  A    between atoms: C_16  and  O_17 
ROOT
HETATM    1  C   UNL     1       5.291  26.880  55.446  1.00  0.00     0.047 C 
ENDROOT
BRANCH   1   2
HETATM    2  C   UNL     1       4.926  28.125  56.241  1.00  0.00     0.235 C 
BRANCH   2   3
HETATM    3  N   UNL     1       6.059  28.463  57.156  1.00  0.00    -0.067 N 
HETATM    4  H   UNL     1       6.600  27.624  57.403  1.00  0.00     0.277 HD
HETATM    5  H   UNL     1       5.649  28.795  58.041  1.00  0.00     0.277 HD
BRANCH   3   6
HETATM    6  C   UNL     1       7.005  29.533  56.688  1.00  0.00     0.223 C 
HETATM    7  C   UNL     1       8.250  28.899  56.069  1.00  0.00     0.046 C 
BRANCH   6   8
HETATM    8  C   UNL     1       7.369  30.457  57.808  1.00  0.00     0.032 A 
HETATM    9  S   UNL     1       8.875  30.357  58.635  1.00  0.00    -0.076 SA
HETATM   10  C   UNL     1       8.421  31.691  59.619  1.00  0.00     0.071 A 
HETATM   11  C   UNL     1       9.351  32.213  60.658  1.00  0.00     0.078 C 
HETATM   12  N   UNL     1       7.228  32.185  59.370  1.00  0.00    -0.257 NA
HETATM   13  C   UNL     1       6.630  31.497  58.339  1.00  0.00     0.134 A 
ENDBRANCH   6   8
ENDBRANCH   3   6
ENDBRANCH   2   3
ENDBRANCH   1   2
BRANCH   1  14
HETATM   14  C   UNL     1       5.870  25.768  56.325  1.00  0.00     0.124 C 
BRANCH  14  15
HETATM   15  N   UNL     1       6.199  24.522  55.653  1.00  0.00    -0.357 N 
HETATM   16  C   UNL     1       7.278  23.736  56.014  1.00  0.00     0.251 C 
HETATM   17  O   UNL     1       7.880  23.856  57.074  1.00  0.00    -0.268 OA
HETATM   18  H   UNL     1       5.932  24.471  54.673  1.00  0.00     0.162 HD
BRANCH  16  19
HETATM   19  C   UNL     1       7.674  22.694  55.036  1.00  0.00     0.034 A 
HETATM   20  C   UNL     1       8.128  21.462  55.516  1.00  0.00     0.053 A 
HETATM   21  C   UNL     1       8.503  20.480  54.606  1.00  0.00     0.066 A 
HETATM   22  C   UNL     1       8.412  20.704  53.235  1.00  0.00     0.036 A 
HETATM   23  C   UNL     1       7.943  21.927  52.758  1.00  0.00     0.004 A 
HETATM   24  C   UNL     1       7.574  22.928  53.658  1.00  0.00     0.017 A 
BRANCH  21  25
HETATM   25  O   UNL     1       8.973  19.268  55.015  1.00  0.00    -0.361 OA
HETATM   26  H   UNL     1       8.966  18.646  54.269  1.00  0.00     0.217 HD
ENDBRANCH  21  25
ENDBRANCH  16  19
ENDBRANCH  14  15
ENDBRANCH   1  14
TORSDOF 8
ENDMDL
MODEL 9
REMARK VINA RESULT:      -7.0      4.846      7.453
REMARK  8 active torsions:
REMARK  status: ('A' for Active; 'I' for Inactive)
REMARK    1  A    between atoms: C_4  and  C_5 
REMARK    2  A    between atoms: C_5  and  N_6 
REMARK    3  A    between atoms: N_6  and  C_9 
REMARK    4  A    between atoms: C_9  and  C_10 
REMARK    5  A    between atoms: C_10  and  C_11 
REMARK    6  A    between atoms: C_11  and  N_12 
REMARK       I    between atoms: N_12  and  C_13 
REMARK    7  A    between atoms: C_13  and  C_14 
REMARK    8  A    between atoms: C_16  and  O_17 
ROOT
HETATM    1  C   UNL     1       5.789  26.752  53.521  1.00  0.00     0.047 C 
ENDROOT
BRANCH   1   2
HETATM    2  C   UNL     1       5.913  27.882  52.508  1.00  0.00     0.235 C 
BRANCH   2   3
HETATM    3  N   UNL     1       5.595  27.348  51.149  1.00  0.00    -0.067 N 
HETATM    4  H   UNL     1       4.952  26.547  51.205  1.00  0.00     0.277 HD
HETATM    5  H   UNL     1       6.470  26.969  50.756  1.00  0.00     0.277 HD
BRANCH   3   6
HETATM    6  C   UNL     1       5.061  28.333  50.148  1.00  0.00     0.223 C 
HETATM    7  C   UNL     1       4.581  29.596  50.860  1.00  0.00     0.046 C 
BRANCH   6   8
HETATM    8  C   UNL     1       3.966  27.727  49.326  1.00  0.00     0.032 A 
HETATM    9  S   UNL     1       2.567  28.612  48.854  1.00  0.00    -0.076 SA
HETATM   10  C   UNL     1       1.977  27.231  48.020  1.00  0.00     0.071 A 
HETATM   11  C   UNL     1       0.682  27.288  47.287  1.00  0.00     0.078 C 
HETATM   12  N   UNL     1       2.750  26.170  48.084  1.00  0.00    -0.257 NA
HETATM   13  C   UNL     1       3.884  26.446  48.815  1.00  0.00     0.134 A 
ENDBRANCH   6   8
ENDBRANCH   3   6
ENDBRANCH   2   3
ENDBRANCH   1   2
BRANCH   1  14
HETATM   14  C   UNL     1       7.148  26.230  53.992  1.00  0.00     0.124 C 
BRANCH  14  15
HETATM   15  N   UNL     1       7.322  24.788  53.984  1.00  0.00    -0.357 N 
HETATM   16  C   UNL     1       7.091  23.997  55.095  1.00  0.00     0.251 C 
HETATM   17  O   UNL     1       6.471  24.377  56.081  1.00  0.00    -0.268 OA
HETATM   18  H   UNL     1       8.025  24.436  53.339  1.00  0.00     0.162 HD
BRANCH  16  19
HETATM   19  C   UNL     1       7.628  22.617  55.029  1.00  0.00     0.034 A 
HETATM   20  C   UNL     1       7.685  21.978  53.786  1.00  0.00     0.053 A 
HETATM   21  C   UNL     1       8.186  20.683  53.716  1.00  0.00     0.066 A 
HETATM   22  C   UNL     1       8.645  20.031  54.857  1.00  0.00     0.036 A 
HETATM   23  C   UNL     1       8.604  20.675  56.093  1.00  0.00     0.004 A 
HETATM   24  C   UNL     1       8.092  21.971  56.183  1.00  0.00     0.017 A 
BRANCH  21  25
HETATM   25  O   UNL     1       8.246  20.002  52.537  1.00  0.00    -0.361 OA
HETATM   26  H   UNL     1       8.333  20.630  51.801  1.00  0.00     0.217 HD
ENDBRANCH  21  25
ENDBRANCH  16  19
ENDBRANCH  14  15
ENDBRANCH   1  14
TORSDOF 8
ENDMDL
MODEL 10
REMARK VINA RESULT:      -7.0      5.628      8.026
REMARK  8 active torsions:
REMARK  status: ('A' for Active; 'I' for Inactive)
REMARK    1  A    between atoms: C_4  and  C_5 
REMARK    2  A    between atoms: C_5  and  N_6 
REMARK    3  A    between atoms: N_6  and  C_9 
REMARK    4  A    between atoms: C_9  and  C_10 
REMARK    5  A    between atoms: C_10  and  C_11 
REMARK    6  A    between atoms: C_11  and  N_12 
REMARK       I    between atoms: N_12  and  C_13 
REMARK    7  A    between atoms: C_13  and  C_14 
REMARK    8  A    between atoms: C_16  and  O_17 
ROOT
HETATM    1  C   UNL     1       5.993  26.293  51.402  1.00  0.00     0.047 C 
ENDROOT
BRANCH   1   2
HETATM    2  C   UNL     1       5.061  27.172  50.580  1.00  0.00     0.235 C 
BRANCH   2   3
HETATM    3  N   UNL     1       4.875  26.551  49.234  1.00  0.00    -0.067 N 
HETATM    4  H   UNL     1       5.381  25.659  49.163  1.00  0.00     0.277 HD
HETATM    5  H   UNL     1       5.322  27.175  48.545  1.00  0.00     0.277 HD
BRANCH   3   6
HETATM    6  C   UNL     1       3.458  26.347  48.777  1.00  0.00     0.223 C 
HETATM    7  C   UNL     1       3.420  25.357  47.613  1.00  0.00     0.046 C 
BRANCH   6   8
HETATM    8  C   UNL     1       2.821  27.649  48.401  1.00  0.00     0.032 A 
HETATM    9  S   UNL     1       3.645  28.848  47.482  1.00  0.00    -0.076 SA
HETATM   10  C   UNL     1       2.248  29.847  47.537  1.00  0.00     0.071 A 
HETATM   11  C   UNL     1       2.242  31.175  46.862  1.00  0.00     0.078 C 
HETATM   12  N   UNL     1       1.230  29.342  48.197  1.00  0.00    -0.257 NA
HETATM   13  C   UNL     1       1.543  28.093  48.682  1.00  0.00     0.134 A 
ENDBRANCH   6   8
ENDBRANCH   3   6
ENDBRANCH   2   3
ENDBRANCH   1   2
BRANCH   1  14
HETATM   14  C   UNL     1       5.366  25.841  52.723  1.00  0.00     0.124 C 
BRANCH  14  15
HETATM   15  N   UNL     1       5.798  24.551  53.232  1.00  0.00    -0.357 N 
HETATM   16  C   UNL     1       6.966  24.380  53.953  1.00  0.00     0.251 C 
HETATM   17  O   UNL     1       7.590  25.304  54.460  1.00  0.00    -0.268 OA
HETATM   18  H   UNL     1       5.503  23.745  52.687  1.00  0.00     0.162 HD
BRANCH  16  19
HETATM   19  C   UNL     1       7.432  22.981  54.107  1.00  0.00     0.034 A 
HETATM   20  C   UNL     1       7.552  22.452  55.395  1.00  0.00     0.053 A 
HETATM   21  C   UNL     1       7.991  21.141  55.548  1.00  0.00     0.066 A 
HETATM   22  C   UNL     1       8.289  20.354  54.440  1.00  0.00     0.036 A 
HETATM   23  C   UNL     1       8.152  20.877  53.154  1.00  0.00     0.004 A 
HETATM   24  C   UNL     1       7.726  22.195  52.984  1.00  0.00     0.017 A 
BRANCH  21  25
HETATM   25  O   UNL     1       8.148  20.579  56.779  1.00  0.00    -0.361 OA
HETATM   26  H   UNL     1       8.974  20.895  57.180  1.00  0.00     0.217 HD
ENDBRANCH  21  25
ENDBRANCH  16  19
ENDBRANCH  14  15
ENDBRANCH   1  14
TORSDOF 8
ENDMDL
