MODEL 1
REMARK VINA RESULT:     -10.0      0.000      0.000
REMARK  5 active torsions:
REMARK  status: ('A' for Active; 'I' for Inactive)
REMARK    1  A    between atoms: O_2  and  C_3 
REMARK    2  A    between atoms: C_16  and  C_17 
REMARK    3  A    between atoms: C_19  and  O_20 
REMARK    4  A    between atoms: C_22  and  O_23 
REMARK    5  A    between atoms: O_23  and  C_24 
ROOT
HETATM    1  C   UNL     1       8.478  21.529  54.837  1.00  0.00     0.069 A 
HETATM    2  C   UNL     1       7.733  22.475  54.120  1.00  0.00     0.051 A 
HETATM    3  C   UNL     1       7.190  23.592  54.783  1.00  0.00     0.002 A 
HETATM    4  C   UNL     1       7.405  23.725  56.156  1.00  0.00     0.043 A 
HETATM    5  N   UNL     1       6.781  24.882  56.568  1.00  0.00    -0.356 N 
HETATM    6  H   UNL     1       6.792  25.218  57.525  1.00  0.00     0.166 HD
HETATM    7  C   UNL     1       6.213  25.507  55.488  1.00  0.00     0.052 A 
HETATM    8  C   UNL     1       6.423  24.714  54.375  1.00  0.00    -0.019 A 
HETATM    9  C   UNL     1       5.916  25.090  53.024  1.00  0.00     0.069 C 
HETATM   10  C   UNL     1       4.839  26.185  53.142  1.00  0.00     0.238 C 
HETATM   11  N   UNL     1       5.279  27.270  54.094  1.00  0.00    -0.061 N 
HETATM   12  H   UNL     1       6.174  27.655  53.773  1.00  0.00     0.278 HD
HETATM   13  H   UNL     1       4.614  28.050  54.094  1.00  0.00     0.278 HD
HETATM   14  C   UNL     1       5.474  26.803  55.515  1.00  0.00     0.269 C 
HETATM   15  C   UNL     1       8.140  22.790  56.893  1.00  0.00     0.033 A 
HETATM   16  C   UNL     1       8.675  21.690  56.207  1.00  0.00     0.039 A 
ENDROOT
BRANCH  14  17
HETATM   17  C   UNL     1       6.151  27.891  56.324  1.00  0.00    -0.019 A 
HETATM   18  C   UNL     1       7.554  27.999  56.377  1.00  0.00     0.049 A 
HETATM   19  C   UNL     1       8.169  29.016  57.115  1.00  0.00     0.102 A 
HETATM   20  C   UNL     1       7.383  29.965  57.792  1.00  0.00     0.102 A 
HETATM   21  C   UNL     1       5.992  29.878  57.720  1.00  0.00     0.040 A 
HETATM   22  C   UNL     1       5.380  28.849  56.997  1.00  0.00     0.012 A 
BRANCH  19  23
HETATM   23  O   UNL     1       9.529  29.176  57.194  1.00  0.00    -0.353 OA
HETATM   24  C   UNL     1      10.190  29.700  56.049  1.00  0.00     0.210 C 
ENDBRANCH  19  23
BRANCH  20  25
HETATM   25  O   UNL     1       8.069  30.933  58.475  1.00  0.00    -0.343 OA
BRANCH  25  26
HETATM   26  C   UNL     1       8.112  30.891  59.897  1.00  0.00     0.129 C 
HETATM   27  C   UNL     1       9.459  31.337  60.465  1.00  0.00     0.032 C 
HETATM   28  C   UNL     1       9.102  31.841  61.850  1.00  0.00     0.002 C 
HETATM   29  C   UNL     1       7.817  32.620  61.618  1.00  0.00     0.002 C 
HETATM   30  C   UNL     1       7.117  31.924  60.452  1.00  0.00     0.032 C 
ENDBRANCH  25  26
ENDBRANCH  20  25
ENDBRANCH  14  17
BRANCH   1  31
HETATM   31  O   UNL     1       8.956  20.500  54.073  1.00  0.00    -0.356 OA
HETATM   32  C   UNL     1       8.383  20.331  52.781  1.00  0.00     0.210 C 
ENDBRANCH   1  31
TORSDOF 5
ENDMDL
MODEL 2
REMARK VINA RESULT:      -9.4      1.973      8.494
REMARK  5 active torsions:
REMARK  status: ('A' for Active; 'I' for Inactive)
REMARK    1  A    between atoms: O_2  and  C_3 
REMARK    2  A    between atoms: C_16  and  C_17 
REMARK    3  A    between atoms: C_19  and  O_20 
REMARK    4  A    between atoms: C_22  and  O_23 
REMARK    5  A    between atoms: O_23  and  C_24 
ROOT
HETATM    1  C   UNL     1       9.442  31.518  59.058  1.00  0.00     0.069 A 
HETATM    2  C   UNL     1       8.062  31.323  58.904  1.00  0.00     0.051 A 
HETATM    3  C   UNL     1       7.577  30.552  57.832  1.00  0.00     0.002 A 
HETATM    4  C   UNL     1       8.493  30.001  56.935  1.00  0.00     0.043 A 
HETATM    5  N   UNL     1       7.782  29.300  55.985  1.00  0.00    -0.356 N 
HETATM    6  H   UNL     1       8.212  28.793  55.219  1.00  0.00     0.166 HD
HETATM    7  C   UNL     1       6.443  29.357  56.280  1.00  0.00     0.052 A 
HETATM    8  C   UNL     1       6.286  30.152  57.400  1.00  0.00    -0.019 A 
HETATM    9  C   UNL     1       4.945  30.443  57.984  1.00  0.00     0.069 C 
HETATM   10  C   UNL     1       3.834  30.105  56.972  1.00  0.00     0.238 C 
HETATM   11  N   UNL     1       4.084  28.764  56.330  1.00  0.00    -0.061 N 
HETATM   12  H   UNL     1       4.156  28.048  57.061  1.00  0.00     0.278 HD
HETATM   13  H   UNL     1       3.295  28.489  55.735  1.00  0.00     0.278 HD
HETATM   14  C   UNL     1       5.349  28.697  55.510  1.00  0.00     0.269 C 
HETATM   15  C   UNL     1       9.873  30.187  57.065  1.00  0.00     0.033 A 
HETATM   16  C   UNL     1      10.331  30.955  58.145  1.00  0.00     0.039 A 
ENDROOT
BRANCH  14  17
HETATM   17  C   UNL     1       5.635  27.260  55.124  1.00  0.00    -0.019 A 
HETATM   18  C   UNL     1       5.574  26.836  53.783  1.00  0.00     0.049 A 
HETATM   19  C   UNL     1       5.856  25.510  53.435  1.00  0.00     0.102 A 
HETATM   20  C   UNL     1       6.233  24.589  54.428  1.00  0.00     0.102 A 
HETATM   21  C   UNL     1       6.322  25.012  55.755  1.00  0.00     0.040 A 
HETATM   22  C   UNL     1       6.022  26.334  56.102  1.00  0.00     0.012 A 
BRANCH  19  23
HETATM   23  O   UNL     1       5.822  25.044  52.146  1.00  0.00    -0.353 OA
HETATM   24  C   UNL     1       5.390  25.949  51.138  1.00  0.00     0.210 C 
ENDBRANCH  19  23
BRANCH  20  25
HETATM   25  O   UNL     1       6.505  23.320  53.995  1.00  0.00    -0.343 OA
BRANCH  25  26
HETATM   26  C   UNL     1       7.742  22.709  54.346  1.00  0.00     0.129 C 
HETATM   27  C   UNL     1       7.611  21.730  55.513  1.00  0.00     0.032 C 
HETATM   28  C   UNL     1       8.763  20.769  55.291  1.00  0.00     0.002 C 
HETATM   29  C   UNL     1       8.735  20.531  53.789  1.00  0.00     0.002 C 
HETATM   30  C   UNL     1       8.208  21.828  53.176  1.00  0.00     0.032 C 
ENDBRANCH  25  26
ENDBRANCH  20  25
ENDBRANCH  14  17
BRANCH   1  31
HETATM   31  O   UNL     1       9.781  32.278  60.144  1.00  0.00    -0.356 OA
HETATM   32  C   UNL     1       9.485  31.740  61.429  1.00  0.00     0.210 C 
ENDBRANCH   1  31
TORSDOF 5
ENDMDL
MODEL 3
REMARK VINA RESULT:      -9.3      2.370      8.928
REMARK  5 active torsions:
REMARK  status: ('A' for Active; 'I' for Inactive)
REMARK    1  A    between atoms: O_2  and  C_3 
REMARK    2  A    between atoms: C_16  and  C_17 
REMARK    3  A    between atoms: C_19  and  O_20 
REMARK    4  A    between atoms: C_22  and  O_23 
REMARK    5  A    between atoms: O_23  and  C_24 
ROOT
HETATM    1  C   UNL     1       7.694  32.437  61.911  1.00  0.00     0.069 A 
HETATM    2  C   UNL     1       6.906  32.436  60.751  1.00  0.00     0.051 A 
HETATM    3  C   UNL     1       7.186  31.530  59.712  1.00  0.00     0.002 A 
HETATM    4  C   UNL     1       8.259  30.651  59.861  1.00  0.00     0.043 A 
HETATM    5  N   UNL     1       8.329  29.877  58.723  1.00  0.00    -0.356 N 
HETATM    6  H   UNL     1       9.019  29.148  58.579  1.00  0.00     0.166 HD
HETATM    7  C   UNL     1       7.304  30.213  57.875  1.00  0.00     0.052 A 
HETATM    8  C   UNL     1       6.601  31.256  58.448  1.00  0.00    -0.019 A 
HETATM    9  C   UNL     1       5.425  31.883  57.778  1.00  0.00     0.069 C 
HETATM   10  C   UNL     1       5.396  31.508  56.285  1.00  0.00     0.238 C 
HETATM   11  N   UNL     1       5.654  30.033  56.097  1.00  0.00    -0.061 N 
HETATM   12  H   UNL     1       4.959  29.500  56.632  1.00  0.00     0.278 HD
HETATM   13  H   UNL     1       5.531  29.762  55.116  1.00  0.00     0.278 HD
HETATM   14  C   UNL     1       7.018  29.581  56.554  1.00  0.00     0.269 C 
HETATM   15  C   UNL     1       9.063  30.638  61.005  1.00  0.00     0.033 A 
HETATM   16  C   UNL     1       8.759  31.546  62.029  1.00  0.00     0.039 A 
ENDROOT
BRANCH  14  17
HETATM   17  C   UNL     1       7.082  28.068  56.560  1.00  0.00    -0.019 A 
HETATM   18  C   UNL     1       6.152  27.292  55.841  1.00  0.00     0.049 A 
HETATM   19  C   UNL     1       6.229  25.895  55.840  1.00  0.00     0.102 A 
HETATM   20  C   UNL     1       7.263  25.249  56.540  1.00  0.00     0.102 A 
HETATM   21  C   UNL     1       8.203  26.014  57.232  1.00  0.00     0.040 A 
HETATM   22  C   UNL     1       8.113  27.410  57.246  1.00  0.00     0.012 A 
BRANCH  19  23
HETATM   23  O   UNL     1       5.359  25.091  55.150  1.00  0.00    -0.353 OA
HETATM   24  C   UNL     1       5.255  25.298  53.747  1.00  0.00     0.210 C 
ENDBRANCH  19  23
BRANCH  20  25
HETATM   25  O   UNL     1       7.270  23.883  56.472  1.00  0.00    -0.343 OA
BRANCH  25  26
HETATM   26  C   UNL     1       8.419  23.212  55.964  1.00  0.00     0.129 C 
HETATM   27  C   UNL     1       8.459  21.732  56.345  1.00  0.00     0.032 C 
HETATM   28  C   UNL     1       9.293  21.112  55.240  1.00  0.00     0.002 C 
HETATM   29  C   UNL     1       8.778  21.799  53.986  1.00  0.00     0.002 C 
HETATM   30  C   UNL     1       8.344  23.196  54.429  1.00  0.00     0.032 C 
ENDBRANCH  25  26
ENDBRANCH  20  25
ENDBRANCH  14  17
BRANCH   1  31
HETATM   31  O   UNL     1       7.309  33.358  62.847  1.00  0.00    -0.356 OA
HETATM   32  C   UNL     1       7.708  33.120  64.192  1.00  0.00     0.210 C 
ENDBRANCH   1  31
TORSDOF 5
ENDMDL
MODEL 4
REMARK VINA RESULT:      -9.0      4.189      7.677
REMARK  5 active torsions:
REMARK  status: ('A' for Active; 'I' for Inactive)
REMARK    1  A    between atoms: O_2  and  C_3 
REMARK    2  A    between atoms: C_16  and  C_17 
REMARK    3  A    between atoms: C_19  and  O_20 
REMARK    4  A    between atoms: C_22  and  O_23 
REMARK    5  A    between atoms: O_23  and  C_24 
ROOT
HETATM    1  C   UNL     1       7.904  22.090  54.621  1.00  0.00     0.069 A 
HETATM    2  C   UNL     1       7.181  23.008  55.395  1.00  0.00     0.051 A 
HETATM    3  C   UNL     1       6.904  24.291  54.888  1.00  0.00     0.002 A 
HETATM    4  C   UNL     1       7.368  24.622  53.615  1.00  0.00     0.043 A 
HETATM    5  N   UNL     1       6.976  25.916  53.348  1.00  0.00    -0.356 N 
HETATM    6  H   UNL     1       7.179  26.399  52.480  1.00  0.00     0.166 HD
HETATM    7  C   UNL     1       6.239  26.398  54.401  1.00  0.00     0.052 A 
HETATM    8  C   UNL     1       6.207  25.425  55.381  1.00  0.00    -0.019 A 
HETATM    9  C   UNL     1       5.501  25.629  56.679  1.00  0.00     0.069 C 
HETATM   10  C   UNL     1       5.216  27.125  56.905  1.00  0.00     0.238 C 
HETATM   11  N   UNL     1       4.661  27.761  55.654  1.00  0.00    -0.061 N 
HETATM   12  H   UNL     1       3.814  27.256  55.369  1.00  0.00     0.278 HD
HETATM   13  H   UNL     1       4.372  28.729  55.831  1.00  0.00     0.278 HD
HETATM   14  C   UNL     1       5.609  27.748  54.481  1.00  0.00     0.269 C 
HETATM   15  C   UNL     1       8.096  23.726  52.826  1.00  0.00     0.033 A 
HETATM   16  C   UNL     1       8.354  22.452  53.352  1.00  0.00     0.039 A 
ENDROOT
BRANCH  14  17
HETATM   17  C   UNL     1       4.876  28.171  53.225  1.00  0.00    -0.019 A 
HETATM   18  C   UNL     1       5.574  28.525  52.054  1.00  0.00     0.049 A 
HETATM   19  C   UNL     1       4.887  28.899  50.894  1.00  0.00     0.102 A 
HETATM   20  C   UNL     1       3.481  28.897  50.879  1.00  0.00     0.102 A 
HETATM   21  C   UNL     1       2.786  28.521  52.028  1.00  0.00     0.040 A 
HETATM   22  C   UNL     1       3.475  28.165  53.192  1.00  0.00     0.012 A 
BRANCH  19  23
HETATM   23  O   UNL     1       5.513  29.244  49.723  1.00  0.00    -0.353 OA
HETATM   24  C   UNL     1       5.972  30.585  49.600  1.00  0.00     0.210 C 
ENDBRANCH  19  23
BRANCH  20  25
HETATM   25  O   UNL     1       2.895  29.262  49.697  1.00  0.00    -0.343 OA
BRANCH  25  26
HETATM   26  C   UNL     1       1.989  28.368  49.059  1.00  0.00     0.129 C 
HETATM   27  C   UNL     1       1.303  28.987  47.841  1.00  0.00     0.032 C 
HETATM   28  C   UNL     1       0.958  27.782  46.987  1.00  0.00     0.002 C 
HETATM   29  C   UNL     1       2.203  26.914  47.089  1.00  0.00     0.002 C 
HETATM   30  C   UNL     1       2.786  27.191  48.474  1.00  0.00     0.032 C 
ENDBRANCH  25  26
ENDBRANCH  20  25
ENDBRANCH  14  17
BRANCH   1  31
HETATM   31  O   UNL     1       8.096  20.878  55.226  1.00  0.00    -0.356 OA
HETATM   32  C   UNL     1       8.313  20.883  56.633  1.00  0.00     0.210 C 
ENDBRANCH   1  31
TORSDOF 5
ENDMDL
MODEL 5
REMARK VINA RESULT:      -8.9      3.257      9.652
REMARK  5 active torsions:
REMARK  status: ('A' for Active; 'I' for Inactive)
REMARK    1  A    between atoms: O_2  and  C_3 
REMARK    2  A    between atoms: C_16  and  C_17 
REMARK    3  A    between atoms: C_19  and  O_20 
REMARK    4  A    between atoms: C_22  and  O_23 
REMARK    5  A    between atoms: O_23  and  C_24 
ROOT
HETATM    1  C   UNL     1       6.326  33.515  64.506  1.00  0.00     0.069 A 
HETATM    2  C   UNL     1       5.445  33.510  63.416  1.00  0.00     0.051 A 
HETATM    3  C   UNL     1       5.896  33.091  62.150  1.00  0.00     0.002 A 
HETATM    4  C   UNL     1       7.226  32.694  62.011  1.00  0.00     0.043 A 
HETATM    5  N   UNL     1       7.422  32.335  60.695  1.00  0.00    -0.356 N 
HETATM    6  H   UNL     1       8.306  31.998  60.329  1.00  0.00     0.166 HD
HETATM    7  C   UNL     1       6.242  32.453  60.007  1.00  0.00     0.052 A 
HETATM    8  C   UNL     1       5.288  32.949  60.876  1.00  0.00    -0.019 A 
HETATM    9  C   UNL     1       3.886  33.219  60.445  1.00  0.00     0.069 C 
HETATM   10  C   UNL     1       3.797  33.266  58.908  1.00  0.00     0.238 C 
HETATM   11  N   UNL     1       4.550  32.114  58.292  1.00  0.00    -0.061 N 
HETATM   12  H   UNL     1       4.178  31.233  58.663  1.00  0.00     0.278 HD
HETATM   13  H   UNL     1       4.405  32.082  57.277  1.00  0.00     0.278 HD
HETATM   14  C   UNL     1       6.033  32.128  58.566  1.00  0.00     0.269 C 
HETATM   15  C   UNL     1       8.125  32.697  63.083  1.00  0.00     0.033 A 
HETATM   16  C   UNL     1       7.649  33.114  64.335  1.00  0.00     0.039 A 
ENDROOT
BRANCH  14  17
HETATM   17  C   UNL     1       6.648  30.815  58.127  1.00  0.00    -0.019 A 
HETATM   18  C   UNL     1       8.044  30.649  58.049  1.00  0.00     0.049 A 
HETATM   19  C   UNL     1       8.603  29.428  57.657  1.00  0.00     0.102 A 
HETATM   20  C   UNL     1       7.767  28.336  57.363  1.00  0.00     0.102 A 
HETATM   21  C   UNL     1       6.383  28.487  57.466  1.00  0.00     0.040 A 
HETATM   22  C   UNL     1       5.827  29.715  57.839  1.00  0.00     0.012 A 
BRANCH  19  23
HETATM   23  O   UNL     1       9.954  29.207  57.574  1.00  0.00    -0.353 OA
HETATM   24  C   UNL     1      10.636  29.762  56.456  1.00  0.00     0.210 C 
ENDBRANCH  19  23
BRANCH  20  25
HETATM   25  O   UNL     1       8.399  27.177  57.004  1.00  0.00    -0.343 OA
BRANCH  25  26
HETATM   26  C   UNL     1       7.662  25.960  56.961  1.00  0.00     0.129 C 
HETATM   27  C   UNL     1       7.306  25.531  55.538  1.00  0.00     0.032 C 
HETATM   28  C   UNL     1       7.160  24.026  55.656  1.00  0.00     0.002 C 
HETATM   29  C   UNL     1       8.327  23.631  56.547  1.00  0.00     0.002 C 
HETATM   30  C   UNL     1       8.558  24.822  57.477  1.00  0.00     0.032 C 
ENDBRANCH  25  26
ENDBRANCH  20  25
ENDBRANCH  14  17
BRANCH   1  31
HETATM   31  O   UNL     1       5.759  33.935  65.679  1.00  0.00    -0.356 OA
HETATM   32  C   UNL     1       4.337  33.941  65.746  1.00  0.00     0.210 C 
ENDBRANCH   1  31
TORSDOF 5
ENDMDL
MODEL 6
REMARK VINA RESULT:      -8.7      2.201      3.517
REMARK  5 active torsions:
REMARK  status: ('A' for Active; 'I' for Inactive)
REMARK    1  A    between atoms: O_2  and  C_3 
REMARK    2  A    between atoms: C_16  and  C_17 
REMARK    3  A    between atoms: C_19  and  O_20 
REMARK    4  A    between atoms: C_22  and  O_23 
REMARK    5  A    between atoms: O_23  and  C_24 
ROOT
HETATM    1  C   UNL     1       6.265  24.740  54.628  1.00  0.00     0.069 A 
HETATM    2  C   UNL     1       5.721  25.942  54.155  1.00  0.00     0.051 A 
HETATM    3  C   UNL     1       5.291  26.926  55.065  1.00  0.00     0.002 A 
HETATM    4  C   UNL     1       5.414  26.672  56.432  1.00  0.00     0.043 A 
HETATM    5  N   UNL     1       4.930  27.771  57.108  1.00  0.00    -0.356 N 
HETATM    6  H   UNL     1       4.913  27.848  58.119  1.00  0.00     0.166 HD
HETATM    7  C   UNL     1       4.543  28.730  56.207  1.00  0.00     0.052 A 
HETATM    8  C   UNL     1       4.726  28.221  54.935  1.00  0.00    -0.019 A 
HETATM    9  C   UNL     1       4.385  29.001  53.711  1.00  0.00     0.069 C 
HETATM   10  C   UNL     1       3.469  30.186  54.069  1.00  0.00     0.238 C 
HETATM   11  N   UNL     1       3.982  30.912  55.287  1.00  0.00    -0.061 N 
HETATM   12  H   UNL     1       4.945  31.220  55.115  1.00  0.00     0.278 HD
HETATM   13  H   UNL     1       3.436  31.762  55.466  1.00  0.00     0.278 HD
HETATM   14  C   UNL     1       3.996  30.077  56.544  1.00  0.00     0.269 C 
HETATM   15  C   UNL     1       5.948  25.478  56.927  1.00  0.00     0.033 A 
HETATM   16  C   UNL     1       6.374  24.517  56.000  1.00  0.00     0.039 A 
ENDROOT
BRANCH  14  17
HETATM   17  C   UNL     1       4.755  30.804  57.635  1.00  0.00    -0.019 A 
HETATM   18  C   UNL     1       6.162  30.850  57.643  1.00  0.00     0.049 A 
HETATM   19  C   UNL     1       6.852  31.538  58.647  1.00  0.00     0.102 A 
HETATM   20  C   UNL     1       6.139  32.219  59.650  1.00  0.00     0.102 A 
HETATM   21  C   UNL     1       4.744  32.199  59.630  1.00  0.00     0.040 A 
HETATM   22  C   UNL     1       4.056  31.495  58.635  1.00  0.00     0.012 A 
BRANCH  19  23
HETATM   23  O   UNL     1       8.220  31.625  58.700  1.00  0.00    -0.353 OA
HETATM   24  C   UNL     1       8.962  30.536  58.166  1.00  0.00     0.210 C 
ENDBRANCH  19  23
BRANCH  20  25
HETATM   25  O   UNL     1       6.895  32.876  60.581  1.00  0.00    -0.343 OA
BRANCH  25  26
HETATM   26  C   UNL     1       6.698  32.604  61.965  1.00  0.00     0.129 C 
HETATM   27  C   UNL     1       8.010  32.441  62.732  1.00  0.00     0.032 C 
HETATM   28  C   UNL     1       7.631  32.820  64.151  1.00  0.00     0.002 C 
HETATM   29  C   UNL     1       6.739  34.037  63.961  1.00  0.00     0.002 C 
HETATM   30  C   UNL     1       6.037  33.828  62.619  1.00  0.00     0.032 C 
ENDBRANCH  25  26
ENDBRANCH  20  25
ENDBRANCH  14  17
BRANCH   1  31
HETATM   31  O   UNL     1       6.651  23.875  53.641  1.00  0.00    -0.356 OA
HETATM   32  C   UNL     1       8.048  23.761  53.388  1.00  0.00     0.210 C 
ENDBRANCH   1  31
TORSDOF 5
ENDMDL
MODEL 7
REMARK VINA RESULT:      -8.5      2.915      8.948
REMARK  5 active torsions:
REMARK  status: ('A' for Active; 'I' for Inactive)
REMARK    1  A    between atoms: O_2  and  C_3 
REMARK    2  A    between atoms: C_16  and  C_17 
REMARK    3  A    between atoms: C_19  and  O_20 
REMARK    4  A    between atoms: C_22  and  O_23 
REMARK    5  A    between atoms: O_23  and  C_24 
ROOT
HETATM    1  C   UNL     1       7.969  32.258  62.576  1.00  0.00     0.069 A 
HETATM    2  C   UNL     1       6.821  32.542  61.824  1.00  0.00     0.051 A 
HETATM    3  C   UNL     1       6.721  32.089  60.495  1.00  0.00     0.002 A 
HETATM    4  C   UNL     1       7.786  31.368  59.952  1.00  0.00     0.043 A 
HETATM    5  N   UNL     1       7.454  31.043  58.655  1.00  0.00    -0.356 N 
HETATM    6  H   UNL     1       8.055  30.508  58.037  1.00  0.00     0.166 HD
HETATM    7  C   UNL     1       6.192  31.502  58.375  1.00  0.00     0.052 A 
HETATM    8  C   UNL     1       5.728  32.181  59.486  1.00  0.00    -0.019 A 
HETATM    9  C   UNL     1       4.385  32.830  59.516  1.00  0.00     0.069 C 
HETATM   10  C   UNL     1       3.832  32.983  58.087  1.00  0.00     0.238 C 
HETATM   11  N   UNL     1       4.019  31.710  57.300  1.00  0.00    -0.061 N 
HETATM   12  H   UNL     1       3.565  30.937  57.798  1.00  0.00     0.278 HD
HETATM   13  H   UNL     1       3.559  31.772  56.386  1.00  0.00     0.278 HD
HETATM   14  C   UNL     1       5.461  31.321  57.087  1.00  0.00     0.269 C 
HETATM   15  C   UNL     1       8.943  31.078  60.681  1.00  0.00     0.033 A 
HETATM   16  C   UNL     1       9.015  31.535  62.005  1.00  0.00     0.039 A 
ENDROOT
BRANCH  14  17
HETATM   17  C   UNL     1       5.536  29.920  56.517  1.00  0.00    -0.019 A 
HETATM   18  C   UNL     1       5.999  29.684  55.208  1.00  0.00     0.049 A 
HETATM   19  C   UNL     1       6.079  28.384  54.697  1.00  0.00     0.102 A 
HETATM   20  C   UNL     1       5.722  27.290  55.505  1.00  0.00     0.102 A 
HETATM   21  C   UNL     1       5.289  27.516  56.812  1.00  0.00     0.040 A 
HETATM   22  C   UNL     1       5.192  28.818  57.314  1.00  0.00     0.012 A 
BRANCH  19  23
HETATM   23  O   UNL     1       6.531  28.095  53.435  1.00  0.00    -0.353 OA
HETATM   24  C   UNL     1       5.760  28.577  52.342  1.00  0.00     0.210 C 
ENDBRANCH  19  23
BRANCH  20  25
HETATM   25  O   UNL     1       5.847  26.055  54.928  1.00  0.00    -0.343 OA
BRANCH  25  26
HETATM   26  C   UNL     1       7.063  25.330  55.080  1.00  0.00     0.129 C 
HETATM   27  C   UNL     1       6.922  24.121  56.004  1.00  0.00     0.032 C 
HETATM   28  C   UNL     1       8.016  23.187  55.523  1.00  0.00     0.002 C 
HETATM   29  C   UNL     1       7.925  23.293  54.009  1.00  0.00     0.002 C 
HETATM   30  C   UNL     1       7.443  24.715  53.723  1.00  0.00     0.032 C 
ENDBRANCH  25  26
ENDBRANCH  20  25
ENDBRANCH  14  17
BRANCH   1  31
HETATM   31  O   UNL     1       7.934  32.746  63.854  1.00  0.00    -0.356 OA
HETATM   32  C   UNL     1       6.907  33.683  64.162  1.00  0.00     0.210 C 
ENDBRANCH   1  31
TORSDOF 5
ENDMDL
MODEL 8
REMARK VINA RESULT:      -8.4      3.415      8.954
REMARK  5 active torsions:
REMARK  status: ('A' for Active; 'I' for Inactive)
REMARK    1  A    between atoms: O_2  and  C_3 
REMARK    2  A    between atoms: C_16  and  C_17 
REMARK    3  A    between atoms: C_19  and  O_20 
REMARK    4  A    between atoms: C_22  and  O_23 
REMARK    5  A    between atoms: O_23  and  C_24 
ROOT
HETATM    1  C   UNL     1       7.521  30.527  58.590  1.00  0.00     0.069 A 
HETATM    2  C   UNL     1       7.852  29.188  58.341  1.00  0.00     0.051 A 
HETATM    3  C   UNL     1       7.104  28.440  57.413  1.00  0.00     0.002 A 
HETATM    4  C   UNL     1       6.035  29.056  56.763  1.00  0.00     0.043 A 
HETATM    5  N   UNL     1       5.468  28.129  55.916  1.00  0.00    -0.356 N 
HETATM    6  H   UNL     1       4.674  28.325  55.316  1.00  0.00     0.166 HD
HETATM    7  C   UNL     1       6.174  26.955  55.982  1.00  0.00     0.052 A 
HETATM    8  C   UNL     1       7.173  27.109  56.925  1.00  0.00    -0.019 A 
HETATM    9  C   UNL     1       8.122  26.009  57.263  1.00  0.00     0.069 C 
HETATM   10  C   UNL     1       7.579  24.659  56.758  1.00  0.00     0.238 C 
HETATM   11  N   UNL     1       7.066  24.782  55.345  1.00  0.00    -0.061 N 
HETATM   12  H   UNL     1       7.819  25.134  54.743  1.00  0.00     0.278 HD
HETATM   13  H   UNL     1       6.802  23.866  54.969  1.00  0.00     0.278 HD
HETATM   14  C   UNL     1       5.894  25.719  55.193  1.00  0.00     0.269 C 
HETATM   15  C   UNL     1       5.682  30.389  56.999  1.00  0.00     0.033 A 
HETATM   16  C   UNL     1       6.447  31.114  57.924  1.00  0.00     0.039 A 
ENDROOT
BRANCH  14  17
HETATM   17  C   UNL     1       5.621  25.966  53.723  1.00  0.00    -0.019 A 
HETATM   18  C   UNL     1       5.840  27.229  53.139  1.00  0.00     0.049 A 
HETATM   19  C   UNL     1       5.600  27.442  51.777  1.00  0.00     0.102 A 
HETATM   20  C   UNL     1       5.161  26.380  50.967  1.00  0.00     0.102 A 
HETATM   21  C   UNL     1       4.969  25.120  51.536  1.00  0.00     0.040 A 
HETATM   22  C   UNL     1       5.192  24.914  52.902  1.00  0.00     0.012 A 
BRANCH  19  23
HETATM   23  O   UNL     1       5.805  28.646  51.153  1.00  0.00    -0.353 OA
HETATM   24  C   UNL     1       4.874  29.686  51.425  1.00  0.00     0.210 C 
ENDBRANCH  19  23
BRANCH  20  25
HETATM   25  O   UNL     1       4.967  26.676  49.646  1.00  0.00    -0.343 OA
BRANCH  25  26
HETATM   26  C   UNL     1       3.643  26.730  49.126  1.00  0.00     0.129 C 
HETATM   27  C   UNL     1       3.426  27.903  48.171  1.00  0.00     0.032 C 
HETATM   28  C   UNL     1       2.295  27.423  47.282  1.00  0.00     0.002 C 
HETATM   29  C   UNL     1       2.659  25.974  47.005  1.00  0.00     0.002 C 
HETATM   30  C   UNL     1       3.405  25.490  48.248  1.00  0.00     0.032 C 
ENDBRANCH  25  26
ENDBRANCH  20  25
ENDBRANCH  14  17
BRANCH   1  31
HETATM   31  O   UNL     1       8.331  31.142  59.505  1.00  0.00    -0.356 OA
HETATM   32  C   UNL     1       9.581  31.636  59.035  1.00  0.00     0.210 C 
ENDBRANCH   1  31
TORSDOF 5
ENDMDL
MODEL 9
REMARK VINA RESULT:      -8.1      4.863      9.346
REMARK  5 active torsions:
REMARK  status: ('A' for Active; 'I' for Inactive)
REMARK    1  A    between atoms: O_2  and  C_3 
REMARK    2  A    between atoms: C_16  and  C_17 
REMARK    3  A    between atoms: C_19  and  O_20 
REMARK    4  A    between atoms: C_22  and  O_23 
REMARK    5  A    between atoms: O_23  and  C_24 
ROOT
HETATM    1  C   UNL     1       0.917  31.774  50.503  1.00  0.00     0.069 A 
HETATM    2  C   UNL     1       1.002  30.567  49.795  1.00  0.00     0.051 A 
HETATM    3  C   UNL     1       2.134  29.745  49.941  1.00  0.00     0.002 A 
HETATM    4  C   UNL     1       3.158  30.162  50.792  1.00  0.00     0.043 A 
HETATM    5  N   UNL     1       4.145  29.200  50.765  1.00  0.00    -0.356 N 
HETATM    6  H   UNL     1       5.001  29.254  51.306  1.00  0.00     0.166 HD
HETATM    7  C   UNL     1       3.754  28.165  49.952  1.00  0.00     0.052 A 
HETATM    8  C   UNL     1       2.528  28.492  49.404  1.00  0.00    -0.019 A 
HETATM    9  C   UNL     1       1.819  27.590  48.451  1.00  0.00     0.069 C 
HETATM   10  C   UNL     1       2.790  26.535  47.889  1.00  0.00     0.238 C 
HETATM   11  N   UNL     1       3.627  25.934  48.990  1.00  0.00    -0.061 N 
HETATM   12  H   UNL     1       3.007  25.532  49.702  1.00  0.00     0.278 HD
HETATM   13  H   UNL     1       4.198  25.159  48.637  1.00  0.00     0.278 HD
HETATM   14  C   UNL     1       4.532  26.920  49.687  1.00  0.00     0.269 C 
HETATM   15  C   UNL     1       3.099  31.364  51.504  1.00  0.00     0.033 A 
HETATM   16  C   UNL     1       1.957  32.162  51.345  1.00  0.00     0.039 A 
ENDROOT
BRANCH  14  17
HETATM   17  C   UNL     1       5.130  26.282  50.924  1.00  0.00    -0.019 A 
HETATM   18  C   UNL     1       6.242  26.849  51.576  1.00  0.00     0.049 A 
HETATM   19  C   UNL     1       6.777  26.261  52.727  1.00  0.00     0.102 A 
HETATM   20  C   UNL     1       6.186  25.103  53.263  1.00  0.00     0.102 A 
HETATM   21  C   UNL     1       5.067  24.553  52.636  1.00  0.00     0.040 A 
HETATM   22  C   UNL     1       4.545  25.133  51.475  1.00  0.00     0.012 A 
BRANCH  19  23
HETATM   23  O   UNL     1       7.851  26.774  53.409  1.00  0.00    -0.353 OA
HETATM   24  C   UNL     1       7.654  28.000  54.103  1.00  0.00     0.210 C 
ENDBRANCH  19  23
BRANCH  20  25
HETATM   25  O   UNL     1       6.766  24.606  54.399  1.00  0.00    -0.343 OA
BRANCH  25  26
HETATM   26  C   UNL     1       7.201  23.250  54.428  1.00  0.00     0.129 C 
HETATM   27  C   UNL     1       8.070  22.879  53.227  1.00  0.00     0.032 C 
HETATM   28  C   UNL     1       8.916  21.734  53.751  1.00  0.00     0.002 C 
HETATM   29  C   UNL     1       9.300  22.196  55.148  1.00  0.00     0.002 C 
HETATM   30  C   UNL     1       8.135  23.057  55.633  1.00  0.00     0.032 C 
ENDBRANCH  25  26
ENDBRANCH  20  25
ENDBRANCH  14  17
BRANCH   1  31
HETATM   31  O   UNL     1      -0.239  32.473  50.279  1.00  0.00    -0.356 OA
HETATM   32  C   UNL     1      -1.453  31.879  50.726  1.00  0.00     0.210 C 
ENDBRANCH   1  31
TORSDOF 5
ENDMDL
MODEL 10
REMARK VINA RESULT:      -8.1      3.326      9.773
REMARK  5 active torsions:
REMARK  status: ('A' for Active; 'I' for Inactive)
REMARK    1  A    between atoms: O_2  and  C_3 
REMARK    2  A    between atoms: C_16  and  C_17 
REMARK    3  A    between atoms: C_19  and  O_20 
REMARK    4  A    between atoms: C_22  and  O_23 
REMARK    5  A    between atoms: O_23  and  C_24 
ROOT
HETATM    1  C   UNL     1       6.704  33.735  64.098  1.00  0.00     0.069 A 
HETATM    2  C   UNL     1       5.928  33.941  62.950  1.00  0.00     0.051 A 
HETATM    3  C   UNL     1       6.261  33.286  61.750  1.00  0.00     0.002 A 
HETATM    4  C   UNL     1       7.374  32.444  61.733  1.00  0.00     0.043 A 
HETATM    5  N   UNL     1       7.491  31.929  60.461  1.00  0.00    -0.356 N 
HETATM    6  H   UNL     1       8.217  31.277  60.181  1.00  0.00     0.166 HD
HETATM    7  C   UNL     1       6.460  32.388  59.682  1.00  0.00     0.052 A 
HETATM    8  C   UNL     1       5.701  33.255  60.446  1.00  0.00    -0.019 A 
HETATM    9  C   UNL     1       4.503  33.955  59.898  1.00  0.00     0.069 C 
HETATM   10  C   UNL     1       4.507  33.899  58.360  1.00  0.00     0.238 C 
HETATM   11  N   UNL     1       4.836  32.509  57.874  1.00  0.00    -0.061 N 
HETATM   12  H   UNL     1       4.164  31.846  58.272  1.00  0.00     0.278 HD
HETATM   13  H   UNL     1       4.737  32.443  56.855  1.00  0.00     0.278 HD
HETATM   14  C   UNL     1       6.216  32.033  58.253  1.00  0.00     0.269 C 
HETATM   15  C   UNL     1       8.166  32.228  62.865  1.00  0.00     0.033 A 
HETATM   16  C   UNL     1       7.810  32.888  64.050  1.00  0.00     0.039 A 
ENDROOT
BRANCH  14  17
HETATM   17  C   UNL     1       6.353  30.556  57.945  1.00  0.00    -0.019 A 
HETATM   18  C   UNL     1       5.340  29.853  57.265  1.00  0.00     0.049 A 
HETATM   19  C   UNL     1       5.482  28.493  56.971  1.00  0.00     0.102 A 
HETATM   20  C   UNL     1       6.662  27.817  57.331  1.00  0.00     0.102 A 
HETATM   21  C   UNL     1       7.680  28.516  57.980  1.00  0.00     0.040 A 
HETATM   22  C   UNL     1       7.527  29.872  58.289  1.00  0.00     0.012 A 
BRANCH  19  23
HETATM   23  O   UNL     1       4.534  27.760  56.303  1.00  0.00    -0.353 OA
HETATM   24  C   UNL     1       4.188  28.188  54.992  1.00  0.00     0.210 C 
ENDBRANCH  19  23
BRANCH  20  25
HETATM   25  O   UNL     1       6.721  26.493  56.990  1.00  0.00    -0.343 OA
BRANCH  25  26
HETATM   26  C   UNL     1       7.570  26.080  55.925  1.00  0.00     0.129 C 
HETATM   27  C   UNL     1       7.036  24.856  55.181  1.00  0.00     0.032 C 
HETATM   28  C   UNL     1       7.650  24.994  53.801  1.00  0.00     0.002 C 
HETATM   29  C   UNL     1       7.504  26.478  53.501  1.00  0.00     0.002 C 
HETATM   30  C   UNL     1       7.590  27.182  54.854  1.00  0.00     0.032 C 
ENDBRANCH  25  26
ENDBRANCH  20  25
ENDBRANCH  14  17
BRANCH   1  31
HETATM   31  O   UNL     1       6.267  34.423  65.198  1.00  0.00    -0.356 OA
HETATM   32  C   UNL     1       6.812  34.043  66.458  1.00  0.00     0.210 C 
ENDBRANCH   1  31
TORSDOF 5
ENDMDL
