MODEL 1
REMARK VINA RESULT:      -7.7      0.000      0.000
REMARK  8 active torsions:
REMARK  status: ('A' for Active; 'I' for Inactive)
REMARK    1  A    between atoms: C_2  and  O_3 
REMARK    2  A    between atoms: O_3  and  C_4 
REMARK       I    between atoms: C_4  and  N_5 
REMARK    3  A    between atoms: C_8  and  N_9 
REMARK       I    between atoms: N_9  and  C_10 
REMARK    4  A    between atoms: C_10  and  C_11 
REMARK    5  A    between atoms: C_12  and  C_13 
REMARK    6  A    between atoms: N_18  and  C_19 
REMARK    7  A    between atoms: C_19  and  C_20 
REMARK    8  A    between atoms: C_20  and  O_21 
ROOT
HETATM    1  C   UNL     1       5.562  27.294  54.963  1.00  0.00     0.139 C 
HETATM    2  C   UNL     1       5.504  28.251  56.172  1.00  0.00     0.145 C 
HETATM    3  N   UNL     1       6.843  28.606  56.659  1.00  0.00    -0.335 N 
HETATM    4  C   UNL     1       7.760  27.580  56.889  1.00  0.00     0.255 C 
HETATM    5  O   UNL     1       8.829  27.747  57.470  1.00  0.00    -0.267 OA
HETATM    6  C   UNL     1       7.408  26.230  56.345  1.00  0.00     0.039 A 
HETATM    7  C   UNL     1       6.372  26.079  55.398  1.00  0.00    -0.027 A 
HETATM    8  C   UNL     1       8.153  25.117  56.751  1.00  0.00     0.017 A 
HETATM    9  C   UNL     1       7.865  23.855  56.230  1.00  0.00     0.001 A 
HETATM   10  C   UNL     1       6.841  23.702  55.296  1.00  0.00     0.001 A 
HETATM   11  C   UNL     1       6.098  24.806  54.876  1.00  0.00     0.009 A 
ENDROOT
BRANCH   1  12
HETATM   12  C   UNL     1       6.176  27.935  53.711  1.00  0.00     0.229 C 
HETATM   13  N   UNL     1       5.265  28.159  52.691  1.00  0.00    -0.356 N 
HETATM   14  H   UNL     1       4.292  28.028  52.937  1.00  0.00     0.162 HD
HETATM   15  O   UNL     1       7.371  28.187  53.607  1.00  0.00    -0.273 OA
BRANCH  13  16
HETATM   16  C   UNL     1       5.487  29.047  51.541  1.00  0.00     0.087 C 
HETATM   17  C   UNL     1       5.893  28.408  50.207  1.00  0.00     0.045 C 
HETATM   18  C   UNL     1       4.763  27.590  49.599  1.00  0.00     0.130 C 
HETATM   19  N   UNL     1       3.546  28.392  49.474  1.00  0.00    -0.328 N 
HETATM   20  C   UNL     1       2.624  28.173  48.460  1.00  0.00     0.362 C 
HETATM   21  C   UNL     1       3.107  29.094  50.673  1.00  0.00     0.130 C 
HETATM   22  O   UNL     1       1.493  28.644  48.454  1.00  0.00    -0.238 OA
HETATM   23  C   UNL     1       4.234  29.905  51.310  1.00  0.00     0.045 C 
BRANCH  20  24
HETATM   24  O   UNL     1       3.120  27.386  47.467  1.00  0.00    -0.304 OA
BRANCH  24  25
HETATM   25  C   UNL     1       2.330  26.249  47.097  1.00  0.00     0.176 C 
HETATM   26  C   UNL     1       2.977  24.981  47.618  1.00  0.00     0.034 C 
ENDBRANCH  24  25
ENDBRANCH  20  24
ENDBRANCH  13  16
ENDBRANCH   1  12
BRANCH   2  27
HETATM   27  C   UNL     1       4.507  29.395  56.119  1.00  0.00     0.006 A 
HETATM   28  S   UNL     1       3.803  30.099  57.516  1.00  0.00    -0.104 SA
HETATM   29  C   UNL     1       2.897  31.215  56.599  1.00  0.00     0.050 A 
HETATM   30  C   UNL     1       3.135  31.086  55.251  1.00  0.00     0.008 A 
HETATM   31  C   UNL     1       4.067  30.047  54.977  1.00  0.00     0.017 A 
ENDBRANCH   2  27
BRANCH   3  32
HETATM   32  C   UNL     1       7.356  29.978  56.627  1.00  0.00     0.153 C 
BRANCH  32  33
HETATM   33  C   UNL     1       7.303  30.686  57.979  1.00  0.00     0.187 C 
BRANCH  33  34
HETATM   34  O   UNL     1       8.636  30.794  58.490  1.00  0.00    -0.394 OA
HETATM   35  C   UNL     1       8.689  30.538  59.885  1.00  0.00     0.201 C 
ENDBRANCH  33  34
ENDBRANCH  32  33
ENDBRANCH   3  32
TORSDOF 8
ENDMDL
MODEL 2
REMARK VINA RESULT:      -7.2      3.914      7.740
REMARK  8 active torsions:
REMARK  status: ('A' for Active; 'I' for Inactive)
REMARK    1  A    between atoms: C_2  and  O_3 
REMARK    2  A    between atoms: O_3  and  C_4 
REMARK       I    between atoms: C_4  and  N_5 
REMARK    3  A    between atoms: C_8  and  N_9 
REMARK       I    between atoms: N_9  and  C_10 
REMARK    4  A    between atoms: C_10  and  C_11 
REMARK    5  A    between atoms: C_12  and  C_13 
REMARK    6  A    between atoms: N_18  and  C_19 
REMARK    7  A    between atoms: C_19  and  C_20 
REMARK    8  A    between atoms: C_20  and  O_21 
ROOT
HETATM    1  C   UNL     1       5.034  32.797  58.672  1.00  0.00     0.139 C 
HETATM    2  C   UNL     1       5.743  33.033  60.022  1.00  0.00     0.145 C 
HETATM    3  N   UNL     1       4.804  33.001  61.151  1.00  0.00    -0.335 N 
HETATM    4  C   UNL     1       3.639  33.763  61.068  1.00  0.00     0.255 C 
HETATM    5  O   UNL     1       2.889  33.955  62.021  1.00  0.00    -0.267 OA
HETATM    6  C   UNL     1       3.295  34.320  59.722  1.00  0.00     0.039 A 
HETATM    7  C   UNL     1       3.937  33.848  58.557  1.00  0.00    -0.027 A 
HETATM    8  C   UNL     1       2.289  35.288  59.623  1.00  0.00     0.017 A 
HETATM    9  C   UNL     1       1.928  35.796  58.374  1.00  0.00     0.001 A 
HETATM   10  C   UNL     1       2.561  35.333  57.221  1.00  0.00     0.001 A 
HETATM   11  C   UNL     1       3.559  34.361  57.307  1.00  0.00     0.009 A 
ENDROOT
BRANCH   1  12
HETATM   12  C   UNL     1       4.449  31.385  58.534  1.00  0.00     0.229 C 
HETATM   13  N   UNL     1       4.996  30.650  57.494  1.00  0.00    -0.356 N 
HETATM   14  H   UNL     1       5.812  31.055  57.054  1.00  0.00     0.162 HD
HETATM   15  O   UNL     1       3.551  30.960  59.252  1.00  0.00    -0.273 OA
BRANCH  13  16
HETATM   16  C   UNL     1       4.882  29.193  57.339  1.00  0.00     0.087 C 
HETATM   17  C   UNL     1       4.080  28.656  56.147  1.00  0.00     0.045 C 
HETATM   18  C   UNL     1       4.774  28.933  54.821  1.00  0.00     0.130 C 
HETATM   19  N   UNL     1       6.145  28.423  54.833  1.00  0.00    -0.328 N 
HETATM   20  C   UNL     1       6.768  27.972  53.678  1.00  0.00     0.362 C 
HETATM   21  C   UNL     1       6.975  28.825  55.960  1.00  0.00     0.130 C 
HETATM   22  O   UNL     1       7.974  27.767  53.590  1.00  0.00    -0.238 OA
HETATM   23  C   UNL     1       6.287  28.573  57.301  1.00  0.00     0.045 C 
BRANCH  20  24
HETATM   24  O   UNL     1       5.891  27.768  52.659  1.00  0.00    -0.304 OA
BRANCH  24  25
HETATM   25  C   UNL     1       5.891  26.462  52.067  1.00  0.00     0.176 C 
HETATM   26  C   UNL     1       4.963  25.547  52.841  1.00  0.00     0.034 C 
ENDBRANCH  24  25
ENDBRANCH  20  24
ENDBRANCH  13  16
ENDBRANCH   1  12
BRANCH   2  27
HETATM   27  C   UNL     1       7.067  32.329  60.257  1.00  0.00     0.006 A 
HETATM   28  S   UNL     1       7.628  31.026  59.290  1.00  0.00    -0.104 SA
HETATM   29  C   UNL     1       9.071  30.874  60.186  1.00  0.00     0.050 A 
HETATM   30  C   UNL     1       9.153  31.808  61.192  1.00  0.00     0.008 A 
HETATM   31  C   UNL     1       8.006  32.649  61.226  1.00  0.00     0.017 A 
ENDBRANCH   2  27
BRANCH   3  32
HETATM   32  C   UNL     1       4.881  31.991  62.211  1.00  0.00     0.153 C 
BRANCH  32  33
HETATM   33  C   UNL     1       5.586  32.478  63.474  1.00  0.00     0.187 C 
BRANCH  33  34
HETATM   34  O   UNL     1       4.604  32.683  64.495  1.00  0.00    -0.394 OA
HETATM   35  C   UNL     1       4.919  33.799  65.314  1.00  0.00     0.201 C 
ENDBRANCH  33  34
ENDBRANCH  32  33
ENDBRANCH   3  32
TORSDOF 8
ENDMDL
MODEL 3
REMARK VINA RESULT:      -6.9     10.149     15.542
REMARK  8 active torsions:
REMARK  status: ('A' for Active; 'I' for Inactive)
REMARK    1  A    between atoms: C_2  and  O_3 
REMARK    2  A    between atoms: O_3  and  C_4 
REMARK       I    between atoms: C_4  and  N_5 
REMARK    3  A    between atoms: C_8  and  N_9 
REMARK       I    between atoms: N_9  and  C_10 
REMARK    4  A    between atoms: C_10  and  C_11 
REMARK    5  A    between atoms: C_12  and  C_13 
REMARK    6  A    between atoms: N_18  and  C_19 
REMARK    7  A    between atoms: C_19  and  C_20 
REMARK    8  A    between atoms: C_20  and  O_21 
ROOT
HETATM    1  C   UNL     1       6.513  35.063  64.051  1.00  0.00     0.139 C 
HETATM    2  C   UNL     1       6.017  36.097  63.019  1.00  0.00     0.145 C 
HETATM    3  N   UNL     1       4.819  35.633  62.306  1.00  0.00    -0.335 N 
HETATM    4  C   UNL     1       4.829  34.353  61.752  1.00  0.00     0.255 C 
HETATM    5  O   UNL     1       3.965  33.943  60.983  1.00  0.00    -0.267 OA
HETATM    6  C   UNL     1       5.942  33.446  62.178  1.00  0.00     0.039 A 
HETATM    7  C   UNL     1       6.744  33.759  63.296  1.00  0.00    -0.027 A 
HETATM    8  C   UNL     1       6.152  32.252  61.479  1.00  0.00     0.017 A 
HETATM    9  C   UNL     1       7.161  31.375  61.879  1.00  0.00     0.001 A 
HETATM   10  C   UNL     1       7.955  31.682  62.983  1.00  0.00     0.001 A 
HETATM   11  C   UNL     1       7.749  32.865  63.693  1.00  0.00     0.009 A 
ENDROOT
BRANCH   1  12
HETATM   12  C   UNL     1       5.536  34.850  65.215  1.00  0.00     0.229 C 
HETATM   13  N   UNL     1       6.120  34.964  66.466  1.00  0.00    -0.356 N 
HETATM   14  H   UNL     1       7.066  35.324  66.476  1.00  0.00     0.162 HD
HETATM   15  O   UNL     1       4.355  34.565  65.052  1.00  0.00    -0.273 OA
BRANCH  13  16
HETATM   16  C   UNL     1       5.387  35.146  67.726  1.00  0.00     0.087 C 
HETATM   17  C   UNL     1       4.915  33.891  68.472  1.00  0.00     0.045 C 
HETATM   18  C   UNL     1       6.079  33.096  69.044  1.00  0.00     0.130 C 
HETATM   19  N   UNL     1       6.929  33.943  69.881  1.00  0.00    -0.328 N 
HETATM   20  C   UNL     1       7.627  33.435  70.968  1.00  0.00     0.362 C 
HETATM   21  C   UNL     1       7.383  35.193  69.287  1.00  0.00     0.130 C 
HETATM   22  O   UNL     1       8.527  34.037  71.543  1.00  0.00    -0.238 OA
HETATM   23  C   UNL     1       6.230  35.997  68.688  1.00  0.00     0.045 C 
BRANCH  20  24
HETATM   24  O   UNL     1       7.192  32.199  71.333  1.00  0.00    -0.304 OA
BRANCH  24  25
HETATM   25  C   UNL     1       7.921  31.550  72.384  1.00  0.00     0.176 C 
HETATM   26  C   UNL     1       7.877  30.047  72.189  1.00  0.00     0.034 C 
ENDBRANCH  24  25
ENDBRANCH  20  24
ENDBRANCH  13  16
ENDBRANCH   1  12
BRANCH   2  27
HETATM   27  C   UNL     1       6.002  37.557  63.434  1.00  0.00     0.006 A 
HETATM   28  S   UNL     1       6.474  38.839  62.395  1.00  0.00    -0.104 SA
HETATM   29  C   UNL     1       6.160  40.025  63.579  1.00  0.00     0.050 A 
HETATM   30  C   UNL     1       5.678  39.475  64.744  1.00  0.00     0.008 A 
HETATM   31  C   UNL     1       5.578  38.058  64.656  1.00  0.00     0.017 A 
ENDBRANCH   2  27
BRANCH   3  32
HETATM   32  C   UNL     1       3.527  36.318  62.407  1.00  0.00     0.153 C 
BRANCH  32  33
HETATM   33  C   UNL     1       3.202  37.198  61.202  1.00  0.00     0.187 C 
BRANCH  33  34
HETATM   34  O   UNL     1       3.121  38.559  61.638  1.00  0.00    -0.394 OA
HETATM   35  C   UNL     1       2.630  39.413  60.616  1.00  0.00     0.201 C 
ENDBRANCH  33  34
ENDBRANCH  32  33
ENDBRANCH   3  32
TORSDOF 8
ENDMDL
MODEL 4
REMARK VINA RESULT:      -6.9      2.643      8.014
REMARK  8 active torsions:
REMARK  status: ('A' for Active; 'I' for Inactive)
REMARK    1  A    between atoms: C_2  and  O_3 
REMARK    2  A    between atoms: O_3  and  C_4 
REMARK       I    between atoms: C_4  and  N_5 
REMARK    3  A    between atoms: C_8  and  N_9 
REMARK       I    between atoms: N_9  and  C_10 
REMARK    4  A    between atoms: C_10  and  C_11 
REMARK    5  A    between atoms: C_12  and  C_13 
REMARK    6  A    between atoms: N_18  and  C_19 
REMARK    7  A    between atoms: C_19  and  C_20 
REMARK    8  A    between atoms: C_20  and  O_21 
ROOT
HETATM    1  C   UNL     1       5.781  28.628  52.469  1.00  0.00     0.139 C 
HETATM    2  C   UNL     1       5.602  28.945  50.969  1.00  0.00     0.145 C 
HETATM    3  N   UNL     1       4.735  27.966  50.299  1.00  0.00    -0.335 N 
HETATM    4  C   UNL     1       4.996  26.608  50.487  1.00  0.00     0.255 C 
HETATM    5  O   UNL     1       4.459  25.721  49.831  1.00  0.00    -0.267 OA
HETATM    6  C   UNL     1       5.951  26.253  51.585  1.00  0.00     0.039 A 
HETATM    7  C   UNL     1       6.317  27.205  52.561  1.00  0.00    -0.027 A 
HETATM    8  C   UNL     1       6.443  24.946  51.662  1.00  0.00     0.017 A 
HETATM    9  C   UNL     1       7.306  24.584  52.696  1.00  0.00     0.001 A 
HETATM   10  C   UNL     1       7.672  25.521  53.662  1.00  0.00     0.001 A 
HETATM   11  C   UNL     1       7.180  26.826  53.600  1.00  0.00     0.009 A 
ENDROOT
BRANCH   1  12
HETATM   12  C   UNL     1       4.485  28.772  53.278  1.00  0.00     0.229 C 
HETATM   13  N   UNL     1       4.622  29.538  54.425  1.00  0.00    -0.356 N 
HETATM   14  H   UNL     1       5.498  30.038  54.515  1.00  0.00     0.162 HD
HETATM   15  O   UNL     1       3.434  28.227  52.961  1.00  0.00    -0.273 OA
BRANCH  13  16
HETATM   16  C   UNL     1       3.510  30.118  55.191  1.00  0.00     0.087 C 
HETATM   17  C   UNL     1       3.445  29.828  56.696  1.00  0.00     0.045 C 
HETATM   18  C   UNL     1       4.573  30.509  57.457  1.00  0.00     0.130 C 
HETATM   19  N   UNL     1       4.601  31.945  57.176  1.00  0.00    -0.328 N 
HETATM   20  C   UNL     1       5.040  32.867  58.115  1.00  0.00     0.362 C 
HETATM   21  C   UNL     1       4.602  32.329  55.771  1.00  0.00     0.130 C 
HETATM   22  O   UNL     1       5.309  34.034  57.851  1.00  0.00    -0.238 OA
HETATM   23  C   UNL     1       3.487  31.640  54.985  1.00  0.00     0.045 C 
BRANCH  20  24
HETATM   24  O   UNL     1       5.126  32.337  59.365  1.00  0.00    -0.304 OA
BRANCH  24  25
HETATM   25  C   UNL     1       6.359  32.546  60.065  1.00  0.00     0.176 C 
HETATM   26  C   UNL     1       7.458  31.715  59.433  1.00  0.00     0.034 C 
ENDBRANCH  24  25
ENDBRANCH  20  24
ENDBRANCH  13  16
ENDBRANCH   1  12
BRANCH   2  27
HETATM   27  C   UNL     1       5.373  30.393  50.576  1.00  0.00     0.006 A 
HETATM   28  S   UNL     1       4.209  31.404  51.331  1.00  0.00    -0.104 SA
HETATM   29  C   UNL     1       4.612  32.739  50.350  1.00  0.00     0.050 A 
HETATM   30  C   UNL     1       5.631  32.446  49.475  1.00  0.00     0.008 A 
HETATM   31  C   UNL     1       6.074  31.101  49.612  1.00  0.00     0.017 A 
ENDBRANCH   2  27
BRANCH   3  32
HETATM   32  C   UNL     1       3.449  28.333  49.700  1.00  0.00     0.153 C 
BRANCH  32  33
HETATM   33  C   UNL     1       3.533  28.645  48.207  1.00  0.00     0.187 C 
BRANCH  33  34
HETATM   34  O   UNL     1       2.899  27.586  47.483  1.00  0.00    -0.394 OA
HETATM   35  C   UNL     1       1.650  27.228  48.055  1.00  0.00     0.201 C 
ENDBRANCH  33  34
ENDBRANCH  32  33
ENDBRANCH   3  32
TORSDOF 8
ENDMDL
MODEL 5
REMARK VINA RESULT:      -6.7      4.540      9.933
REMARK  8 active torsions:
REMARK  status: ('A' for Active; 'I' for Inactive)
REMARK    1  A    between atoms: C_2  and  O_3 
REMARK    2  A    between atoms: O_3  and  C_4 
REMARK       I    between atoms: C_4  and  N_5 
REMARK    3  A    between atoms: C_8  and  N_9 
REMARK       I    between atoms: N_9  and  C_10 
REMARK    4  A    between atoms: C_10  and  C_11 
REMARK    5  A    between atoms: C_12  and  C_13 
REMARK    6  A    between atoms: N_18  and  C_19 
REMARK    7  A    between atoms: C_19  and  C_20 
REMARK    8  A    between atoms: C_20  and  O_21 
ROOT
HETATM    1  C   UNL     1       5.676  31.535  57.458  1.00  0.00     0.139 C 
HETATM    2  C   UNL     1       5.247  32.087  56.083  1.00  0.00     0.145 C 
HETATM    3  N   UNL     1       4.454  31.114  55.321  1.00  0.00    -0.335 N 
HETATM    4  C   UNL     1       4.940  29.812  55.197  1.00  0.00     0.255 C 
HETATM    5  O   UNL     1       4.458  28.981  54.432  1.00  0.00    -0.267 OA
HETATM    6  C   UNL     1       6.078  29.432  56.093  1.00  0.00     0.039 A 
HETATM    7  C   UNL     1       6.428  30.235  57.200  1.00  0.00    -0.027 A 
HETATM    8  C   UNL     1       6.768  28.239  55.848  1.00  0.00     0.017 A 
HETATM    9  C   UNL     1       7.809  27.848  56.691  1.00  0.00     0.001 A 
HETATM   10  C   UNL     1       8.158  28.639  57.784  1.00  0.00     0.001 A 
HETATM   11  C   UNL     1       7.471  29.826  58.044  1.00  0.00     0.009 A 
ENDROOT
BRANCH   1  12
HETATM   12  C   UNL     1       4.496  31.298  58.411  1.00  0.00     0.229 C 
HETATM   13  N   UNL     1       4.620  31.946  59.630  1.00  0.00    -0.356 N 
HETATM   14  H   UNL     1       5.377  32.616  59.694  1.00  0.00     0.162 HD
HETATM   15  O   UNL     1       3.549  30.570  58.135  1.00  0.00    -0.273 OA
BRANCH  13  16
HETATM   16  C   UNL     1       3.522  32.177  60.579  1.00  0.00     0.087 C 
HETATM   17  C   UNL     1       3.639  31.560  61.978  1.00  0.00     0.045 C 
HETATM   18  C   UNL     1       4.739  32.215  62.800  1.00  0.00     0.130 C 
HETATM   19  N   UNL     1       4.558  33.665  62.854  1.00  0.00    -0.328 N 
HETATM   20  C   UNL     1       4.964  34.414  63.950  1.00  0.00     0.362 C 
HETATM   21  C   UNL     1       4.375  34.343  61.579  1.00  0.00     0.130 C 
HETATM   22  O   UNL     1       5.057  35.637  63.944  1.00  0.00    -0.238 OA
HETATM   23  C   UNL     1       3.287  33.688  60.729  1.00  0.00     0.045 C 
BRANCH  20  24
HETATM   24  O   UNL     1       5.236  33.642  65.036  1.00  0.00    -0.304 OA
BRANCH  24  25
HETATM   25  C   UNL     1       6.522  33.823  65.644  1.00  0.00     0.176 C 
HETATM   26  C   UNL     1       7.613  33.432  64.667  1.00  0.00     0.034 C 
ENDBRANCH  24  25
ENDBRANCH  20  24
ENDBRANCH  13  16
ENDBRANCH   1  12
BRANCH   2  27
HETATM   27  C   UNL     1       4.751  33.521  56.021  1.00  0.00     0.006 A 
HETATM   28  S   UNL     1       5.018  34.555  54.678  1.00  0.00    -0.104 SA
HETATM   29  C   UNL     1       4.183  35.852  55.405  1.00  0.00     0.050 A 
HETATM   30  C   UNL     1       3.680  35.512  56.639  1.00  0.00     0.008 A 
HETATM   31  C   UNL     1       3.998  34.170  56.988  1.00  0.00     0.017 A 
ENDBRANCH   2  27
BRANCH   3  32
HETATM   32  C   UNL     1       3.058  31.355  54.947  1.00  0.00     0.153 C 
BRANCH  32  33
HETATM   33  C   UNL     1       2.875  31.774  53.490  1.00  0.00     0.187 C 
BRANCH  33  34
HETATM   34  O   UNL     1       1.958  32.872  53.442  1.00  0.00    -0.394 OA
HETATM   35  C   UNL     1       1.311  33.075  54.689  1.00  0.00     0.201 C 
ENDBRANCH  33  34
ENDBRANCH  32  33
ENDBRANCH   3  32
TORSDOF 8
ENDMDL
MODEL 6
REMARK VINA RESULT:      -6.5      5.977     11.700
REMARK  8 active torsions:
REMARK  status: ('A' for Active; 'I' for Inactive)
REMARK    1  A    between atoms: C_2  and  O_3 
REMARK    2  A    between atoms: O_3  and  C_4 
REMARK       I    between atoms: C_4  and  N_5 
REMARK    3  A    between atoms: C_8  and  N_9 
REMARK       I    between atoms: N_9  and  C_10 
REMARK    4  A    between atoms: C_10  and  C_11 
REMARK    5  A    between atoms: C_12  and  C_13 
REMARK    6  A    between atoms: N_18  and  C_19 
REMARK    7  A    between atoms: C_19  and  C_20 
REMARK    8  A    between atoms: C_20  and  O_21 
ROOT
HETATM    1  C   UNL     1       5.835  33.339  59.527  1.00  0.00     0.139 C 
HETATM    2  C   UNL     1       5.301  33.172  58.089  1.00  0.00     0.145 C 
HETATM    3  N   UNL     1       4.904  31.786  57.806  1.00  0.00    -0.335 N 
HETATM    4  C   UNL     1       5.797  30.761  58.121  1.00  0.00     0.255 C 
HETATM    5  O   UNL     1       5.646  29.599  57.757  1.00  0.00    -0.267 OA
HETATM    6  C   UNL     1       6.961  31.128  58.989  1.00  0.00     0.039 A 
HETATM    7  C   UNL     1       6.983  32.352  59.692  1.00  0.00    -0.027 A 
HETATM    8  C   UNL     1       8.015  30.219  59.133  1.00  0.00     0.017 A 
HETATM    9  C   UNL     1       9.094  30.525  59.964  1.00  0.00     0.001 A 
HETATM   10  C   UNL     1       9.119  31.733  60.659  1.00  0.00     0.001 A 
HETATM   11  C   UNL     1       8.070  32.644  60.530  1.00  0.00     0.009 A 
ENDROOT
BRANCH   1  12
HETATM   12  C   UNL     1       4.764  33.110  60.602  1.00  0.00     0.229 C 
HETATM   13  N   UNL     1       4.529  34.215  61.405  1.00  0.00    -0.356 N 
HETATM   14  H   UNL     1       4.962  35.077  61.100  1.00  0.00     0.162 HD
HETATM   15  O   UNL     1       4.196  32.035  60.761  1.00  0.00    -0.273 OA
BRANCH  13  16
HETATM   16  C   UNL     1       3.353  34.396  62.268  1.00  0.00     0.087 C 
HETATM   17  C   UNL     1       3.236  33.516  63.519  1.00  0.00     0.045 C 
HETATM   18  C   UNL     1       4.289  33.861  64.560  1.00  0.00     0.130 C 
HETATM   19  N   UNL     1       4.252  35.287  64.888  1.00  0.00    -0.328 N 
HETATM   20  C   UNL     1       4.597  35.758  66.147  1.00  0.00     0.362 C 
HETATM   21  C   UNL     1       4.296  36.211  63.764  1.00  0.00     0.130 C 
HETATM   22  O   UNL     1       4.814  36.939  66.397  1.00  0.00    -0.238 OA
HETATM   23  C   UNL     1       3.258  35.868  62.696  1.00  0.00     0.045 C 
BRANCH  20  24
HETATM   24  O   UNL     1       4.655  34.767  67.076  1.00  0.00    -0.304 OA
BRANCH  24  25
HETATM   25  C   UNL     1       5.928  34.545  67.697  1.00  0.00     0.176 C 
HETATM   26  C   UNL     1       5.844  34.869  69.175  1.00  0.00     0.034 C 
ENDBRANCH  24  25
ENDBRANCH  20  24
ENDBRANCH  13  16
ENDBRANCH   1  12
BRANCH   2  27
HETATM   27  C   UNL     1       4.363  34.239  57.556  1.00  0.00     0.006 A 
HETATM   28  S   UNL     1       2.882  34.659  58.314  1.00  0.00    -0.104 SA
HETATM   29  C   UNL     1       2.521  35.844  57.142  1.00  0.00     0.050 A 
HETATM   30  C   UNL     1       3.514  35.950  56.196  1.00  0.00     0.008 A 
HETATM   31  C   UNL     1       4.575  35.035  56.440  1.00  0.00     0.017 A 
ENDBRANCH   2  27
BRANCH   3  32
HETATM   32  C   UNL     1       3.522  31.410  57.497  1.00  0.00     0.153 C 
BRANCH  32  33
HETATM   33  C   UNL     1       3.229  31.324  56.001  1.00  0.00     0.187 C 
BRANCH  33  34
HETATM   34  O   UNL     1       1.929  31.873  55.757  1.00  0.00    -0.394 OA
HETATM   35  C   UNL     1       1.957  32.870  54.747  1.00  0.00     0.201 C 
ENDBRANCH  33  34
ENDBRANCH  32  33
ENDBRANCH   3  32
TORSDOF 8
ENDMDL
MODEL 7
REMARK VINA RESULT:      -6.2      5.431     10.482
REMARK  8 active torsions:
REMARK  status: ('A' for Active; 'I' for Inactive)
REMARK    1  A    between atoms: C_2  and  O_3 
REMARK    2  A    between atoms: O_3  and  C_4 
REMARK       I    between atoms: C_4  and  N_5 
REMARK    3  A    between atoms: C_8  and  N_9 
REMARK       I    between atoms: N_9  and  C_10 
REMARK    4  A    between atoms: C_10  and  C_11 
REMARK    5  A    between atoms: C_12  and  C_13 
REMARK    6  A    between atoms: N_18  and  C_19 
REMARK    7  A    between atoms: C_19  and  C_20 
REMARK    8  A    between atoms: C_20  and  O_21 
ROOT
HETATM    1  C   UNL     1       5.750  32.441  58.428  1.00  0.00     0.139 C 
HETATM    2  C   UNL     1       5.023  32.601  57.077  1.00  0.00     0.145 C 
HETATM    3  N   UNL     1       4.318  31.375  56.681  1.00  0.00    -0.335 N 
HETATM    4  C   UNL     1       5.012  30.165  56.724  1.00  0.00     0.255 C 
HETATM    5  O   UNL     1       4.583  29.122  56.241  1.00  0.00    -0.267 OA
HETATM    6  C   UNL     1       6.324  30.170  57.448  1.00  0.00     0.039 A 
HETATM    7  C   UNL     1       6.682  31.243  58.291  1.00  0.00    -0.027 A 
HETATM    8  C   UNL     1       7.177  29.069  57.315  1.00  0.00     0.017 A 
HETATM    9  C   UNL     1       8.389  29.036  58.006  1.00  0.00     0.001 A 
HETATM   10  C   UNL     1       8.746  30.095  58.840  1.00  0.00     0.001 A 
HETATM   11  C   UNL     1       7.899  31.194  58.987  1.00  0.00     0.009 A 
ENDROOT
BRANCH   1  12
HETATM   12  C   UNL     1       4.793  32.251  59.613  1.00  0.00     0.229 C 
HETATM   13  N   UNL     1       5.155  32.961  60.746  1.00  0.00    -0.356 N 
HETATM   14  H   UNL     1       5.899  33.635  60.620  1.00  0.00     0.162 HD
HETATM   15  O   UNL     1       3.820  31.506  59.573  1.00  0.00    -0.273 OA
BRANCH  13  16
HETATM   16  C   UNL     1       4.271  33.238  61.887  1.00  0.00     0.087 C 
HETATM   17  C   UNL     1       4.888  33.877  63.137  1.00  0.00     0.045 C 
HETATM   18  C   UNL     1       5.326  35.312  62.886  1.00  0.00     0.130 C 
HETATM   19  N   UNL     1       4.223  36.110  62.351  1.00  0.00    -0.328 N 
HETATM   20  C   UNL     1       4.110  37.470  62.606  1.00  0.00     0.362 C 
HETATM   21  C   UNL     1       3.527  35.559  61.197  1.00  0.00     0.130 C 
HETATM   22  O   UNL     1       3.357  38.218  61.994  1.00  0.00    -0.238 OA
HETATM   23  C   UNL     1       3.095  34.111  61.421  1.00  0.00     0.045 C 
BRANCH  20  24
HETATM   24  O   UNL     1       4.920  37.878  63.620  1.00  0.00    -0.304 OA
BRANCH  24  25
HETATM   25  C   UNL     1       5.710  39.049  63.376  1.00  0.00     0.176 C 
HETATM   26  C   UNL     1       6.692  38.782  62.253  1.00  0.00     0.034 C 
ENDBRANCH  24  25
ENDBRANCH  20  24
ENDBRANCH  13  16
ENDBRANCH   1  12
BRANCH   2  27
HETATM   27  C   UNL     1       4.266  33.894  56.831  1.00  0.00     0.006 A 
HETATM   28  S   UNL     1       4.505  34.880  55.447  1.00  0.00    -0.104 SA
HETATM   29  C   UNL     1       3.337  36.015  55.952  1.00  0.00     0.050 A 
HETATM   30  C   UNL     1       2.746  35.653  57.139  1.00  0.00     0.008 A 
HETATM   31  C   UNL     1       3.274  34.429  57.639  1.00  0.00     0.017 A 
ENDBRANCH   2  27
BRANCH   3  32
HETATM   32  C   UNL     1       2.861  31.315  56.536  1.00  0.00     0.153 C 
BRANCH  32  33
HETATM   33  C   UNL     1       2.363  31.721  55.151  1.00  0.00     0.187 C 
BRANCH  33  34
HETATM   34  O   UNL     1       1.235  32.587  55.306  1.00  0.00    -0.394 OA
HETATM   35  C   UNL     1       1.100  33.481  54.211  1.00  0.00     0.201 C 
ENDBRANCH  33  34
ENDBRANCH  32  33
ENDBRANCH   3  32
TORSDOF 8
ENDMDL
MODEL 8
REMARK VINA RESULT:      -6.0      3.449      8.622
REMARK  8 active torsions:
REMARK  status: ('A' for Active; 'I' for Inactive)
REMARK    1  A    between atoms: C_2  and  O_3 
REMARK    2  A    between atoms: O_3  and  C_4 
REMARK       I    between atoms: C_4  and  N_5 
REMARK    3  A    between atoms: C_8  and  N_9 
REMARK       I    between atoms: N_9  and  C_10 
REMARK    4  A    between atoms: C_10  and  C_11 
REMARK    5  A    between atoms: C_12  and  C_13 
REMARK    6  A    between atoms: N_18  and  C_19 
REMARK    7  A    between atoms: C_19  and  C_20 
REMARK    8  A    between atoms: C_20  and  O_21 
ROOT
HETATM    1  C   UNL     1       4.360  28.745  48.976  1.00  0.00     0.139 C 
HETATM    2  C   UNL     1       4.041  30.044  48.207  1.00  0.00     0.145 C 
HETATM    3  N   UNL     1       2.596  30.287  48.112  1.00  0.00    -0.335 N 
HETATM    4  C   UNL     1       1.774  29.246  47.679  1.00  0.00     0.255 C 
HETATM    5  O   UNL     1       0.592  29.397  47.385  1.00  0.00    -0.267 OA
HETATM    6  C   UNL     1       2.389  27.882  47.628  1.00  0.00     0.039 A 
HETATM    7  C   UNL     1       3.619  27.617  48.269  1.00  0.00    -0.027 A 
HETATM    8  C   UNL     1       1.705  26.851  46.974  1.00  0.00     0.017 A 
HETATM    9  C   UNL     1       2.243  25.564  46.943  1.00  0.00     0.001 A 
HETATM   10  C   UNL     1       3.458  25.299  47.574  1.00  0.00     0.001 A 
HETATM   11  C   UNL     1       4.144  26.317  48.238  1.00  0.00     0.009 A 
ENDROOT
BRANCH   1  12
HETATM   12  C   UNL     1       3.969  28.806  50.458  1.00  0.00     0.229 C 
HETATM   13  N   UNL     1       4.963  28.371  51.320  1.00  0.00    -0.356 N 
HETATM   14  H   UNL     1       5.871  28.218  50.899  1.00  0.00     0.162 HD
HETATM   15  O   UNL     1       2.862  29.167  50.843  1.00  0.00    -0.273 OA
BRANCH  13  16
HETATM   16  C   UNL     1       5.000  28.631  52.766  1.00  0.00     0.087 C 
HETATM   17  C   UNL     1       4.261  27.655  53.691  1.00  0.00     0.045 C 
HETATM   18  C   UNL     1       4.927  26.288  53.728  1.00  0.00     0.130 C 
HETATM   19  N   UNL     1       6.343  26.406  54.076  1.00  0.00    -0.328 N 
HETATM   20  C   UNL     1       7.014  25.407  54.768  1.00  0.00     0.362 C 
HETATM   21  C   UNL     1       7.125  27.355  53.295  1.00  0.00     0.130 C 
HETATM   22  O   UNL     1       8.235  25.349  54.868  1.00  0.00    -0.238 OA
HETATM   23  C   UNL     1       6.461  28.730  53.229  1.00  0.00     0.045 C 
BRANCH  20  24
HETATM   24  O   UNL     1       6.166  24.508  55.334  1.00  0.00    -0.304 OA
BRANCH  24  25
HETATM   25  C   UNL     1       6.095  24.509  56.766  1.00  0.00     0.176 C 
HETATM   26  C   UNL     1       4.976  25.421  57.226  1.00  0.00     0.034 C 
ENDBRANCH  24  25
ENDBRANCH  20  24
ENDBRANCH  13  16
ENDBRANCH   1  12
BRANCH   2  27
HETATM   27  C   UNL     1       4.888  31.268  48.507  1.00  0.00     0.006 A 
HETATM   28  S   UNL     1       5.320  32.431  47.322  1.00  0.00    -0.104 SA
HETATM   29  C   UNL     1       6.189  33.375  48.445  1.00  0.00     0.050 A 
HETATM   30  C   UNL     1       6.139  32.843  49.712  1.00  0.00     0.008 A 
HETATM   31  C   UNL     1       5.384  31.637  49.748  1.00  0.00     0.017 A 
ENDBRANCH   2  27
BRANCH   3  32
HETATM   32  C   UNL     1       1.950  31.451  48.726  1.00  0.00     0.153 C 
BRANCH  32  33
HETATM   33  C   UNL     1       1.599  32.555  47.732  1.00  0.00     0.187 C 
BRANCH  33  34
HETATM   34  O   UNL     1       1.823  33.822  48.359  1.00  0.00    -0.394 OA
HETATM   35  C   UNL     1       2.281  33.677  49.695  1.00  0.00     0.201 C 
ENDBRANCH  33  34
ENDBRANCH  32  33
ENDBRANCH   3  32
TORSDOF 8
ENDMDL
MODEL 9
REMARK VINA RESULT:      -5.9      5.068      9.213
REMARK  8 active torsions:
REMARK  status: ('A' for Active; 'I' for Inactive)
REMARK    1  A    between atoms: C_2  and  O_3 
REMARK    2  A    between atoms: O_3  and  C_4 
REMARK       I    between atoms: C_4  and  N_5 
REMARK    3  A    between atoms: C_8  and  N_9 
REMARK       I    between atoms: N_9  and  C_10 
REMARK    4  A    between atoms: C_10  and  C_11 
REMARK    5  A    between atoms: C_12  and  C_13 
REMARK    6  A    between atoms: N_18  and  C_19 
REMARK    7  A    between atoms: C_19  and  C_20 
REMARK    8  A    between atoms: C_20  and  O_21 
ROOT
HETATM    1  C   UNL     1       3.574  30.162  46.728  1.00  0.00     0.139 C 
HETATM    2  C   UNL     1       4.056  29.183  47.819  1.00  0.00     0.145 C 
HETATM    3  N   UNL     1       4.115  29.818  49.143  1.00  0.00    -0.335 N 
HETATM    4  C   UNL     1       4.766  31.046  49.263  1.00  0.00     0.255 C 
HETATM    5  O   UNL     1       5.034  31.565  50.342  1.00  0.00    -0.267 OA
HETATM    6  C   UNL     1       5.095  31.759  47.988  1.00  0.00     0.039 A 
HETATM    7  C   UNL     1       4.510  31.363  46.765  1.00  0.00    -0.027 A 
HETATM    8  C   UNL     1       5.958  32.859  48.027  1.00  0.00     0.017 A 
HETATM    9  C   UNL     1       6.252  33.560  46.856  1.00  0.00     0.001 A 
HETATM   10  C   UNL     1       5.677  33.171  45.647  1.00  0.00     0.001 A 
HETATM   11  C   UNL     1       4.807  32.081  45.597  1.00  0.00     0.009 A 
ENDROOT
BRANCH   1  12
HETATM   12  C   UNL     1       2.116  30.604  46.912  1.00  0.00     0.229 C 
HETATM   13  N   UNL     1       1.250  30.092  45.960  1.00  0.00    -0.356 N 
HETATM   14  H   UNL     1       1.634  29.373  45.360  1.00  0.00     0.162 HD
HETATM   15  O   UNL     1       1.758  31.374  47.797  1.00  0.00    -0.273 OA
BRANCH  13  16
HETATM   16  C   UNL     1      -0.215  30.065  46.079  1.00  0.00     0.087 C 
HETATM   17  C   UNL     1      -1.035  30.855  45.050  1.00  0.00     0.045 C 
HETATM   18  C   UNL     1      -0.947  30.243  43.660  1.00  0.00     0.130 C 
HETATM   19  N   UNL     1      -1.318  28.828  43.687  1.00  0.00    -0.328 N 
HETATM   20  C   UNL     1      -1.919  28.207  42.600  1.00  0.00     0.362 C 
HETATM   21  C   UNL     1      -0.640  28.000  44.674  1.00  0.00     0.130 C 
HETATM   22  O   UNL     1      -2.025  26.991  42.484  1.00  0.00    -0.238 OA
HETATM   23  C   UNL     1      -0.700  28.608  46.075  1.00  0.00     0.045 C 
BRANCH  20  24
HETATM   24  O   UNL     1      -2.387  29.098  41.686  1.00  0.00    -0.304 OA
BRANCH  24  25
HETATM   25  C   UNL     1      -3.808  29.134  41.498  1.00  0.00     0.176 C 
HETATM   26  C   UNL     1      -4.357  30.463  41.977  1.00  0.00     0.034 C 
ENDBRANCH  24  25
ENDBRANCH  20  24
ENDBRANCH  13  16
ENDBRANCH   1  12
BRANCH   2  27
HETATM   27  C   UNL     1       3.497  27.772  47.799  1.00  0.00     0.006 A 
HETATM   28  S   UNL     1       4.450  26.374  48.086  1.00  0.00    -0.104 SA
HETATM   29  C   UNL     1       3.119  25.325  47.893  1.00  0.00     0.050 A 
HETATM   30  C   UNL     1       1.955  26.013  47.640  1.00  0.00     0.008 A 
HETATM   31  C   UNL     1       2.171  27.418  47.596  1.00  0.00     0.017 A 
ENDBRANCH   2  27
BRANCH   3  32
HETATM   32  C   UNL     1       3.277  29.381  50.263  1.00  0.00     0.153 C 
BRANCH  32  33
HETATM   33  C   UNL     1       4.022  28.541  51.298  1.00  0.00     0.187 C 
BRANCH  33  34
HETATM   34  O   UNL     1       3.209  28.433  52.471  1.00  0.00    -0.394 OA
HETATM   35  C   UNL     1       3.971  28.591  53.658  1.00  0.00     0.201 C 
ENDBRANCH  33  34
ENDBRANCH  32  33
ENDBRANCH   3  32
TORSDOF 8
ENDMDL
MODEL 10
REMARK VINA RESULT:      -5.6      3.744      9.326
REMARK  8 active torsions:
REMARK  status: ('A' for Active; 'I' for Inactive)
REMARK    1  A    between atoms: C_2  and  O_3 
REMARK    2  A    between atoms: O_3  and  C_4 
REMARK       I    between atoms: C_4  and  N_5 
REMARK    3  A    between atoms: C_8  and  N_9 
REMARK       I    between atoms: N_9  and  C_10 
REMARK    4  A    between atoms: C_10  and  C_11 
REMARK    5  A    between atoms: C_12  and  C_13 
REMARK    6  A    between atoms: N_18  and  C_19 
REMARK    7  A    between atoms: C_19  and  C_20 
REMARK    8  A    between atoms: C_20  and  O_21 
ROOT
HETATM    1  C   UNL     1       1.673  29.876  49.481  1.00  0.00     0.139 C 
HETATM    2  C   UNL     1       2.078  29.448  48.055  1.00  0.00     0.145 C 
HETATM    3  N   UNL     1       2.650  30.562  47.287  1.00  0.00    -0.335 N 
HETATM    4  C   UNL     1       1.960  31.774  47.259  1.00  0.00     0.255 C 
HETATM    5  O   UNL     1       2.248  32.698  46.504  1.00  0.00    -0.267 OA
HETATM    6  C   UNL     1       0.848  31.936  48.248  1.00  0.00     0.039 A 
HETATM    7  C   UNL     1       0.711  31.048  49.337  1.00  0.00    -0.027 A 
HETATM    8  C   UNL     1      -0.035  33.013  48.108  1.00  0.00     0.017 A 
HETATM    9  C   UNL     1      -1.059  33.203  49.038  1.00  0.00     0.001 A 
HETATM   10  C   UNL     1      -1.197  32.328  50.114  1.00  0.00     0.001 A 
HETATM   11  C   UNL     1      -0.317  31.256  50.269  1.00  0.00     0.009 A 
ENDROOT
BRANCH   1  12
HETATM   12  C   UNL     1       2.870  30.261  50.361  1.00  0.00     0.229 C 
HETATM   13  N   UNL     1       3.414  29.199  51.066  1.00  0.00    -0.356 N 
HETATM   14  H   UNL     1       3.074  28.282  50.806  1.00  0.00     0.162 HD
HETATM   15  O   UNL     1       3.282  31.412  50.463  1.00  0.00    -0.273 OA
BRANCH  13  16
HETATM   16  C   UNL     1       4.739  29.198  51.702  1.00  0.00     0.087 C 
HETATM   17  C   UNL     1       4.807  28.997  53.221  1.00  0.00     0.045 C 
HETATM   18  C   UNL     1       4.402  27.588  53.628  1.00  0.00     0.130 C 
HETATM   19  N   UNL     1       5.189  26.588  52.907  1.00  0.00    -0.328 N 
HETATM   20  C   UNL     1       5.499  25.356  53.466  1.00  0.00     0.362 C 
HETATM   21  C   UNL     1       5.241  26.727  51.458  1.00  0.00     0.130 C 
HETATM   22  O   UNL     1       5.938  24.408  52.825  1.00  0.00    -0.238 OA
HETATM   23  C   UNL     1       5.627  28.141  51.028  1.00  0.00     0.045 C 
BRANCH  20  24
HETATM   24  O   UNL     1       5.273  25.321  54.806  1.00  0.00    -0.304 OA
BRANCH  24  25
HETATM   25  C   UNL     1       6.346  24.834  55.623  1.00  0.00     0.176 C 
HETATM   26  C   UNL     1       7.326  25.954  55.909  1.00  0.00     0.034 C 
ENDBRANCH  24  25
ENDBRANCH  20  24
ENDBRANCH  13  16
ENDBRANCH   1  12
BRANCH   2  27
HETATM   27  C   UNL     1       2.784  28.115  47.891  1.00  0.00     0.006 A 
HETATM   28  S   UNL     1       1.956  26.628  47.669  1.00  0.00    -0.104 SA
HETATM   29  C   UNL     1       3.407  25.738  47.576  1.00  0.00     0.050 A 
HETATM   30  C   UNL     1       4.515  26.546  47.683  1.00  0.00     0.008 A 
HETATM   31  C   UNL     1       4.156  27.912  47.855  1.00  0.00     0.017 A 
ENDBRANCH   2  27
BRANCH   3  32
HETATM   32  C   UNL     1       4.035  30.558  46.808  1.00  0.00     0.153 C 
BRANCH  32  33
HETATM   33  C   UNL     1       4.961  31.483  47.595  1.00  0.00     0.187 C 
BRANCH  33  34
HETATM   34  O   UNL     1       5.552  32.419  46.688  1.00  0.00    -0.394 OA
HETATM   35  C   UNL     1       5.585  33.731  47.230  1.00  0.00     0.201 C 
ENDBRANCH  33  34
ENDBRANCH  32  33
ENDBRANCH   3  32
TORSDOF 8
ENDMDL
