MODEL 1
REMARK VINA RESULT:      -8.9      0.000      0.000
REMARK  8 active torsions:
REMARK  status: ('A' for Active; 'I' for Inactive)
REMARK    1  A    between atoms: C_3  and  N_4 
REMARK       I    between atoms: N_4  and  C_5 
REMARK       I    between atoms: C_5  and  N_6 
REMARK       I    between atoms: N_6  and  C_7 
REMARK    2  A    between atoms: C_7  and  C_8 
REMARK    3  A    between atoms: C_8  and  N_9 
REMARK    4  A    between atoms: N_9  and  C_11 
REMARK    5  A    between atoms: N_9  and  C_17 
REMARK    6  A    between atoms: C_11  and  C_12 
REMARK    7  A    between atoms: C_17  and  C_18 
REMARK    8  A    between atoms: C_19  and  O_20 
ROOT
HETATM    1  N   UNL     1       7.189  24.846  54.890  1.00  0.00    -0.053 N 
HETATM    2  H   UNL     1       7.393  25.821  54.626  1.00  0.00     0.281 HD
ENDROOT
BRANCH   1   3
HETATM    3  C   UNL     1       7.023  24.907  56.407  1.00  0.00     0.338 C 
BRANCH   3   4
HETATM    4  C   UNL     1       7.586  26.187  57.023  1.00  0.00     0.251 C 
HETATM    5  N   UNL     1       7.753  27.225  56.130  1.00  0.00    -0.278 N 
HETATM    6  C   UNL     1       7.884  28.561  56.406  1.00  0.00     0.323 C 
HETATM    7  H   UNL     1       7.463  27.110  55.167  1.00  0.00     0.173 HD
HETATM    8  N   UNL     1       8.172  28.891  57.692  1.00  0.00    -0.338 N 
HETATM    9  O   UNL     1       7.690  29.359  55.496  1.00  0.00    -0.247 OA
HETATM   10  H   UNL     1       8.403  28.133  58.327  1.00  0.00     0.164 HD
HETATM   11  O   UNL     1       7.887  26.220  58.217  1.00  0.00    -0.271 OA
BRANCH   8  12
HETATM   12  C   UNL     1       8.388  30.254  58.176  1.00  0.00     0.089 C 
HETATM   13  C   UNL     1       9.853  30.544  58.581  1.00  0.00     0.004 C 
HETATM   14  C   UNL     1      10.826  30.290  57.424  1.00  0.00     0.012 C 
HETATM   15  C   UNL     1      10.003  31.993  59.075  1.00  0.00     0.006 C 
HETATM   16  C   UNL     1       9.023  32.318  60.199  1.00  0.00     0.001 C 
HETATM   17  C   UNL     1       7.582  32.043  59.782  1.00  0.00     0.002 C 
HETATM   18  C   UNL     1       7.406  30.605  59.304  1.00  0.00     0.026 C 
ENDBRANCH   8  12
ENDBRANCH   3   4
ENDBRANCH   1   3
BRANCH   1  19
HETATM   19  C   UNL     1       8.390  24.059  54.411  1.00  0.00     0.300 C 
BRANCH  19  20
HETATM   20  C   UNL     1       8.126  22.627  54.116  1.00  0.00     0.078 A 
HETATM   21  O   UNL     1       8.039  21.788  55.190  1.00  0.00    -0.325 OA
HETATM   22  C   UNL     1       7.817  20.539  54.705  1.00  0.00     0.142 A 
HETATM   23  C   UNL     1       7.754  20.564  53.332  1.00  0.00     0.027 A 
HETATM   24  C   UNL     1       7.957  21.912  52.949  1.00  0.00     0.036 A 
ENDBRANCH  19  20
ENDBRANCH   1  19
BRANCH   1  25
HETATM   25  C   UNL     1       5.906  24.465  54.195  1.00  0.00     0.277 C 
BRANCH  25  26
HETATM   26  C   UNL     1       5.490  25.472  53.160  1.00  0.00     0.001 A 
HETATM   27  C   UNL     1       4.957  26.711  53.534  1.00  0.00     0.073 A 
HETATM   28  C   UNL     1       4.562  27.646  52.579  1.00  0.00     0.037 A 
HETATM   29  C   UNL     1       4.706  27.348  51.226  1.00  0.00     0.003 A 
HETATM   30  C   UNL     1       5.245  26.124  50.833  1.00  0.00     0.001 A 
HETATM   31  C   UNL     1       5.639  25.191  51.794  1.00  0.00     0.011 A 
BRANCH  27  32
HETATM   32  O   UNL     1       4.833  26.994  54.865  1.00  0.00    -0.360 OA
HETATM   33  H   UNL     1       4.158  26.395  55.241  1.00  0.00     0.217 HD
ENDBRANCH  27  32
ENDBRANCH  25  26
ENDBRANCH   1  25
TORSDOF 8
ENDMDL
MODEL 2
REMARK VINA RESULT:      -8.7      1.380      4.742
REMARK  8 active torsions:
REMARK  status: ('A' for Active; 'I' for Inactive)
REMARK    1  A    between atoms: C_3  and  N_4 
REMARK       I    between atoms: N_4  and  C_5 
REMARK       I    between atoms: C_5  and  N_6 
REMARK       I    between atoms: N_6  and  C_7 
REMARK    2  A    between atoms: C_7  and  C_8 
REMARK    3  A    between atoms: C_8  and  N_9 
REMARK    4  A    between atoms: N_9  and  C_11 
REMARK    5  A    between atoms: N_9  and  C_17 
REMARK    6  A    between atoms: C_11  and  C_12 
REMARK    7  A    between atoms: C_17  and  C_18 
REMARK    8  A    between atoms: C_19  and  O_20 
ROOT
HETATM    1  N   UNL     1       7.187  25.072  53.528  1.00  0.00    -0.053 N 
HETATM    2  H   UNL     1       7.204  24.944  54.549  1.00  0.00     0.281 HD
ENDROOT
BRANCH   1   3
HETATM    3  C   UNL     1       7.803  26.455  53.324  1.00  0.00     0.338 C 
BRANCH   3   4
HETATM    4  C   UNL     1       7.513  27.418  54.474  1.00  0.00     0.251 C 
HETATM    5  N   UNL     1       7.545  26.838  55.725  1.00  0.00    -0.278 N 
HETATM    6  C   UNL     1       7.686  27.460  56.939  1.00  0.00     0.323 C 
HETATM    7  H   UNL     1       7.795  25.862  55.821  1.00  0.00     0.173 HD
HETATM    8  N   UNL     1       7.484  28.804  56.961  1.00  0.00    -0.338 N 
HETATM    9  O   UNL     1       8.024  26.779  57.900  1.00  0.00    -0.247 OA
HETATM   10  H   UNL     1       7.115  29.233  56.117  1.00  0.00     0.164 HD
HETATM   11  O   UNL     1       7.239  28.596  54.242  1.00  0.00    -0.271 OA
BRANCH   8  12
HETATM   12  C   UNL     1       7.550  29.639  58.160  1.00  0.00     0.089 C 
HETATM   13  C   UNL     1       6.649  30.895  58.091  1.00  0.00     0.004 C 
HETATM   14  C   UNL     1       5.180  30.530  57.845  1.00  0.00     0.012 C 
HETATM   15  C   UNL     1       6.768  31.719  59.384  1.00  0.00     0.006 C 
HETATM   16  C   UNL     1       8.218  32.071  59.706  1.00  0.00     0.001 C 
HETATM   17  C   UNL     1       9.092  30.825  59.786  1.00  0.00     0.002 C 
HETATM   18  C   UNL     1       9.002  30.000  58.506  1.00  0.00     0.026 C 
ENDBRANCH   8  12
ENDBRANCH   3   4
ENDBRANCH   1   3
BRANCH   1  19
HETATM   19  C   UNL     1       5.725  24.963  53.150  1.00  0.00     0.300 C 
BRANCH  19  20
HETATM   20  C   UNL     1       5.260  25.953  52.146  1.00  0.00     0.078 A 
HETATM   21  O   UNL     1       4.616  27.056  52.629  1.00  0.00    -0.325 OA
HETATM   22  C   UNL     1       4.261  27.813  51.558  1.00  0.00     0.142 A 
HETATM   23  C   UNL     1       4.674  27.214  50.392  1.00  0.00     0.027 A 
HETATM   24  C   UNL     1       5.317  26.010  50.769  1.00  0.00     0.036 A 
ENDBRANCH  19  20
ENDBRANCH   1  19
BRANCH   1  25
HETATM   25  C   UNL     1       8.043  23.979  52.937  1.00  0.00     0.277 C 
BRANCH  25  26
HETATM   26  C   UNL     1       8.091  22.753  53.803  1.00  0.00     0.001 A 
HETATM   27  C   UNL     1       8.402  22.845  55.165  1.00  0.00     0.073 A 
HETATM   28  C   UNL     1       8.455  21.711  55.972  1.00  0.00     0.037 A 
HETATM   29  C   UNL     1       8.188  20.461  55.419  1.00  0.00     0.003 A 
HETATM   30  C   UNL     1       7.866  20.349  54.067  1.00  0.00     0.001 A 
HETATM   31  C   UNL     1       7.814  21.489  53.263  1.00  0.00     0.011 A 
BRANCH  27  32
HETATM   32  O   UNL     1       8.649  24.079  55.697  1.00  0.00    -0.360 OA
HETATM   33  H   UNL     1       8.613  24.002  56.671  1.00  0.00     0.217 HD
ENDBRANCH  27  32
ENDBRANCH  25  26
ENDBRANCH   1  25
TORSDOF 8
ENDMDL
MODEL 3
REMARK VINA RESULT:      -8.7      2.219      8.733
REMARK  8 active torsions:
REMARK  status: ('A' for Active; 'I' for Inactive)
REMARK    1  A    between atoms: C_3  and  N_4 
REMARK       I    between atoms: N_4  and  C_5 
REMARK       I    between atoms: C_5  and  N_6 
REMARK       I    between atoms: N_6  and  C_7 
REMARK    2  A    between atoms: C_7  and  C_8 
REMARK    3  A    between atoms: C_8  and  N_9 
REMARK    4  A    between atoms: N_9  and  C_11 
REMARK    5  A    between atoms: N_9  and  C_17 
REMARK    6  A    between atoms: C_11  and  C_12 
REMARK    7  A    between atoms: C_17  and  C_18 
REMARK    8  A    between atoms: C_19  and  O_20 
ROOT
HETATM    1  N   UNL     1       6.306  29.359  56.867  1.00  0.00    -0.053 N 
HETATM    2  H   UNL     1       7.008  29.163  56.140  1.00  0.00     0.281 HD
ENDROOT
BRANCH   1   3
HETATM    3  C   UNL     1       5.488  28.072  56.940  1.00  0.00     0.338 C 
BRANCH   3   4
HETATM    4  C   UNL     1       6.091  26.930  56.122  1.00  0.00     0.251 C 
HETATM    5  N   UNL     1       7.286  26.446  56.612  1.00  0.00    -0.278 N 
HETATM    6  C   UNL     1       7.881  25.240  56.343  1.00  0.00     0.323 C 
HETATM    7  H   UNL     1       7.664  26.819  57.474  1.00  0.00     0.173 HD
HETATM    8  N   UNL     1       7.411  24.557  55.267  1.00  0.00    -0.338 N 
HETATM    9  O   UNL     1       8.753  24.845  57.109  1.00  0.00    -0.247 OA
HETATM   10  H   UNL     1       6.753  25.037  54.661  1.00  0.00     0.164 HD
HETATM   11  O   UNL     1       5.532  26.540  55.096  1.00  0.00    -0.271 OA
BRANCH   8  12
HETATM   12  C   UNL     1       7.938  23.276  54.797  1.00  0.00     0.089 C 
HETATM   13  C   UNL     1       7.553  22.947  53.334  1.00  0.00     0.004 C 
HETATM   14  C   UNL     1       8.018  24.038  52.363  1.00  0.00     0.012 C 
HETATM   15  C   UNL     1       8.144  21.591  52.911  1.00  0.00     0.006 C 
HETATM   16  C   UNL     1       7.753  20.472  53.872  1.00  0.00     0.001 C 
HETATM   17  C   UNL     1       8.150  20.801  55.306  1.00  0.00     0.002 C 
HETATM   18  C   UNL     1       7.561  22.135  55.754  1.00  0.00     0.026 C 
ENDBRANCH   8  12
ENDBRANCH   3   4
ENDBRANCH   1   3
BRANCH   1  19
HETATM   19  C   UNL     1       5.549  30.567  56.355  1.00  0.00     0.300 C 
BRANCH  19  20
HETATM   20  C   UNL     1       4.995  31.455  57.410  1.00  0.00     0.078 A 
HETATM   21  O   UNL     1       5.683  32.606  57.662  1.00  0.00    -0.325 OA
HETATM   22  C   UNL     1       5.027  33.255  58.659  1.00  0.00     0.142 A 
HETATM   23  C   UNL     1       3.921  32.537  59.048  1.00  0.00     0.027 A 
HETATM   24  C   UNL     1       3.900  31.371  58.245  1.00  0.00     0.036 A 
ENDBRANCH  19  20
ENDBRANCH   1  19
BRANCH   1  25
HETATM   25  C   UNL     1       7.062  29.622  58.146  1.00  0.00     0.277 C 
BRANCH  25  26
HETATM   26  C   UNL     1       8.510  29.941  57.903  1.00  0.00     0.001 A 
HETATM   27  C   UNL     1       9.078  31.125  58.388  1.00  0.00     0.073 A 
HETATM   28  C   UNL     1      10.418  31.431  58.161  1.00  0.00     0.037 A 
HETATM   29  C   UNL     1      11.212  30.540  57.443  1.00  0.00     0.003 A 
HETATM   30  C   UNL     1      10.669  29.350  56.961  1.00  0.00     0.001 A 
HETATM   31  C   UNL     1       9.325  29.049  57.192  1.00  0.00     0.011 A 
BRANCH  27  32
HETATM   32  O   UNL     1       8.289  31.984  59.102  1.00  0.00    -0.360 OA
HETATM   33  H   UNL     1       8.589  31.969  60.032  1.00  0.00     0.217 HD
ENDBRANCH  27  32
ENDBRANCH  25  26
ENDBRANCH   1  25
TORSDOF 8
ENDMDL
MODEL 4
REMARK VINA RESULT:      -8.6      1.205      3.981
REMARK  8 active torsions:
REMARK  status: ('A' for Active; 'I' for Inactive)
REMARK    1  A    between atoms: C_3  and  N_4 
REMARK       I    between atoms: N_4  and  C_5 
REMARK       I    between atoms: C_5  and  N_6 
REMARK       I    between atoms: N_6  and  C_7 
REMARK    2  A    between atoms: C_7  and  C_8 
REMARK    3  A    between atoms: C_8  and  N_9 
REMARK    4  A    between atoms: N_9  and  C_11 
REMARK    5  A    between atoms: N_9  and  C_17 
REMARK    6  A    between atoms: C_11  and  C_12 
REMARK    7  A    between atoms: C_17  and  C_18 
REMARK    8  A    between atoms: C_19  and  O_20 
ROOT
HETATM    1  N   UNL     1       6.079  24.919  55.470  1.00  0.00    -0.053 N 
HETATM    2  H   UNL     1       5.704  23.961  55.431  1.00  0.00     0.281 HD
ENDROOT
BRANCH   1   3
HETATM    3  C   UNL     1       6.246  25.183  56.965  1.00  0.00     0.338 C 
BRANCH   3   4
HETATM    4  C   UNL     1       7.041  26.453  57.267  1.00  0.00     0.251 C 
HETATM    5  N   UNL     1       6.420  27.621  56.875  1.00  0.00    -0.278 N 
HETATM    6  C   UNL     1       6.677  28.897  57.306  1.00  0.00     0.323 C 
HETATM    7  H   UNL     1       5.492  27.586  56.472  1.00  0.00     0.173 HD
HETATM    8  N   UNL     1       7.848  29.091  57.967  1.00  0.00    -0.338 N 
HETATM    9  O   UNL     1       5.823  29.754  57.108  1.00  0.00    -0.247 OA
HETATM   10  H   UNL     1       8.509  28.321  57.980  1.00  0.00     0.164 HD
HETATM   11  O   UNL     1       8.157  26.378  57.783  1.00  0.00    -0.271 OA
BRANCH   8  12
HETATM   12  C   UNL     1       8.318  30.382  58.469  1.00  0.00     0.089 C 
HETATM   13  C   UNL     1       9.861  30.511  58.497  1.00  0.00     0.004 C 
HETATM   14  C   UNL     1      10.477  30.287  57.111  1.00  0.00     0.012 C 
HETATM   15  C   UNL     1      10.279  31.892  59.031  1.00  0.00     0.006 C 
HETATM   16  C   UNL     1       9.654  32.192  60.392  1.00  0.00     0.001 C 
HETATM   17  C   UNL     1       8.135  32.075  60.347  1.00  0.00     0.002 C 
HETATM   18  C   UNL     1       7.696  30.707  59.835  1.00  0.00     0.026 C 
ENDBRANCH   8  12
ENDBRANCH   3   4
ENDBRANCH   1   3
BRANCH   1  19
HETATM   19  C   UNL     1       5.031  25.771  54.786  1.00  0.00     0.300 C 
BRANCH  19  20
HETATM   20  C   UNL     1       5.161  25.863  53.309  1.00  0.00     0.078 A 
HETATM   21  O   UNL     1       5.592  27.057  52.808  1.00  0.00    -0.325 OA
HETATM   22  C   UNL     1       5.623  26.935  51.455  1.00  0.00     0.142 A 
HETATM   23  C   UNL     1       5.222  25.675  51.080  1.00  0.00     0.027 A 
HETATM   24  C   UNL     1       4.919  24.981  52.276  1.00  0.00     0.036 A 
ENDBRANCH  19  20
ENDBRANCH   1  19
BRANCH   1  25
HETATM   25  C   UNL     1       7.403  24.901  54.747  1.00  0.00     0.277 C 
BRANCH  25  26
HETATM   26  C   UNL     1       7.905  23.507  54.499  1.00  0.00     0.001 A 
HETATM   27  C   UNL     1       8.655  22.828  55.467  1.00  0.00     0.073 A 
HETATM   28  C   UNL     1       9.130  21.538  55.241  1.00  0.00     0.037 A 
HETATM   29  C   UNL     1       8.849  20.906  54.031  1.00  0.00     0.003 A 
HETATM   30  C   UNL     1       8.095  21.561  53.059  1.00  0.00     0.001 A 
HETATM   31  C   UNL     1       7.621  22.853  53.291  1.00  0.00     0.011 A 
BRANCH  27  32
HETATM   32  O   UNL     1       8.912  23.456  56.653  1.00  0.00    -0.360 OA
HETATM   33  H   UNL     1       9.802  23.857  56.598  1.00  0.00     0.217 HD
ENDBRANCH  27  32
ENDBRANCH  25  26
ENDBRANCH   1  25
TORSDOF 8
ENDMDL
MODEL 5
REMARK VINA RESULT:      -8.4      2.291      8.374
REMARK  8 active torsions:
REMARK  status: ('A' for Active; 'I' for Inactive)
REMARK    1  A    between atoms: C_3  and  N_4 
REMARK       I    between atoms: N_4  and  C_5 
REMARK       I    between atoms: C_5  and  N_6 
REMARK       I    between atoms: N_6  and  C_7 
REMARK    2  A    between atoms: C_7  and  C_8 
REMARK    3  A    between atoms: C_8  and  N_9 
REMARK    4  A    between atoms: N_9  and  C_11 
REMARK    5  A    between atoms: N_9  and  C_17 
REMARK    6  A    between atoms: C_11  and  C_12 
REMARK    7  A    between atoms: C_17  and  C_18 
REMARK    8  A    between atoms: C_19  and  O_20 
ROOT
HETATM    1  N   UNL     1       5.945  29.605  56.514  1.00  0.00    -0.053 N 
HETATM    2  H   UNL     1       6.494  29.450  55.657  1.00  0.00     0.281 HD
ENDROOT
BRANCH   1   3
HETATM    3  C   UNL     1       4.731  28.696  56.339  1.00  0.00     0.338 C 
BRANCH   3   4
HETATM    4  C   UNL     1       5.105  27.250  56.011  1.00  0.00     0.251 C 
HETATM    5  N   UNL     1       5.869  27.102  54.873  1.00  0.00    -0.278 N 
HETATM    6  C   UNL     1       6.648  26.032  54.514  1.00  0.00     0.323 C 
HETATM    7  H   UNL     1       6.173  27.921  54.362  1.00  0.00     0.173 HD
HETATM    8  N   UNL     1       6.434  24.872  55.188  1.00  0.00    -0.338 N 
HETATM    9  O   UNL     1       7.503  26.205  53.653  1.00  0.00    -0.247 OA
HETATM   10  H   UNL     1       5.633  24.835  55.810  1.00  0.00     0.164 HD
HETATM   11  O   UNL     1       4.695  26.329  56.719  1.00  0.00    -0.271 OA
BRANCH   8  12
HETATM   12  C   UNL     1       7.133  23.614  54.926  1.00  0.00     0.089 C 
HETATM   13  C   UNL     1       8.570  23.572  55.501  1.00  0.00     0.004 C 
HETATM   14  C   UNL     1       8.585  23.818  57.014  1.00  0.00     0.012 C 
HETATM   15  C   UNL     1       9.238  22.222  55.190  1.00  0.00     0.006 C 
HETATM   16  C   UNL     1       9.209  21.900  53.698  1.00  0.00     0.001 C 
HETATM   17  C   UNL     1       7.788  21.930  53.147  1.00  0.00     0.002 C 
HETATM   18  C   UNL     1       7.110  23.267  53.429  1.00  0.00     0.026 C 
ENDBRANCH   8  12
ENDBRANCH   3   4
ENDBRANCH   1   3
BRANCH   1  19
HETATM   19  C   UNL     1       5.637  31.088  56.510  1.00  0.00     0.300 C 
BRANCH  19  20
HETATM   20  C   UNL     1       5.224  31.648  57.822  1.00  0.00     0.078 A 
HETATM   21  O   UNL     1       6.093  32.518  58.415  1.00  0.00    -0.325 OA
HETATM   22  C   UNL     1       5.541  32.892  59.598  1.00  0.00     0.142 A 
HETATM   23  C   UNL     1       4.323  32.277  59.772  1.00  0.00     0.027 A 
HETATM   24  C   UNL     1       4.118  31.469  58.627  1.00  0.00     0.036 A 
ENDBRANCH  19  20
ENDBRANCH   1  19
BRANCH   1  25
HETATM   25  C   UNL     1       6.812  29.176  57.672  1.00  0.00     0.277 C 
BRANCH  25  26
HETATM   26  C   UNL     1       8.236  29.630  57.524  1.00  0.00     0.001 A 
HETATM   27  C   UNL     1       8.972  29.333  56.370  1.00  0.00     0.073 A 
HETATM   28  C   UNL     1      10.295  29.743  56.230  1.00  0.00     0.037 A 
HETATM   29  C   UNL     1      10.900  30.470  57.253  1.00  0.00     0.003 A 
HETATM   30  C   UNL     1      10.182  30.786  58.406  1.00  0.00     0.001 A 
HETATM   31  C   UNL     1       8.856  30.372  58.540  1.00  0.00     0.011 A 
BRANCH  27  32
HETATM   32  O   UNL     1       8.361  28.629  55.370  1.00  0.00    -0.360 OA
HETATM   33  H   UNL     1       8.013  29.270  54.718  1.00  0.00     0.217 HD
ENDBRANCH  27  32
ENDBRANCH  25  26
ENDBRANCH   1  25
TORSDOF 8
ENDMDL
MODEL 6
REMARK VINA RESULT:      -8.4      2.714      5.637
REMARK  8 active torsions:
REMARK  status: ('A' for Active; 'I' for Inactive)
REMARK    1  A    between atoms: C_3  and  N_4 
REMARK       I    between atoms: N_4  and  C_5 
REMARK       I    between atoms: C_5  and  N_6 
REMARK       I    between atoms: N_6  and  C_7 
REMARK    2  A    between atoms: C_7  and  C_8 
REMARK    3  A    between atoms: C_8  and  N_9 
REMARK    4  A    between atoms: N_9  and  C_11 
REMARK    5  A    between atoms: N_9  and  C_17 
REMARK    6  A    between atoms: C_11  and  C_12 
REMARK    7  A    between atoms: C_17  and  C_18 
REMARK    8  A    between atoms: C_19  and  O_20 
ROOT
HETATM    1  N   UNL     1       5.637  27.670  56.521  1.00  0.00    -0.053 N 
HETATM    2  H   UNL     1       5.169  28.282  57.205  1.00  0.00     0.281 HD
ENDROOT
BRANCH   1   3
HETATM    3  C   UNL     1       7.081  28.167  56.517  1.00  0.00     0.338 C 
BRANCH   3   4
HETATM    4  C   UNL     1       7.403  29.090  57.692  1.00  0.00     0.251 C 
HETATM    5  N   UNL     1       7.012  30.400  57.512  1.00  0.00    -0.278 N 
HETATM    6  C   UNL     1       6.827  31.363  58.470  1.00  0.00     0.323 C 
HETATM    7  H   UNL     1       6.510  30.664  56.674  1.00  0.00     0.173 HD
HETATM    8  N   UNL     1       7.354  31.110  59.697  1.00  0.00    -0.338 N 
HETATM    9  O   UNL     1       6.168  32.353  58.172  1.00  0.00    -0.247 OA
HETATM   10  H   UNL     1       7.958  30.299  59.786  1.00  0.00     0.164 HD
HETATM   11  O   UNL     1       8.001  28.654  58.676  1.00  0.00    -0.271 OA
BRANCH   8  12
HETATM   12  C   UNL     1       7.297  32.027  60.835  1.00  0.00     0.089 C 
HETATM   13  C   UNL     1       8.285  31.667  61.971  1.00  0.00     0.004 C 
HETATM   14  C   UNL     1       9.734  31.619  61.471  1.00  0.00     0.012 C 
HETATM   15  C   UNL     1       8.170  32.674  63.128  1.00  0.00     0.006 C 
HETATM   16  C   UNL     1       6.736  32.800  63.636  1.00  0.00     0.001 C 
HETATM   17  C   UNL     1       5.775  33.168  62.511  1.00  0.00     0.002 C 
HETATM   18  C   UNL     1       5.860  32.173  61.358  1.00  0.00     0.026 C 
ENDBRANCH   8  12
ENDBRANCH   3   4
ENDBRANCH   1   3
BRANCH   1  19
HETATM   19  C   UNL     1       4.883  27.894  55.227  1.00  0.00     0.300 C 
BRANCH  19  20
HETATM   20  C   UNL     1       4.236  29.225  55.098  1.00  0.00     0.078 A 
HETATM   21  O   UNL     1       4.130  29.965  56.240  1.00  0.00    -0.325 OA
HETATM   22  C   UNL     1       3.500  31.122  55.910  1.00  0.00     0.142 A 
HETATM   23  C   UNL     1       3.203  31.138  54.568  1.00  0.00     0.027 A 
HETATM   24  C   UNL     1       3.674  29.911  54.041  1.00  0.00     0.036 A 
ENDBRANCH  19  20
ENDBRANCH   1  19
BRANCH   1  25
HETATM   25  C   UNL     1       5.524  26.261  57.046  1.00  0.00     0.277 C 
BRANCH  25  26
HETATM   26  C   UNL     1       6.601  25.360  56.510  1.00  0.00     0.001 A 
HETATM   27  C   UNL     1       7.736  25.061  57.273  1.00  0.00     0.073 A 
HETATM   28  C   UNL     1       8.741  24.232  56.780  1.00  0.00     0.037 A 
HETATM   29  C   UNL     1       8.614  23.683  55.506  1.00  0.00     0.003 A 
HETATM   30  C   UNL     1       7.486  23.958  54.735  1.00  0.00     0.001 A 
HETATM   31  C   UNL     1       6.482  24.790  55.234  1.00  0.00     0.011 A 
BRANCH  27  32
HETATM   32  O   UNL     1       7.841  25.598  58.525  1.00  0.00    -0.360 OA
HETATM   33  H   UNL     1       8.151  24.895  59.131  1.00  0.00     0.217 HD
ENDBRANCH  27  32
ENDBRANCH  25  26
ENDBRANCH   1  25
TORSDOF 8
ENDMDL
MODEL 7
REMARK VINA RESULT:      -8.4      1.352      4.467
REMARK  8 active torsions:
REMARK  status: ('A' for Active; 'I' for Inactive)
REMARK    1  A    between atoms: C_3  and  N_4 
REMARK       I    between atoms: N_4  and  C_5 
REMARK       I    between atoms: C_5  and  N_6 
REMARK       I    between atoms: N_6  and  C_7 
REMARK    2  A    between atoms: C_7  and  C_8 
REMARK    3  A    between atoms: C_8  and  N_9 
REMARK    4  A    between atoms: N_9  and  C_11 
REMARK    5  A    between atoms: N_9  and  C_17 
REMARK    6  A    between atoms: C_11  and  C_12 
REMARK    7  A    between atoms: C_17  and  C_18 
REMARK    8  A    between atoms: C_19  and  O_20 
ROOT
HETATM    1  N   UNL     1       6.589  25.093  53.966  1.00  0.00    -0.053 N 
HETATM    2  H   UNL     1       6.118  24.308  53.495  1.00  0.00     0.281 HD
ENDROOT
BRANCH   1   3
HETATM    3  C   UNL     1       5.470  25.767  54.756  1.00  0.00     0.338 C 
BRANCH   3   4
HETATM    4  C   UNL     1       5.900  27.081  55.407  1.00  0.00     0.251 C 
HETATM    5  N   UNL     1       6.486  26.939  56.647  1.00  0.00    -0.278 N 
HETATM    6  C   UNL     1       7.280  27.837  57.312  1.00  0.00     0.323 C 
HETATM    7  H   UNL     1       6.641  26.013  57.026  1.00  0.00     0.173 HD
HETATM    8  N   UNL     1       7.266  29.116  56.854  1.00  0.00    -0.338 N 
HETATM    9  O   UNL     1       7.974  27.421  58.233  1.00  0.00    -0.247 OA
HETATM   10  H   UNL     1       6.577  29.350  56.147  1.00  0.00     0.164 HD
HETATM   11  O   UNL     1       5.679  28.154  54.842  1.00  0.00    -0.271 OA
BRANCH   8  12
HETATM   12  C   UNL     1       8.012  30.224  57.451  1.00  0.00     0.089 C 
HETATM   13  C   UNL     1       9.538  29.974  57.525  1.00  0.00     0.004 C 
HETATM   14  C   UNL     1      10.137  29.687  56.143  1.00  0.00     0.012 C 
HETATM   15  C   UNL     1      10.254  31.180  58.158  1.00  0.00     0.006 C 
HETATM   16  C   UNL     1       9.666  31.543  59.519  1.00  0.00     0.001 C 
HETATM   17  C   UNL     1       8.166  31.801  59.430  1.00  0.00     0.002 C 
HETATM   18  C   UNL     1       7.433  30.611  58.819  1.00  0.00     0.026 C 
ENDBRANCH   8  12
ENDBRANCH   3   4
ENDBRANCH   1   3
BRANCH   1  19
HETATM   19  C   UNL     1       7.167  25.926  52.841  1.00  0.00     0.300 C 
BRANCH  19  20
HETATM   20  C   UNL     1       6.187  26.359  51.812  1.00  0.00     0.078 A 
HETATM   21  O   UNL     1       6.046  27.705  51.631  1.00  0.00    -0.325 OA
HETATM   22  C   UNL     1       5.100  27.883  50.673  1.00  0.00     0.142 A 
HETATM   23  C   UNL     1       4.634  26.668  50.230  1.00  0.00     0.027 A 
HETATM   24  C   UNL     1       5.332  25.681  50.968  1.00  0.00     0.036 A 
ENDBRANCH  19  20
ENDBRANCH   1  19
BRANCH   1  25
HETATM   25  C   UNL     1       7.638  24.495  54.870  1.00  0.00     0.277 C 
BRANCH  25  26
HETATM   26  C   UNL     1       7.863  23.033  54.604  1.00  0.00     0.001 A 
HETATM   27  C   UNL     1       8.201  22.156  55.641  1.00  0.00     0.073 A 
HETATM   28  C   UNL     1       8.418  20.801  55.400  1.00  0.00     0.037 A 
HETATM   29  C   UNL     1       8.290  20.305  54.104  1.00  0.00     0.003 A 
HETATM   30  C   UNL     1       7.943  21.160  53.060  1.00  0.00     0.001 A 
HETATM   31  C   UNL     1       7.727  22.517  53.307  1.00  0.00     0.011 A 
BRANCH  27  32
HETATM   32  O   UNL     1       8.311  22.654  56.909  1.00  0.00    -0.360 OA
HETATM   33  H   UNL     1       7.457  23.066  57.148  1.00  0.00     0.217 HD
ENDBRANCH  27  32
ENDBRANCH  25  26
ENDBRANCH   1  25
TORSDOF 8
ENDMDL
MODEL 8
REMARK VINA RESULT:      -8.3      2.761      8.039
REMARK  8 active torsions:
REMARK  status: ('A' for Active; 'I' for Inactive)
REMARK    1  A    between atoms: C_3  and  N_4 
REMARK       I    between atoms: N_4  and  C_5 
REMARK       I    between atoms: C_5  and  N_6 
REMARK       I    between atoms: N_6  and  C_7 
REMARK    2  A    between atoms: C_7  and  C_8 
REMARK    3  A    between atoms: C_8  and  N_9 
REMARK    4  A    between atoms: N_9  and  C_11 
REMARK    5  A    between atoms: N_9  and  C_17 
REMARK    6  A    between atoms: C_11  and  C_12 
REMARK    7  A    between atoms: C_17  and  C_18 
REMARK    8  A    between atoms: C_19  and  O_20 
ROOT
HETATM    1  N   UNL     1       6.321  27.380  55.429  1.00  0.00    -0.053 N 
HETATM    2  H   UNL     1       7.011  27.432  54.666  1.00  0.00     0.281 HD
ENDROOT
BRANCH   1   3
HETATM    3  C   UNL     1       5.347  28.514  55.116  1.00  0.00     0.338 C 
BRANCH   3   4
HETATM    4  C   UNL     1       4.717  28.399  53.728  1.00  0.00     0.251 C 
HETATM    5  N   UNL     1       5.299  29.202  52.769  1.00  0.00    -0.278 N 
HETATM    6  C   UNL     1       5.221  29.078  51.406  1.00  0.00     0.323 C 
HETATM    7  H   UNL     1       6.107  29.764  53.007  1.00  0.00     0.173 HD
HETATM    8  N   UNL     1       4.245  28.265  50.924  1.00  0.00    -0.338 N 
HETATM    9  O   UNL     1       6.055  29.664  50.726  1.00  0.00    -0.247 OA
HETATM   10  H   UNL     1       3.561  27.915  51.587  1.00  0.00     0.164 HD
HETATM   11  O   UNL     1       3.745  27.664  53.547  1.00  0.00    -0.271 OA
BRANCH   8  12
HETATM   12  C   UNL     1       3.977  28.034  49.505  1.00  0.00     0.089 C 
HETATM   13  C   UNL     1       2.490  28.221  49.116  1.00  0.00     0.004 C 
HETATM   14  C   UNL     1       1.979  29.621  49.475  1.00  0.00     0.012 C 
HETATM   15  C   UNL     1       2.287  27.965  47.613  1.00  0.00     0.006 C 
HETATM   16  C   UNL     1       2.822  26.600  47.188  1.00  0.00     0.001 C 
HETATM   17  C   UNL     1       4.291  26.434  47.563  1.00  0.00     0.002 C 
HETATM   18  C   UNL     1       4.514  26.667  49.054  1.00  0.00     0.026 C 
ENDBRANCH   8  12
ENDBRANCH   3   4
ENDBRANCH   1   3
BRANCH   1  19
HETATM   19  C   UNL     1       7.132  27.569  56.694  1.00  0.00     0.300 C 
BRANCH  19  20
HETATM   20  C   UNL     1       8.346  28.412  56.542  1.00  0.00     0.078 A 
HETATM   21  O   UNL     1       9.055  28.673  57.679  1.00  0.00    -0.325 OA
HETATM   22  C   UNL     1      10.101  29.464  57.327  1.00  0.00     0.142 A 
HETATM   23  C   UNL     1      10.078  29.712  55.975  1.00  0.00     0.027 A 
HETATM   24  C   UNL     1       8.942  29.036  55.465  1.00  0.00     0.036 A 
ENDBRANCH  19  20
ENDBRANCH   1  19
BRANCH   1  25
HETATM   25  C   UNL     1       5.664  26.026  55.335  1.00  0.00     0.277 C 
BRANCH  25  26
HETATM   26  C   UNL     1       6.532  25.011  54.646  1.00  0.00     0.001 A 
HETATM   27  C   UNL     1       6.752  25.070  53.265  1.00  0.00     0.073 A 
HETATM   28  C   UNL     1       7.549  24.128  52.619  1.00  0.00     0.037 A 
HETATM   29  C   UNL     1       8.146  23.110  53.360  1.00  0.00     0.003 A 
HETATM   30  C   UNL     1       7.948  23.041  54.738  1.00  0.00     0.001 A 
HETATM   31  C   UNL     1       7.148  23.988  55.380  1.00  0.00     0.011 A 
BRANCH  27  32
HETATM   32  O   UNL     1       6.170  26.081  52.553  1.00  0.00    -0.360 OA
HETATM   33  H   UNL     1       5.326  26.312  52.989  1.00  0.00     0.217 HD
ENDBRANCH  27  32
ENDBRANCH  25  26
ENDBRANCH   1  25
TORSDOF 8
ENDMDL
MODEL 9
REMARK VINA RESULT:      -8.3      1.741      4.417
REMARK  8 active torsions:
REMARK  status: ('A' for Active; 'I' for Inactive)
REMARK    1  A    between atoms: C_3  and  N_4 
REMARK       I    between atoms: N_4  and  C_5 
REMARK       I    between atoms: C_5  and  N_6 
REMARK       I    between atoms: N_6  and  C_7 
REMARK    2  A    between atoms: C_7  and  C_8 
REMARK    3  A    between atoms: C_8  and  N_9 
REMARK    4  A    between atoms: N_9  and  C_11 
REMARK    5  A    between atoms: N_9  and  C_17 
REMARK    6  A    between atoms: C_11  and  C_12 
REMARK    7  A    between atoms: C_17  and  C_18 
REMARK    8  A    between atoms: C_19  and  O_20 
ROOT
HETATM    1  N   UNL     1       6.026  26.876  53.395  1.00  0.00    -0.053 N 
HETATM    2  H   UNL     1       5.619  26.026  52.979  1.00  0.00     0.281 HD
ENDROOT
BRANCH   1   3
HETATM    3  C   UNL     1       5.177  27.112  54.643  1.00  0.00     0.338 C 
BRANCH   3   4
HETATM    4  C   UNL     1       5.686  28.265  55.507  1.00  0.00     0.251 C 
HETATM    5  N   UNL     1       6.304  27.873  56.676  1.00  0.00    -0.278 N 
HETATM    6  C   UNL     1       7.158  28.601  57.464  1.00  0.00     0.323 C 
HETATM    7  H   UNL     1       6.429  26.887  56.873  1.00  0.00     0.173 HD
HETATM    8  N   UNL     1       7.188  29.942  57.250  1.00  0.00    -0.338 N 
HETATM    9  O   UNL     1       7.861  27.995  58.265  1.00  0.00    -0.247 OA
HETATM   10  H   UNL     1       6.488  30.330  56.624  1.00  0.00     0.164 HD
HETATM   11  O   UNL     1       5.497  29.431  55.159  1.00  0.00    -0.271 OA
BRANCH   8  12
HETATM   12  C   UNL     1       8.001  30.891  58.010  1.00  0.00     0.089 C 
HETATM   13  C   UNL     1       9.482  30.462  58.153  1.00  0.00     0.004 C 
HETATM   14  C   UNL     1      10.148  30.251  56.789  1.00  0.00     0.012 C 
HETATM   15  C   UNL     1      10.272  31.507  58.958  1.00  0.00     0.006 C 
HETATM   16  C   UNL     1       9.626  31.795  60.311  1.00  0.00     0.001 C 
HETATM   17  C   UNL     1       8.174  32.230  60.156  1.00  0.00     0.002 C 
HETATM   18  C   UNL     1       7.365  31.200  59.374  1.00  0.00     0.026 C 
ENDBRANCH   8  12
ENDBRANCH   3   4
ENDBRANCH   1   3
BRANCH   1  19
HETATM   19  C   UNL     1       5.888  27.934  52.321  1.00  0.00     0.300 C 
BRANCH  19  20
HETATM   20  C   UNL     1       5.359  27.446  51.022  1.00  0.00     0.078 A 
HETATM   21  O   UNL     1       5.114  28.391  50.068  1.00  0.00    -0.325 OA
HETATM   22  C   UNL     1       4.624  27.744  48.979  1.00  0.00     0.142 A 
HETATM   23  C   UNL     1       4.557  26.392  49.218  1.00  0.00     0.027 A 
HETATM   24  C   UNL     1       5.028  26.196  50.539  1.00  0.00     0.036 A 
ENDBRANCH  19  20
ENDBRANCH   1  19
BRANCH   1  25
HETATM   25  C   UNL     1       7.458  26.552  53.738  1.00  0.00     0.277 C 
BRANCH  25  26
HETATM   26  C   UNL     1       7.690  25.077  53.910  1.00  0.00     0.001 A 
HETATM   27  C   UNL     1       7.928  24.528  55.175  1.00  0.00     0.073 A 
HETATM   28  C   UNL     1       8.151  23.163  55.340  1.00  0.00     0.037 A 
HETATM   29  C   UNL     1       8.131  22.324  54.228  1.00  0.00     0.003 A 
HETATM   30  C   UNL     1       7.885  22.850  52.961  1.00  0.00     0.001 A 
HETATM   31  C   UNL     1       7.662  24.219  52.801  1.00  0.00     0.011 A 
BRANCH  27  32
HETATM   32  O   UNL     1       7.933  25.360  56.259  1.00  0.00    -0.360 OA
HETATM   33  H   UNL     1       8.537  26.105  56.066  1.00  0.00     0.217 HD
ENDBRANCH  27  32
ENDBRANCH  25  26
ENDBRANCH   1  25
TORSDOF 8
ENDMDL
MODEL 10
REMARK VINA RESULT:      -8.3      3.277      8.480
REMARK  8 active torsions:
REMARK  status: ('A' for Active; 'I' for Inactive)
REMARK    1  A    between atoms: C_3  and  N_4 
REMARK       I    between atoms: N_4  and  C_5 
REMARK       I    between atoms: C_5  and  N_6 
REMARK       I    between atoms: N_6  and  C_7 
REMARK    2  A    between atoms: C_7  and  C_8 
REMARK    3  A    between atoms: C_8  and  N_9 
REMARK    4  A    between atoms: N_9  and  C_11 
REMARK    5  A    between atoms: N_9  and  C_17 
REMARK    6  A    between atoms: C_11  and  C_12 
REMARK    7  A    between atoms: C_17  and  C_18 
REMARK    8  A    between atoms: C_19  and  O_20 
ROOT
HETATM    1  N   UNL     1       5.979  26.832  54.194  1.00  0.00    -0.053 N 
HETATM    2  H   UNL     1       6.051  26.546  53.207  1.00  0.00     0.281 HD
ENDROOT
BRANCH   1   3
HETATM    3  C   UNL     1       4.727  27.705  54.229  1.00  0.00     0.338 C 
BRANCH   3   4
HETATM    4  C   UNL     1       4.236  28.109  52.840  1.00  0.00     0.251 C 
HETATM    5  N   UNL     1       4.880  27.473  51.800  1.00  0.00    -0.278 N 
HETATM    6  C   UNL     1       4.455  27.336  50.503  1.00  0.00     0.323 C 
HETATM    7  H   UNL     1       5.578  26.767  51.997  1.00  0.00     0.173 HD
HETATM    8  N   UNL     1       3.440  28.147  50.107  1.00  0.00    -0.338 N 
HETATM    9  O   UNL     1       4.983  26.471  49.812  1.00  0.00    -0.247 OA
HETATM   10  H   UNL     1       3.157  28.885  50.745  1.00  0.00     0.164 HD
HETATM   11  O   UNL     1       3.362  28.968  52.717  1.00  0.00    -0.271 OA
BRANCH   8  12
HETATM   12  C   UNL     1       2.875  28.179  48.758  1.00  0.00     0.089 C 
HETATM   13  C   UNL     1       2.947  29.574  48.090  1.00  0.00     0.004 C 
HETATM   14  C   UNL     1       4.385  30.097  48.015  1.00  0.00     0.012 C 
HETATM   15  C   UNL     1       2.339  29.528  46.677  1.00  0.00     0.006 C 
HETATM   16  C   UNL     1       0.919  28.969  46.684  1.00  0.00     0.001 C 
HETATM   17  C   UNL     1       0.864  27.590  47.331  1.00  0.00     0.002 C 
HETATM   18  C   UNL     1       1.447  27.614  48.741  1.00  0.00     0.026 C 
ENDBRANCH   8  12
ENDBRANCH   3   4
ENDBRANCH   1   3
BRANCH   1  19
HETATM   19  C   UNL     1       7.275  27.563  54.478  1.00  0.00     0.300 C 
BRANCH  19  20
HETATM   20  C   UNL     1       7.388  28.133  55.845  1.00  0.00     0.078 A 
HETATM   21  O   UNL     1       6.943  29.413  56.011  1.00  0.00    -0.325 OA
HETATM   22  C   UNL     1       7.153  29.744  57.311  1.00  0.00     0.142 A 
HETATM   23  C   UNL     1       7.721  28.691  57.986  1.00  0.00     0.027 A 
HETATM   24  C   UNL     1       7.878  27.649  57.040  1.00  0.00     0.036 A 
ENDBRANCH  19  20
ENDBRANCH   1  19
BRANCH   1  25
HETATM   25  C   UNL     1       5.813  25.570  55.004  1.00  0.00     0.277 C 
BRANCH  25  26
HETATM   26  C   UNL     1       6.751  24.480  54.571  1.00  0.00     0.001 A 
HETATM   27  C   UNL     1       6.813  24.071  53.234  1.00  0.00     0.073 A 
HETATM   28  C   UNL     1       7.676  23.055  52.827  1.00  0.00     0.037 A 
HETATM   29  C   UNL     1       8.499  22.437  53.766  1.00  0.00     0.003 A 
HETATM   30  C   UNL     1       8.460  22.837  55.101  1.00  0.00     0.001 A 
HETATM   31  C   UNL     1       7.594  23.856  55.503  1.00  0.00     0.011 A 
BRANCH  27  32
HETATM   32  O   UNL     1       6.009  24.694  52.322  1.00  0.00    -0.360 OA
HETATM   33  H   UNL     1       6.538  24.864  51.517  1.00  0.00     0.217 HD
ENDBRANCH  27  32
ENDBRANCH  25  26
ENDBRANCH   1  25
TORSDOF 8
ENDMDL
