MODEL 1
REMARK VINA RESULT:      -8.9      0.000      0.000
REMARK  6 active torsions:
REMARK  status: ('A' for Active; 'I' for Inactive)
REMARK    1  A    between atoms: C_8  and  N_9 
REMARK       I    between atoms: N_9  and  C_10 
REMARK    2  A    between atoms: C_10  and  C_11 
REMARK    3  A    between atoms: C_11  and  N_12 
REMARK    4  A    between atoms: N_12  and  C_15 
REMARK    5  A    between atoms: C_15  and  C_16 
REMARK    6  A    between atoms: C_16  and  C_17 
ROOT
HETATM    1  N   UNL     1       6.215  26.837  55.538  1.00  0.00    -0.062 N 
HETATM    2  H   UNL     1       5.369  26.250  55.525  1.00  0.00     0.278 HD
HETATM    3  H   UNL     1       5.921  27.762  55.186  1.00  0.00     0.278 HD
ENDROOT
BRANCH   1   4
HETATM    4  C   UNL     1       6.648  27.122  56.957  1.00  0.00     0.335 C 
BRANCH   4   5
HETATM    5  C   UNL     1       7.028  28.590  57.148  1.00  0.00     0.248 C 
HETATM    6  N   UNL     1       8.125  28.785  57.955  1.00  0.00    -0.322 N 
HETATM    7  H   UNL     1       8.532  27.996  58.444  1.00  0.00     0.169 HD
HETATM    8  O   UNL     1       6.365  29.439  56.558  1.00  0.00    -0.271 OA
BRANCH   6   9
HETATM    9  C   UNL     1       8.760  29.993  58.217  1.00  0.00     0.085 A 
HETATM   10  C   UNL     1      10.016  30.268  57.702  1.00  0.00     0.052 A 
HETATM   11  C   UNL     1      10.952  29.495  56.851  1.00  0.00     0.072 C 
HETATM   12  N   UNL     1      10.334  31.524  58.140  1.00  0.00    -0.280 N 
HETATM   13  H   UNL     1      11.180  32.058  57.967  1.00  0.00     0.189 HD
HETATM   14  N   UNL     1       9.380  32.086  58.882  1.00  0.00    -0.177 NA
HETATM   15  C   UNL     1       8.409  31.165  58.950  1.00  0.00     0.079 A 
HETATM   16  C   UNL     1       7.193  31.512  59.726  1.00  0.00     0.075 C 
ENDBRANCH   6   9
ENDBRANCH   4   5
ENDBRANCH   1   4
BRANCH   1  17
HETATM   17  C   UNL     1       7.241  26.305  54.538  1.00  0.00     0.194 C 
HETATM   18  C   UNL     1       7.800  27.548  53.829  1.00  0.00     0.041 C 
BRANCH  17  19
HETATM   19  C   UNL     1       6.658  25.181  53.583  1.00  0.00     0.007 C 
HETATM   20  C   UNL     1       5.103  25.169  53.633  1.00  0.00     0.022 C 
HETATM   21  C   UNL     1       6.961  25.569  52.106  1.00  0.00     0.022 C 
BRANCH  19  22
HETATM   22  C   UNL     1       7.209  23.787  53.951  1.00  0.00    -0.048 A 
HETATM   23  C   UNL     1       7.689  22.914  52.955  1.00  0.00     0.008 A 
HETATM   24  C   UNL     1       8.155  21.633  53.268  1.00  0.00     0.001 A 
HETATM   25  C   UNL     1       8.151  21.190  54.583  1.00  0.00     0.000 A 
HETATM   26  C   UNL     1       7.689  22.031  55.588  1.00  0.00     0.001 A 
HETATM   27  C   UNL     1       7.228  23.314  55.278  1.00  0.00     0.008 A 
ENDBRANCH  19  22
ENDBRANCH  17  19
ENDBRANCH   1  17
TORSDOF 6
ENDMDL
MODEL 2
REMARK VINA RESULT:      -8.6      1.151      2.204
REMARK  6 active torsions:
REMARK  status: ('A' for Active; 'I' for Inactive)
REMARK    1  A    between atoms: C_8  and  N_9 
REMARK       I    between atoms: N_9  and  C_10 
REMARK    2  A    between atoms: C_10  and  C_11 
REMARK    3  A    between atoms: C_11  and  N_12 
REMARK    4  A    between atoms: N_12  and  C_15 
REMARK    5  A    between atoms: C_15  and  C_16 
REMARK    6  A    between atoms: C_16  and  C_17 
ROOT
HETATM    1  N   UNL     1       5.238  27.747  55.946  1.00  0.00    -0.062 N 
HETATM    2  H   UNL     1       4.311  27.912  55.528  1.00  0.00     0.278 HD
HETATM    3  H   UNL     1       5.902  28.300  55.383  1.00  0.00     0.278 HD
ENDROOT
BRANCH   1   4
HETATM    4  C   UNL     1       5.328  28.377  57.316  1.00  0.00     0.335 C 
BRANCH   4   5
HETATM    5  C   UNL     1       6.262  29.588  57.321  1.00  0.00     0.248 C 
HETATM    6  N   UNL     1       7.190  29.575  58.336  1.00  0.00    -0.322 N 
HETATM    7  H   UNL     1       7.137  28.862  59.054  1.00  0.00     0.169 HD
HETATM    8  O   UNL     1       6.128  30.422  56.429  1.00  0.00    -0.271 OA
BRANCH   6   9
HETATM    9  C   UNL     1       8.228  30.480  58.523  1.00  0.00     0.085 A 
HETATM   10  C   UNL     1       9.436  30.330  57.864  1.00  0.00     0.052 A 
HETATM   11  C   UNL     1       9.948  29.321  56.906  1.00  0.00     0.072 C 
HETATM   12  N   UNL     1      10.215  31.381  58.265  1.00  0.00    -0.280 N 
HETATM   13  H   UNL     1      11.169  31.600  57.993  1.00  0.00     0.189 HD
HETATM   14  N   UNL     1       9.601  32.203  59.116  1.00  0.00    -0.177 NA
HETATM   15  C   UNL     1       8.386  31.669  59.296  1.00  0.00     0.079 A 
HETATM   16  C   UNL     1       7.458  32.377  60.212  1.00  0.00     0.075 C 
ENDBRANCH   6   9
ENDBRANCH   4   5
ENDBRANCH   1   4
BRANCH   1  17
HETATM   17  C   UNL     1       5.642  26.284  55.770  1.00  0.00     0.194 C 
HETATM   18  C   UNL     1       5.136  25.569  57.032  1.00  0.00     0.041 C 
BRANCH  17  19
HETATM   19  C   UNL     1       7.184  26.094  55.452  1.00  0.00     0.007 C 
HETATM   20  C   UNL     1       7.749  27.337  54.707  1.00  0.00     0.022 C 
HETATM   21  C   UNL     1       7.977  26.095  56.791  1.00  0.00     0.022 C 
BRANCH  19  22
HETATM   22  C   UNL     1       7.435  24.819  54.619  1.00  0.00    -0.048 A 
HETATM   23  C   UNL     1       7.613  23.571  55.246  1.00  0.00     0.008 A 
HETATM   24  C   UNL     1       7.881  22.413  54.509  1.00  0.00     0.001 A 
HETATM   25  C   UNL     1       7.979  22.473  53.125  1.00  0.00     0.000 A 
HETATM   26  C   UNL     1       7.801  23.689  52.478  1.00  0.00     0.001 A 
HETATM   27  C   UNL     1       7.529  24.847  53.214  1.00  0.00     0.008 A 
ENDBRANCH  19  22
ENDBRANCH  17  19
ENDBRANCH   1  17
TORSDOF 6
ENDMDL
MODEL 3
REMARK VINA RESULT:      -8.4      0.840      1.890
REMARK  6 active torsions:
REMARK  status: ('A' for Active; 'I' for Inactive)
REMARK    1  A    between atoms: C_8  and  N_9 
REMARK       I    between atoms: N_9  and  C_10 
REMARK    2  A    between atoms: C_10  and  C_11 
REMARK    3  A    between atoms: C_11  and  N_12 
REMARK    4  A    between atoms: N_12  and  C_15 
REMARK    5  A    between atoms: C_15  and  C_16 
REMARK    6  A    between atoms: C_16  and  C_17 
ROOT
HETATM    1  N   UNL     1       5.971  27.224  55.344  1.00  0.00    -0.062 N 
HETATM    2  H   UNL     1       5.052  26.951  54.967  1.00  0.00     0.278 HD
HETATM    3  H   UNL     1       6.064  28.234  55.155  1.00  0.00     0.278 HD
ENDROOT
BRANCH   1   4
HETATM    4  C   UNL     1       5.975  27.146  56.853  1.00  0.00     0.335 C 
BRANCH   4   5
HETATM    5  C   UNL     1       7.221  27.800  57.450  1.00  0.00     0.248 C 
HETATM    6  N   UNL     1       7.323  29.148  57.197  1.00  0.00    -0.322 N 
HETATM    7  H   UNL     1       6.663  29.590  56.568  1.00  0.00     0.169 HD
HETATM    8  O   UNL     1       7.980  27.095  58.110  1.00  0.00    -0.271 OA
BRANCH   6   9
HETATM    9  C   UNL     1       8.282  30.017  57.701  1.00  0.00     0.085 A 
HETATM   10  C   UNL     1       7.938  31.038  58.570  1.00  0.00     0.052 A 
HETATM   11  C   UNL     1       6.647  31.479  59.152  1.00  0.00     0.072 C 
HETATM   12  N   UNL     1       9.104  31.685  58.871  1.00  0.00    -0.280 N 
HETATM   13  H   UNL     1       9.243  32.490  59.475  1.00  0.00     0.189 HD
HETATM   14  N   UNL     1      10.174  31.155  58.279  1.00  0.00    -0.177 NA
HETATM   15  C   UNL     1       9.696  30.137  57.550  1.00  0.00     0.079 A 
HETATM   16  C   UNL     1      10.671  29.344  56.763  1.00  0.00     0.075 C 
ENDBRANCH   6   9
ENDBRANCH   4   5
ENDBRANCH   1   4
BRANCH   1  17
HETATM   17  C   UNL     1       7.087  26.536  54.559  1.00  0.00     0.194 C 
HETATM   18  C   UNL     1       7.888  27.676  53.910  1.00  0.00     0.041 C 
BRANCH  17  19
HETATM   19  C   UNL     1       6.556  25.423  53.562  1.00  0.00     0.007 C 
HETATM   20  C   UNL     1       5.002  25.391  53.551  1.00  0.00     0.022 C 
HETATM   21  C   UNL     1       6.911  25.843  52.106  1.00  0.00     0.022 C 
BRANCH  19  22
HETATM   22  C   UNL     1       7.111  24.029  53.926  1.00  0.00    -0.048 A 
HETATM   23  C   UNL     1       7.554  23.145  52.923  1.00  0.00     0.008 A 
HETATM   24  C   UNL     1       8.023  21.864  53.233  1.00  0.00     0.001 A 
HETATM   25  C   UNL     1       8.059  21.433  54.552  1.00  0.00     0.000 A 
HETATM   26  C   UNL     1       7.634  22.286  55.563  1.00  0.00     0.001 A 
HETATM   27  C   UNL     1       7.170  23.569  55.255  1.00  0.00     0.008 A 
ENDBRANCH  19  22
ENDBRANCH  17  19
ENDBRANCH   1  17
TORSDOF 6
ENDMDL
MODEL 4
REMARK VINA RESULT:      -8.4      4.427      7.156
REMARK  6 active torsions:
REMARK  status: ('A' for Active; 'I' for Inactive)
REMARK    1  A    between atoms: C_8  and  N_9 
REMARK       I    between atoms: N_9  and  C_10 
REMARK    2  A    between atoms: C_10  and  C_11 
REMARK    3  A    between atoms: C_11  and  N_12 
REMARK    4  A    between atoms: N_12  and  C_15 
REMARK    5  A    between atoms: C_15  and  C_16 
REMARK    6  A    between atoms: C_16  and  C_17 
ROOT
HETATM    1  N   UNL     1       5.153  25.751  54.087  1.00  0.00    -0.062 N 
HETATM    2  H   UNL     1       5.814  26.507  53.858  1.00  0.00     0.278 HD
HETATM    3  H   UNL     1       4.285  26.218  54.392  1.00  0.00     0.278 HD
ENDROOT
BRANCH   1   4
HETATM    4  C   UNL     1       4.734  25.009  52.840  1.00  0.00     0.335 C 
BRANCH   4   5
HETATM    5  C   UNL     1       5.282  25.673  51.577  1.00  0.00     0.248 C 
HETATM    6  N   UNL     1       4.316  26.225  50.769  1.00  0.00    -0.322 N 
HETATM    7  H   UNL     1       3.337  26.072  50.985  1.00  0.00     0.169 HD
HETATM    8  O   UNL     1       6.500  25.685  51.414  1.00  0.00    -0.271 OA
BRANCH   6   9
HETATM    9  C   UNL     1       4.524  26.981  49.622  1.00  0.00     0.085 A 
HETATM   10  C   UNL     1       4.108  26.529  48.382  1.00  0.00     0.052 A 
HETATM   11  C   UNL     1       3.424  25.292  47.932  1.00  0.00     0.072 C 
HETATM   12  N   UNL     1       4.456  27.506  47.490  1.00  0.00    -0.280 N 
HETATM   13  H   UNL     1       4.315  27.522  46.484  1.00  0.00     0.189 HD
HETATM   14  N   UNL     1       5.048  28.557  48.057  1.00  0.00    -0.177 NA
HETATM   15  C   UNL     1       5.108  28.256  49.361  1.00  0.00     0.079 A 
HETATM   16  C   UNL     1       5.730  29.256  50.264  1.00  0.00     0.075 C 
ENDBRANCH   6   9
ENDBRANCH   4   5
ENDBRANCH   1   4
BRANCH   1  17
HETATM   17  C   UNL     1       5.659  24.959  55.292  1.00  0.00     0.194 C 
HETATM   18  C   UNL     1       5.192  25.750  56.523  1.00  0.00     0.041 C 
BRANCH  17  19
HETATM   19  C   UNL     1       7.214  24.650  55.230  1.00  0.00     0.007 C 
HETATM   20  C   UNL     1       7.943  25.679  54.320  1.00  0.00     0.022 C 
HETATM   21  C   UNL     1       7.835  24.916  56.632  1.00  0.00     0.022 C 
BRANCH  19  22
HETATM   22  C   UNL     1       7.483  23.215  54.728  1.00  0.00    -0.048 A 
HETATM   23  C   UNL     1       7.543  22.134  55.629  1.00  0.00     0.008 A 
HETATM   24  C   UNL     1       7.825  20.835  55.195  1.00  0.00     0.001 A 
HETATM   25  C   UNL     1       8.058  20.583  53.850  1.00  0.00     0.000 A 
HETATM   26  C   UNL     1       8.000  21.628  52.937  1.00  0.00     0.001 A 
HETATM   27  C   UNL     1       7.712  22.927  53.368  1.00  0.00     0.008 A 
ENDBRANCH  19  22
ENDBRANCH  17  19
ENDBRANCH   1  17
TORSDOF 6
ENDMDL
MODEL 5
REMARK VINA RESULT:      -8.4      1.317      2.721
REMARK  6 active torsions:
REMARK  status: ('A' for Active; 'I' for Inactive)
REMARK    1  A    between atoms: C_8  and  N_9 
REMARK       I    between atoms: N_9  and  C_10 
REMARK    2  A    between atoms: C_10  and  C_11 
REMARK    3  A    between atoms: C_11  and  N_12 
REMARK    4  A    between atoms: N_12  and  C_15 
REMARK    5  A    between atoms: C_15  and  C_16 
REMARK    6  A    between atoms: C_16  and  C_17 
ROOT
HETATM    1  N   UNL     1       4.953  26.860  55.305  1.00  0.00    -0.062 N 
HETATM    2  H   UNL     1       4.103  26.774  54.730  1.00  0.00     0.278 HD
HETATM    3  H   UNL     1       5.659  27.307  54.699  1.00  0.00     0.278 HD
ENDROOT
BRANCH   1   4
HETATM    4  C   UNL     1       4.751  27.867  56.413  1.00  0.00     0.335 C 
BRANCH   4   5
HETATM    5  C   UNL     1       5.874  28.904  56.446  1.00  0.00     0.248 C 
HETATM    6  N   UNL     1       6.352  29.173  57.707  1.00  0.00    -0.322 N 
HETATM    7  H   UNL     1       5.884  28.777  58.514  1.00  0.00     0.169 HD
HETATM    8  O   UNL     1       6.262  29.367  55.376  1.00  0.00    -0.271 OA
BRANCH   6   9
HETATM    9  C   UNL     1       7.434  29.983  58.030  1.00  0.00     0.085 A 
HETATM   10  C   UNL     1       7.264  31.145  58.763  1.00  0.00     0.052 A 
HETATM   11  C   UNL     1       6.074  31.810  59.344  1.00  0.00     0.072 C 
HETATM   12  N   UNL     1       8.513  31.684  58.906  1.00  0.00    -0.280 N 
HETATM   13  H   UNL     1       8.781  32.540  59.382  1.00  0.00     0.189 HD
HETATM   14  N   UNL     1       9.475  30.956  58.338  1.00  0.00    -0.177 NA
HETATM   15  C   UNL     1       8.838  29.914  57.788  1.00  0.00     0.079 A 
HETATM   16  C   UNL     1       9.664  28.911  57.070  1.00  0.00     0.075 C 
ENDBRANCH   6   9
ENDBRANCH   4   5
ENDBRANCH   1   4
BRANCH   1  17
HETATM   17  C   UNL     1       5.498  25.474  55.648  1.00  0.00     0.194 C 
HETATM   18  C   UNL     1       5.136  25.249  57.124  1.00  0.00     0.041 C 
BRANCH  17  19
HETATM   19  C   UNL     1       7.033  25.300  55.289  1.00  0.00     0.007 C 
HETATM   20  C   UNL     1       7.473  26.349  54.228  1.00  0.00     0.022 C 
HETATM   21  C   UNL     1       7.887  25.678  56.534  1.00  0.00     0.022 C 
BRANCH  19  22
HETATM   22  C   UNL     1       7.334  23.874  54.778  1.00  0.00    -0.048 A 
HETATM   23  C   UNL     1       7.488  22.803  55.680  1.00  0.00     0.008 A 
HETATM   24  C   UNL     1       7.800  21.513  55.236  1.00  0.00     0.001 A 
HETATM   25  C   UNL     1       7.967  21.262  53.881  1.00  0.00     0.000 A 
HETATM   26  C   UNL     1       7.815  22.298  52.968  1.00  0.00     0.001 A 
HETATM   27  C   UNL     1       7.498  23.587  53.410  1.00  0.00     0.008 A 
ENDBRANCH  19  22
ENDBRANCH  17  19
ENDBRANCH   1  17
TORSDOF 6
ENDMDL
MODEL 6
REMARK VINA RESULT:      -8.1      5.011      8.384
REMARK  6 active torsions:
REMARK  status: ('A' for Active; 'I' for Inactive)
REMARK    1  A    between atoms: C_8  and  N_9 
REMARK       I    between atoms: N_9  and  C_10 
REMARK    2  A    between atoms: C_10  and  C_11 
REMARK    3  A    between atoms: C_11  and  N_12 
REMARK    4  A    between atoms: N_12  and  C_15 
REMARK    5  A    between atoms: C_15  and  C_16 
REMARK    6  A    between atoms: C_16  and  C_17 
ROOT
HETATM    1  N   UNL     1       6.292  26.450  51.409  1.00  0.00    -0.062 N 
HETATM    2  H   UNL     1       6.748  26.342  50.492  1.00  0.00     0.278 HD
HETATM    3  H   UNL     1       6.961  26.975  51.995  1.00  0.00     0.278 HD
ENDROOT
BRANCH   1   4
HETATM    4  C   UNL     1       5.106  27.379  51.312  1.00  0.00     0.335 C 
BRANCH   4   5
HETATM    5  C   UNL     1       4.625  27.533  49.869  1.00  0.00     0.248 C 
HETATM    6  N   UNL     1       3.307  27.190  49.677  1.00  0.00    -0.322 N 
HETATM    7  H   UNL     1       2.785  26.769  50.437  1.00  0.00     0.169 HD
HETATM    8  O   UNL     1       5.421  27.968  49.040  1.00  0.00    -0.271 OA
BRANCH   6   9
HETATM    9  C   UNL     1       2.574  27.331  48.505  1.00  0.00     0.085 A 
HETATM   10  C   UNL     1       2.451  26.285  47.607  1.00  0.00     0.052 A 
HETATM   11  C   UNL     1       2.978  24.899  47.590  1.00  0.00     0.072 C 
HETATM   12  N   UNL     1       1.670  26.755  46.588  1.00  0.00    -0.280 N 
HETATM   13  H   UNL     1       1.370  26.270  45.747  1.00  0.00     0.189 HD
HETATM   14  N   UNL     1       1.267  28.013  46.763  1.00  0.00    -0.177 NA
HETATM   15  C   UNL     1       1.814  28.391  47.926  1.00  0.00     0.079 A 
HETATM   16  C   UNL     1       1.539  29.772  48.393  1.00  0.00     0.075 C 
ENDBRANCH   6   9
ENDBRANCH   4   5
ENDBRANCH   1   4
BRANCH   1  17
HETATM   17  C   UNL     1       6.119  25.086  52.075  1.00  0.00     0.194 C 
HETATM   18  C   UNL     1       4.631  24.739  51.909  1.00  0.00     0.041 C 
BRANCH  17  19
HETATM   19  C   UNL     1       6.667  25.041  53.563  1.00  0.00     0.007 C 
HETATM   20  C   UNL     1       7.733  26.150  53.790  1.00  0.00     0.022 C 
HETATM   21  C   UNL     1       5.520  25.449  54.533  1.00  0.00     0.022 C 
BRANCH  19  22
HETATM   22  C   UNL     1       7.263  23.658  53.902  1.00  0.00    -0.048 A 
HETATM   23  C   UNL     1       7.489  23.279  55.240  1.00  0.00     0.008 A 
HETATM   24  C   UNL     1       8.064  22.046  55.563  1.00  0.00     0.001 A 
HETATM   25  C   UNL     1       8.431  21.161  54.559  1.00  0.00     0.000 A 
HETATM   26  C   UNL     1       8.214  21.505  53.230  1.00  0.00     0.001 A 
HETATM   27  C   UNL     1       7.634  22.736  52.906  1.00  0.00     0.008 A 
ENDBRANCH  19  22
ENDBRANCH  17  19
ENDBRANCH   1  17
TORSDOF 6
ENDMDL
MODEL 7
REMARK VINA RESULT:      -7.9      1.788      2.608
REMARK  6 active torsions:
REMARK  status: ('A' for Active; 'I' for Inactive)
REMARK    1  A    between atoms: C_8  and  N_9 
REMARK       I    between atoms: N_9  and  C_10 
REMARK    2  A    between atoms: C_10  and  C_11 
REMARK    3  A    between atoms: C_11  and  N_12 
REMARK    4  A    between atoms: N_12  and  C_15 
REMARK    5  A    between atoms: C_15  and  C_16 
REMARK    6  A    between atoms: C_16  and  C_17 
ROOT
HETATM    1  N   UNL     1       5.890  26.464  55.088  1.00  0.00    -0.062 N 
HETATM    2  H   UNL     1       5.162  26.369  54.365  1.00  0.00     0.278 HD
HETATM    3  H   UNL     1       6.564  27.153  54.719  1.00  0.00     0.278 HD
ENDROOT
BRANCH   1   4
HETATM    4  C   UNL     1       5.336  27.138  56.321  1.00  0.00     0.335 C 
BRANCH   4   5
HETATM    5  C   UNL     1       5.811  28.587  56.435  1.00  0.00     0.248 C 
HETATM    6  N   UNL     1       5.581  29.158  57.664  1.00  0.00    -0.322 N 
HETATM    7  H   UNL     1       5.035  28.654  58.355  1.00  0.00     0.169 HD
HETATM    8  O   UNL     1       6.370  29.088  55.462  1.00  0.00    -0.271 OA
BRANCH   6   9
HETATM    9  C   UNL     1       5.999  30.412  58.089  1.00  0.00     0.085 A 
HETATM   10  C   UNL     1       5.119  31.480  58.142  1.00  0.00     0.052 A 
HETATM   11  C   UNL     1       3.681  31.624  57.812  1.00  0.00     0.072 C 
HETATM   12  N   UNL     1       5.846  32.543  58.605  1.00  0.00    -0.280 N 
HETATM   13  H   UNL     1       5.536  33.496  58.769  1.00  0.00     0.189 HD
HETATM   14  N   UNL     1       7.117  32.243  58.869  1.00  0.00    -0.177 NA
HETATM   15  C   UNL     1       7.238  30.946  58.553  1.00  0.00     0.079 A 
HETATM   16  C   UNL     1       8.568  30.318  58.744  1.00  0.00     0.075 C 
ENDBRANCH   6   9
ENDBRANCH   4   5
ENDBRANCH   1   4
BRANCH   1  17
HETATM   17  C   UNL     1       6.657  25.151  55.237  1.00  0.00     0.194 C 
HETATM   18  C   UNL     1       7.918  25.507  56.040  1.00  0.00     0.041 C 
BRANCH  17  19
HETATM   19  C   UNL     1       6.915  24.416  53.855  1.00  0.00     0.007 C 
HETATM   20  C   UNL     1       5.625  24.411  52.987  1.00  0.00     0.022 C 
HETATM   21  C   UNL     1       7.906  25.268  53.010  1.00  0.00     0.022 C 
BRANCH  19  22
HETATM   22  C   UNL     1       7.413  22.971  54.070  1.00  0.00    -0.048 A 
HETATM   23  C   UNL     1       7.841  22.186  52.981  1.00  0.00     0.008 A 
HETATM   24  C   UNL     1       8.258  20.863  53.153  1.00  0.00     0.001 A 
HETATM   25  C   UNL     1       8.256  20.288  54.416  1.00  0.00     0.000 A 
HETATM   26  C   UNL     1       7.846  21.039  55.510  1.00  0.00     0.001 A 
HETATM   27  C   UNL     1       7.433  22.365  55.340  1.00  0.00     0.008 A 
ENDBRANCH  19  22
ENDBRANCH  17  19
ENDBRANCH   1  17
TORSDOF 6
ENDMDL
MODEL 8
REMARK VINA RESULT:      -7.9      1.514      3.195
REMARK  6 active torsions:
REMARK  status: ('A' for Active; 'I' for Inactive)
REMARK    1  A    between atoms: C_8  and  N_9 
REMARK       I    between atoms: N_9  and  C_10 
REMARK    2  A    between atoms: C_10  and  C_11 
REMARK    3  A    between atoms: C_11  and  N_12 
REMARK    4  A    between atoms: N_12  and  C_15 
REMARK    5  A    between atoms: C_15  and  C_16 
REMARK    6  A    between atoms: C_16  and  C_17 
ROOT
HETATM    1  N   UNL     1       5.360  28.194  57.527  1.00  0.00    -0.062 N 
HETATM    2  H   UNL     1       6.200  28.285  58.116  1.00  0.00     0.278 HD
HETATM    3  H   UNL     1       4.622  27.819  58.144  1.00  0.00     0.278 HD
ENDROOT
BRANCH   1   4
HETATM    4  C   UNL     1       4.832  29.553  57.132  1.00  0.00     0.335 C 
BRANCH   4   5
HETATM    5  C   UNL     1       5.780  30.673  57.561  1.00  0.00     0.248 C 
HETATM    6  N   UNL     1       6.757  30.276  58.443  1.00  0.00    -0.322 N 
HETATM    7  H   UNL     1       6.730  29.339  58.829  1.00  0.00     0.169 HD
HETATM    8  O   UNL     1       5.613  31.787  57.070  1.00  0.00    -0.271 OA
BRANCH   6   9
HETATM    9  C   UNL     1       7.813  31.045  58.915  1.00  0.00     0.085 A 
HETATM   10  C   UNL     1       7.625  31.981  59.917  1.00  0.00     0.052 A 
HETATM   11  C   UNL     1       6.434  32.413  60.688  1.00  0.00     0.072 C 
HETATM   12  N   UNL     1       8.851  32.542  60.142  1.00  0.00    -0.280 N 
HETATM   13  H   UNL     1       9.101  33.271  60.804  1.00  0.00     0.189 HD
HETATM   14  N   UNL     1       9.817  32.033  59.377  1.00  0.00    -0.177 NA
HETATM   15  C   UNL     1       9.205  31.120  58.612  1.00  0.00     0.079 A 
HETATM   16  C   UNL     1      10.041  30.374  57.639  1.00  0.00     0.075 C 
ENDBRANCH   6   9
ENDBRANCH   4   5
ENDBRANCH   1   4
BRANCH   1  17
HETATM   17  C   UNL     1       5.589  27.139  56.444  1.00  0.00     0.194 C 
HETATM   18  C   UNL     1       4.931  25.858  56.981  1.00  0.00     0.041 C 
BRANCH  17  19
HETATM   19  C   UNL     1       7.111  26.998  56.021  1.00  0.00     0.007 C 
HETATM   20  C   UNL     1       7.581  28.253  55.232  1.00  0.00     0.022 C 
HETATM   21  C   UNL     1       7.994  27.033  57.302  1.00  0.00     0.022 C 
BRANCH  19  22
HETATM   22  C   UNL     1       7.345  25.726  55.178  1.00  0.00    -0.048 A 
HETATM   23  C   UNL     1       6.896  25.651  53.845  1.00  0.00     0.008 A 
HETATM   24  C   UNL     1       7.065  24.492  53.080  1.00  0.00     0.001 A 
HETATM   25  C   UNL     1       7.684  23.377  53.629  1.00  0.00     0.000 A 
HETATM   26  C   UNL     1       8.143  23.424  54.939  1.00  0.00     0.001 A 
HETATM   27  C   UNL     1       7.980  24.584  55.703  1.00  0.00     0.008 A 
ENDBRANCH  19  22
ENDBRANCH  17  19
ENDBRANCH   1  17
TORSDOF 6
ENDMDL
MODEL 9
REMARK VINA RESULT:      -7.8      2.674      4.303
REMARK  6 active torsions:
REMARK  status: ('A' for Active; 'I' for Inactive)
REMARK    1  A    between atoms: C_8  and  N_9 
REMARK       I    between atoms: N_9  and  C_10 
REMARK    2  A    between atoms: C_10  and  C_11 
REMARK    3  A    between atoms: C_11  and  N_12 
REMARK    4  A    between atoms: N_12  and  C_15 
REMARK    5  A    between atoms: C_15  and  C_16 
REMARK    6  A    between atoms: C_16  and  C_17 
ROOT
HETATM    1  N   UNL     1       7.135  29.455  58.427  1.00  0.00    -0.062 N 
HETATM    2  H   UNL     1       7.198  29.331  59.448  1.00  0.00     0.278 HD
HETATM    3  H   UNL     1       6.146  29.289  58.184  1.00  0.00     0.278 HD
ENDROOT
BRANCH   1   4
HETATM    4  C   UNL     1       7.353  30.901  58.049  1.00  0.00     0.335 C 
BRANCH   4   5
HETATM    5  C   UNL     1       7.767  31.745  59.254  1.00  0.00     0.248 C 
HETATM    6  N   UNL     1       6.956  31.589  60.354  1.00  0.00    -0.322 N 
HETATM    7  H   UNL     1       6.108  31.040  60.275  1.00  0.00     0.169 HD
HETATM    8  O   UNL     1       8.774  32.441  59.151  1.00  0.00    -0.271 OA
BRANCH   6   9
HETATM    9  C   UNL     1       7.150  32.140  61.614  1.00  0.00     0.085 A 
HETATM   10  C   UNL     1       8.065  31.597  62.500  1.00  0.00     0.052 A 
HETATM   11  C   UNL     1       8.984  30.436  62.420  1.00  0.00     0.072 C 
HETATM   12  N   UNL     1       8.008  32.376  63.622  1.00  0.00    -0.280 N 
HETATM   13  H   UNL     1       8.535  32.279  64.486  1.00  0.00     0.189 HD
HETATM   14  N   UNL     1       7.144  33.386  63.526  1.00  0.00    -0.177 NA
HETATM   15  C   UNL     1       6.600  33.258  62.309  1.00  0.00     0.079 A 
HETATM   16  C   UNL     1       5.580  34.258  61.909  1.00  0.00     0.075 C 
ENDBRANCH   6   9
ENDBRANCH   4   5
ENDBRANCH   1   4
BRANCH   1  17
HETATM   17  C   UNL     1       7.939  28.368  57.715  1.00  0.00     0.194 C 
HETATM   18  C   UNL     1       9.219  29.064  57.227  1.00  0.00     0.041 C 
BRANCH  17  19
HETATM   19  C   UNL     1       7.110  27.606  56.599  1.00  0.00     0.007 C 
HETATM   20  C   UNL     1       5.595  27.595  56.951  1.00  0.00     0.022 C 
HETATM   21  C   UNL     1       7.160  28.435  55.282  1.00  0.00     0.022 C 
BRANCH  19  22
HETATM   22  C   UNL     1       7.618  26.162  56.406  1.00  0.00    -0.048 A 
HETATM   23  C   UNL     1       8.298  25.492  57.442  1.00  0.00     0.008 A 
HETATM   24  C   UNL     1       8.800  24.198  57.271  1.00  0.00     0.001 A 
HETATM   25  C   UNL     1       8.637  23.540  56.060  1.00  0.00     0.000 A 
HETATM   26  C   UNL     1       7.965  24.173  55.022  1.00  0.00     0.001 A 
HETATM   27  C   UNL     1       7.458  25.465  55.193  1.00  0.00     0.008 A 
ENDBRANCH  19  22
ENDBRANCH  17  19
ENDBRANCH   1  17
TORSDOF 6
ENDMDL
MODEL 10
REMARK VINA RESULT:      -7.8      1.826      2.809
REMARK  6 active torsions:
REMARK  status: ('A' for Active; 'I' for Inactive)
REMARK    1  A    between atoms: C_8  and  N_9 
REMARK       I    between atoms: N_9  and  C_10 
REMARK    2  A    between atoms: C_10  and  C_11 
REMARK    3  A    between atoms: C_11  and  N_12 
REMARK    4  A    between atoms: N_12  and  C_15 
REMARK    5  A    between atoms: C_15  and  C_16 
REMARK    6  A    between atoms: C_16  and  C_17 
ROOT
HETATM    1  N   UNL     1       5.611  27.898  53.141  1.00  0.00    -0.062 N 
HETATM    2  H   UNL     1       5.156  27.614  52.262  1.00  0.00     0.278 HD
HETATM    3  H   UNL     1       6.310  28.611  52.878  1.00  0.00     0.278 HD
ENDROOT
BRANCH   1   4
HETATM    4  C   UNL     1       4.649  28.657  54.023  1.00  0.00     0.335 C 
BRANCH   4   5
HETATM    5  C   UNL     1       5.117  28.687  55.478  1.00  0.00     0.248 C 
HETATM    6  N   UNL     1       6.117  29.597  55.727  1.00  0.00    -0.322 N 
HETATM    7  H   UNL     1       6.547  30.092  54.953  1.00  0.00     0.169 HD
HETATM    8  O   UNL     1       4.554  27.945  56.279  1.00  0.00    -0.271 OA
BRANCH   6   9
HETATM    9  C   UNL     1       6.659  29.919  56.965  1.00  0.00     0.085 A 
HETATM   10  C   UNL     1       6.008  30.785  57.827  1.00  0.00     0.052 A 
HETATM   11  C   UNL     1       4.737  31.541  57.733  1.00  0.00     0.072 C 
HETATM   12  N   UNL     1       6.800  30.872  58.939  1.00  0.00    -0.280 N 
HETATM   13  H   UNL     1       6.648  31.419  59.781  1.00  0.00     0.189 HD
HETATM   14  N   UNL     1       7.898  30.120  58.870  1.00  0.00    -0.177 NA
HETATM   15  C   UNL     1       7.838  29.533  57.668  1.00  0.00     0.079 A 
HETATM   16  C   UNL     1       8.948  28.620  57.298  1.00  0.00     0.075 C 
ENDBRANCH   6   9
ENDBRANCH   4   5
ENDBRANCH   1   4
BRANCH   1  17
HETATM   17  C   UNL     1       6.396  26.726  53.730  1.00  0.00     0.194 C 
HETATM   18  C   UNL     1       7.865  27.175  53.721  1.00  0.00     0.041 C 
BRANCH  17  19
HETATM   19  C   UNL     1       6.101  25.348  53.002  1.00  0.00     0.007 C 
HETATM   20  C   UNL     1       4.585  25.009  53.057  1.00  0.00     0.022 C 
HETATM   21  C   UNL     1       6.370  25.517  51.478  1.00  0.00     0.022 C 
BRANCH  19  22
HETATM   22  C   UNL     1       6.922  24.197  53.621  1.00  0.00    -0.048 A 
HETATM   23  C   UNL     1       6.864  23.931  55.003  1.00  0.00     0.008 A 
HETATM   24  C   UNL     1       7.631  22.918  55.587  1.00  0.00     0.001 A 
HETATM   25  C   UNL     1       8.479  22.145  54.805  1.00  0.00     0.000 A 
HETATM   26  C   UNL     1       8.553  22.379  53.437  1.00  0.00     0.001 A 
HETATM   27  C   UNL     1       7.782  23.389  52.852  1.00  0.00     0.008 A 
ENDBRANCH  19  22
ENDBRANCH  17  19
ENDBRANCH   1  17
TORSDOF 6
ENDMDL
