MODEL 1
REMARK VINA RESULT:     -10.9      0.000      0.000
REMARK  5 active torsions:
REMARK  status: ('A' for Active; 'I' for Inactive)
REMARK    1  A    between atoms: C_5  and  C_6 
REMARK    2  A    between atoms: C_13  and  C_14 
REMARK       I    between atoms: C_14  and  N_15 
REMARK    3  A    between atoms: N_15  and  C_16 
REMARK    4  A    between atoms: C_19  and  C_20 
REMARK    5  A    between atoms: C_23  and  N_24 
ROOT
HETATM    1  C   UNL     1       8.286  29.128  57.757  1.00  0.00     0.262 C 
HETATM    2  N   UNL     1       8.216  29.013  56.389  1.00  0.00    -0.301 N 
HETATM    3  O   UNL     1       7.919  28.309  58.586  1.00  0.00    -0.267 OA
HETATM    4  H   UNL     1       8.684  29.681  55.799  1.00  0.00     0.171 HD
ENDROOT
BRANCH   2   5
HETATM    5  C   UNL     1       7.663  27.936  55.761  1.00  0.00     0.173 A 
HETATM    6  S   UNL     1       6.150  28.273  55.048  1.00  0.00    -0.061 SA
HETATM    7  C   UNL     1       6.069  26.648  54.504  1.00  0.00     0.085 A 
HETATM    8  C   UNL     1       7.201  25.960  54.904  1.00  0.00     0.076 A 
HETATM    9  N   UNL     1       8.103  26.712  55.645  1.00  0.00    -0.223 NA
BRANCH   8  10
HETATM   10  C   UNL     1       7.446  24.548  54.621  1.00  0.00    -0.007 A 
HETATM   11  C   UNL     1       7.460  23.579  55.637  1.00  0.00     0.016 A 
HETATM   12  C   UNL     1       7.709  22.234  55.341  1.00  0.00     0.037 A 
HETATM   13  C   UNL     1       7.945  21.849  54.016  1.00  0.00     0.102 A 
HETATM   14  C   UNL     1       7.923  22.798  52.988  1.00  0.00     0.037 A 
HETATM   15  C   UNL     1       7.669  24.140  53.296  1.00  0.00     0.016 A 
BRANCH  13  16
HETATM   16  N   UNL     1       8.216  20.440  53.705  1.00  0.00    -0.116 N 
HETATM   17  O   UNL     1       8.116  20.082  52.522  1.00  0.00    -0.532 OA
HETATM   18  O   UNL     1       8.522  19.690  54.642  1.00  0.00    -0.532 OA
ENDBRANCH  13  16
ENDBRANCH   8  10
ENDBRANCH   2   5
BRANCH   1  19
HETATM   19  C   UNL     1       8.918  30.369  58.167  1.00  0.00     0.095 A 
HETATM   20  C   UNL     1      10.241  30.722  58.000  1.00  0.00     0.093 A 
HETATM   21  C   UNL     1      11.421  30.079  57.390  1.00  0.00     0.080 C 
HETATM   22  O   UNL     1      10.437  31.972  58.492  1.00  0.00    -0.217 OA
HETATM   23  N   UNL     1       9.247  32.472  58.972  1.00  0.00    -0.127 NA
HETATM   24  C   UNL     1       8.326  31.514  58.778  1.00  0.00     0.114 A 
BRANCH  24  25
HETATM   25  C   UNL     1       6.942  31.736  59.183  1.00  0.00     0.018 A 
HETATM   26  C   UNL     1       6.582  32.196  60.460  1.00  0.00     0.046 A 
HETATM   27 CL   UNL     1       7.751  32.608  61.671  1.00  0.00    -0.083 Cl
HETATM   28  C   UNL     1       5.234  32.388  60.785  1.00  0.00     0.025 A 
HETATM   29  C   UNL     1       4.237  32.140  59.839  1.00  0.00     0.002 A 
HETATM   30  C   UNL     1       4.584  31.703  58.564  1.00  0.00     0.001 A 
HETATM   31  C   UNL     1       5.928  31.502  58.237  1.00  0.00     0.016 A 
ENDBRANCH  24  25
ENDBRANCH   1  19
TORSDOF 5
ENDMDL
MODEL 2
REMARK VINA RESULT:      -9.8      5.281      8.438
REMARK  5 active torsions:
REMARK  status: ('A' for Active; 'I' for Inactive)
REMARK    1  A    between atoms: C_5  and  C_6 
REMARK    2  A    between atoms: C_13  and  C_14 
REMARK       I    between atoms: C_14  and  N_15 
REMARK    3  A    between atoms: N_15  and  C_16 
REMARK    4  A    between atoms: C_19  and  C_20 
REMARK    5  A    between atoms: C_23  and  N_24 
ROOT
HETATM    1  C   UNL     1       6.484  25.717  55.202  1.00  0.00     0.262 C 
HETATM    2  N   UNL     1       6.923  26.676  54.321  1.00  0.00    -0.301 N 
HETATM    3  O   UNL     1       5.372  25.212  55.248  1.00  0.00    -0.267 OA
HETATM    4  H   UNL     1       7.902  26.912  54.274  1.00  0.00     0.171 HD
ENDROOT
BRANCH   2   5
HETATM    5  C   UNL     1       6.121  27.239  53.372  1.00  0.00     0.173 A 
HETATM    6  S   UNL     1       5.748  28.874  53.688  1.00  0.00    -0.061 SA
HETATM    7  C   UNL     1       4.816  28.916  52.248  1.00  0.00     0.085 A 
HETATM    8  C   UNL     1       4.854  27.680  51.625  1.00  0.00     0.076 A 
HETATM    9  N   UNL     1       5.595  26.717  52.297  1.00  0.00    -0.223 NA
BRANCH   8  10
HETATM   10  C   UNL     1       4.154  27.365  50.383  1.00  0.00    -0.007 A 
HETATM   11  C   UNL     1       3.178  28.219  49.844  1.00  0.00     0.016 A 
HETATM   12  C   UNL     1       2.513  27.889  48.658  1.00  0.00     0.037 A 
HETATM   13  C   UNL     1       2.825  26.694  47.999  1.00  0.00     0.102 A 
HETATM   14  C   UNL     1       3.803  25.836  48.514  1.00  0.00     0.037 A 
HETATM   15  C   UNL     1       4.465  26.179  49.699  1.00  0.00     0.016 A 
BRANCH  13  16
HETATM   16  N   UNL     1       2.121  26.341  46.760  1.00  0.00    -0.116 N 
HETATM   17  O   UNL     1       1.138  27.026  46.442  1.00  0.00    -0.532 OA
HETATM   18  O   UNL     1       2.546  25.376  46.108  1.00  0.00    -0.532 OA
ENDBRANCH  13  16
ENDBRANCH   8  10
ENDBRANCH   2   5
BRANCH   1  19
HETATM   19  C   UNL     1       7.535  25.287  56.107  1.00  0.00     0.095 A 
HETATM   20  C   UNL     1       8.026  25.975  57.197  1.00  0.00     0.093 A 
HETATM   21  C   UNL     1       7.713  27.267  57.839  1.00  0.00     0.080 C 
HETATM   22  O   UNL     1       8.985  25.230  57.802  1.00  0.00    -0.217 OA
HETATM   23  N   UNL     1       9.130  24.033  57.137  1.00  0.00    -0.127 NA
HETATM   24  C   UNL     1       8.258  24.058  56.116  1.00  0.00     0.114 A 
BRANCH  24  25
HETATM   25  C   UNL     1       8.162  22.920  55.207  1.00  0.00     0.018 A 
HETATM   26  C   UNL     1       8.138  21.587  55.649  1.00  0.00     0.046 A 
HETATM   27 CL   UNL     1       8.159  21.156  57.327  1.00  0.00    -0.083 Cl
HETATM   28  C   UNL     1       8.043  20.540  54.725  1.00  0.00     0.025 A 
HETATM   29  C   UNL     1       7.956  20.812  53.358  1.00  0.00     0.002 A 
HETATM   30  C   UNL     1       7.959  22.129  52.910  1.00  0.00     0.001 A 
HETATM   31  C   UNL     1       8.061  23.177  53.829  1.00  0.00     0.016 A 
ENDBRANCH  24  25
ENDBRANCH   1  19
TORSDOF 5
ENDMDL
MODEL 3
REMARK VINA RESULT:      -9.6      5.557      7.930
REMARK  5 active torsions:
REMARK  status: ('A' for Active; 'I' for Inactive)
REMARK    1  A    between atoms: C_5  and  C_6 
REMARK    2  A    between atoms: C_13  and  C_14 
REMARK       I    between atoms: C_14  and  N_15 
REMARK    3  A    between atoms: N_15  and  C_16 
REMARK    4  A    between atoms: C_19  and  C_20 
REMARK    5  A    between atoms: C_23  and  N_24 
ROOT
HETATM    1  C   UNL     1       3.914  28.855  52.251  1.00  0.00     0.262 C 
HETATM    2  N   UNL     1       5.272  28.696  52.386  1.00  0.00    -0.301 N 
HETATM    3  O   UNL     1       3.038  28.238  52.838  1.00  0.00    -0.267 OA
HETATM    4  H   UNL     1       5.905  29.359  51.968  1.00  0.00     0.171 HD
ENDROOT
BRANCH   2   5
HETATM    5  C   UNL     1       5.835  27.755  53.197  1.00  0.00     0.173 A 
HETATM    6  S   UNL     1       6.232  28.351  54.747  1.00  0.00    -0.061 SA
HETATM    7  C   UNL     1       6.825  26.796  55.167  1.00  0.00     0.085 A 
HETATM    8  C   UNL     1       6.680  25.930  54.097  1.00  0.00     0.076 A 
HETATM    9  N   UNL     1       6.125  26.504  52.961  1.00  0.00    -0.223 NA
BRANCH   8  10
HETATM   10  C   UNL     1       7.098  24.531  54.111  1.00  0.00    -0.007 A 
HETATM   11  C   UNL     1       7.155  23.786  55.300  1.00  0.00     0.016 A 
HETATM   12  C   UNL     1       7.571  22.450  55.289  1.00  0.00     0.037 A 
HETATM   13  C   UNL     1       7.933  21.848  54.077  1.00  0.00     0.102 A 
HETATM   14  C   UNL     1       7.870  22.571  52.880  1.00  0.00     0.037 A 
HETATM   15  C   UNL     1       7.449  23.905  52.904  1.00  0.00     0.016 A 
BRANCH  13  16
HETATM   16  N   UNL     1       8.379  20.449  54.064  1.00  0.00    -0.116 N 
HETATM   17  O   UNL     1       8.588  19.902  55.157  1.00  0.00    -0.532 OA
HETATM   18  O   UNL     1       8.526  19.899  52.964  1.00  0.00    -0.532 OA
ENDBRANCH  13  16
ENDBRANCH   8  10
ENDBRANCH   2   5
BRANCH   1  19
HETATM   19  C   UNL     1       3.580  29.923  51.327  1.00  0.00     0.095 A 
HETATM   20  C   UNL     1       3.629  31.280  51.571  1.00  0.00     0.093 A 
HETATM   21  C   UNL     1       4.016  32.117  52.724  1.00  0.00     0.080 C 
HETATM   22  O   UNL     1       3.266  31.951  50.448  1.00  0.00    -0.217 OA
HETATM   23  N   UNL     1       2.992  31.054  49.441  1.00  0.00    -0.127 NA
HETATM   24  C   UNL     1       3.181  29.830  49.960  1.00  0.00     0.114 A 
BRANCH  24  25
HETATM   25  C   UNL     1       2.972  28.644  49.136  1.00  0.00     0.018 A 
HETATM   26  C   UNL     1       4.026  27.891  48.596  1.00  0.00     0.046 A 
HETATM   27 CL   UNL     1       5.691  28.256  48.903  1.00  0.00    -0.083 Cl
HETATM   28  C   UNL     1       3.756  26.762  47.813  1.00  0.00     0.025 A 
HETATM   29  C   UNL     1       2.439  26.366  47.575  1.00  0.00     0.002 A 
HETATM   30  C   UNL     1       1.386  27.094  48.122  1.00  0.00     0.001 A 
HETATM   31  C   UNL     1       1.650  28.226  48.898  1.00  0.00     0.016 A 
ENDBRANCH  24  25
ENDBRANCH   1  19
TORSDOF 5
ENDMDL
MODEL 4
REMARK VINA RESULT:      -9.6      2.472      3.174
REMARK  5 active torsions:
REMARK  status: ('A' for Active; 'I' for Inactive)
REMARK    1  A    between atoms: C_5  and  C_6 
REMARK    2  A    between atoms: C_13  and  C_14 
REMARK       I    between atoms: C_14  and  N_15 
REMARK    3  A    between atoms: N_15  and  C_16 
REMARK    4  A    between atoms: C_19  and  C_20 
REMARK    5  A    between atoms: C_23  and  N_24 
ROOT
HETATM    1  C   UNL     1       6.224  29.198  56.807  1.00  0.00     0.262 C 
HETATM    2  N   UNL     1       6.928  29.121  55.629  1.00  0.00    -0.301 N 
HETATM    3  O   UNL     1       5.565  28.312  57.332  1.00  0.00    -0.267 OA
HETATM    4  H   UNL     1       7.558  29.861  55.365  1.00  0.00     0.171 HD
ENDROOT
BRANCH   2   5
HETATM    5  C   UNL     1       6.944  28.006  54.843  1.00  0.00     0.173 A 
HETATM    6  S   UNL     1       6.344  28.281  53.269  1.00  0.00    -0.061 SA
HETATM    7  C   UNL     1       6.635  26.632  52.895  1.00  0.00     0.085 A 
HETATM    8  C   UNL     1       7.170  25.985  53.996  1.00  0.00     0.076 A 
HETATM    9  N   UNL     1       7.324  26.788  55.119  1.00  0.00    -0.223 NA
BRANCH   8  10
HETATM   10  C   UNL     1       7.521  24.568  54.025  1.00  0.00    -0.007 A 
HETATM   11  C   UNL     1       7.625  23.806  52.850  1.00  0.00     0.016 A 
HETATM   12  C   UNL     1       7.951  22.446  52.905  1.00  0.00     0.037 A 
HETATM   13  C   UNL     1       8.178  21.838  54.146  1.00  0.00     0.102 A 
HETATM   14  C   UNL     1       8.091  22.584  55.327  1.00  0.00     0.037 A 
HETATM   15  C   UNL     1       7.768  23.945  55.259  1.00  0.00     0.016 A 
BRANCH  13  16
HETATM   16  N   UNL     1       8.510  20.409  54.207  1.00  0.00    -0.116 N 
HETATM   17  O   UNL     1       8.642  19.804  53.133  1.00  0.00    -0.532 OA
HETATM   18  O   UNL     1       8.634  19.891  55.326  1.00  0.00    -0.532 OA
ENDBRANCH  13  16
ENDBRANCH   8  10
ENDBRANCH   2   5
BRANCH   1  19
HETATM   19  C   UNL     1       6.373  30.492  57.447  1.00  0.00     0.095 A 
HETATM   20  C   UNL     1       7.277  30.833  58.432  1.00  0.00     0.093 A 
HETATM   21  C   UNL     1       8.355  30.121  59.147  1.00  0.00     0.080 C 
HETATM   22  O   UNL     1       7.120  32.143  58.751  1.00  0.00    -0.217 OA
HETATM   23  N   UNL     1       6.128  32.693  57.971  1.00  0.00    -0.127 NA
HETATM   24  C   UNL     1       5.674  31.707  57.181  1.00  0.00     0.114 A 
BRANCH  24  25
HETATM   25  C   UNL     1       4.605  31.969  56.222  1.00  0.00     0.018 A 
HETATM   26  C   UNL     1       3.329  31.392  56.322  1.00  0.00     0.046 A 
HETATM   27 CL   UNL     1       2.870  30.355  57.631  1.00  0.00    -0.083 Cl
HETATM   28  C   UNL     1       2.347  31.685  55.368  1.00  0.00     0.025 A 
HETATM   29  C   UNL     1       2.623  32.565  54.319  1.00  0.00     0.002 A 
HETATM   30  C   UNL     1       3.878  33.157  54.222  1.00  0.00     0.001 A 
HETATM   31  C   UNL     1       4.864  32.862  55.167  1.00  0.00     0.016 A 
ENDBRANCH  24  25
ENDBRANCH   1  19
TORSDOF 5
ENDMDL
MODEL 5
REMARK VINA RESULT:      -9.5      3.894      9.803
REMARK  5 active torsions:
REMARK  status: ('A' for Active; 'I' for Inactive)
REMARK    1  A    between atoms: C_5  and  C_6 
REMARK    2  A    between atoms: C_13  and  C_14 
REMARK       I    between atoms: C_14  and  N_15 
REMARK    3  A    between atoms: N_15  and  C_16 
REMARK    4  A    between atoms: C_19  and  C_20 
REMARK    5  A    between atoms: C_23  and  N_24 
ROOT
HETATM    1  C   UNL     1       5.969  27.815  56.036  1.00  0.00     0.262 C 
HETATM    2  N   UNL     1       6.963  28.742  55.832  1.00  0.00    -0.301 N 
HETATM    3  O   UNL     1       5.514  27.445  57.108  1.00  0.00    -0.267 OA
HETATM    4  H   UNL     1       7.157  29.083  54.904  1.00  0.00     0.171 HD
ENDROOT
BRANCH   2   5
HETATM    5  C   UNL     1       7.624  29.361  56.851  1.00  0.00     0.173 A 
HETATM    6  S   UNL     1       9.322  29.233  56.732  1.00  0.00    -0.061 SA
HETATM    7  C   UNL     1       9.469  30.140  58.181  1.00  0.00     0.085 A 
HETATM    8  C   UNL     1       8.214  30.477  58.657  1.00  0.00     0.076 A 
HETATM    9  N   UNL     1       7.158  30.003  57.889  1.00  0.00    -0.223 NA
BRANCH   8  10
HETATM   10  C   UNL     1       7.977  31.235  59.883  1.00  0.00    -0.007 A 
HETATM   11  C   UNL     1       8.854  31.168  60.978  1.00  0.00     0.016 A 
HETATM   12  C   UNL     1       8.598  31.895  62.146  1.00  0.00     0.037 A 
HETATM   13  C   UNL     1       7.456  32.701  62.223  1.00  0.00     0.102 A 
HETATM   14  C   UNL     1       6.578  32.792  61.137  1.00  0.00     0.037 A 
HETATM   15  C   UNL     1       6.846  32.062  59.973  1.00  0.00     0.016 A 
BRANCH  13  16
HETATM   16  N   UNL     1       7.181  33.457  63.451  1.00  0.00    -0.116 N 
HETATM   17  O   UNL     1       7.880  33.212  64.445  1.00  0.00    -0.532 OA
HETATM   18  O   UNL     1       6.265  34.290  63.424  1.00  0.00    -0.532 OA
ENDBRANCH  13  16
ENDBRANCH   8  10
ENDBRANCH   2   5
BRANCH   1  19
HETATM   19  C   UNL     1       5.432  27.308  54.786  1.00  0.00     0.095 A 
HETATM   20  C   UNL     1       4.537  27.941  53.949  1.00  0.00     0.093 A 
HETATM   21  C   UNL     1       3.849  29.248  53.957  1.00  0.00     0.080 C 
HETATM   22  O   UNL     1       4.300  27.154  52.868  1.00  0.00    -0.217 OA
HETATM   23  N   UNL     1       5.047  26.002  52.963  1.00  0.00    -0.127 NA
HETATM   24  C   UNL     1       5.734  26.087  54.113  1.00  0.00     0.114 A 
BRANCH  24  25
HETATM   25  C   UNL     1       6.634  25.009  54.511  1.00  0.00     0.018 A 
HETATM   26  C   UNL     1       7.654  24.518  53.681  1.00  0.00     0.046 A 
HETATM   27 CL   UNL     1       7.991  25.183  52.117  1.00  0.00    -0.083 Cl
HETATM   28  C   UNL     1       8.484  23.481  54.124  1.00  0.00     0.025 A 
HETATM   29  C   UNL     1       8.316  22.937  55.399  1.00  0.00     0.002 A 
HETATM   30  C   UNL     1       7.321  23.430  56.237  1.00  0.00     0.001 A 
HETATM   31  C   UNL     1       6.485  24.460  55.797  1.00  0.00     0.016 A 
ENDBRANCH  24  25
ENDBRANCH   1  19
TORSDOF 5
ENDMDL
MODEL 6
REMARK VINA RESULT:      -9.4      3.227      9.013
REMARK  5 active torsions:
REMARK  status: ('A' for Active; 'I' for Inactive)
REMARK    1  A    between atoms: C_5  and  C_6 
REMARK    2  A    between atoms: C_13  and  C_14 
REMARK       I    between atoms: C_14  and  N_15 
REMARK    3  A    between atoms: N_15  and  C_16 
REMARK    4  A    between atoms: C_19  and  C_20 
REMARK    5  A    between atoms: C_23  and  N_24 
ROOT
HETATM    1  C   UNL     1       7.970  26.360  56.998  1.00  0.00     0.262 C 
HETATM    2  N   UNL     1       8.286  27.615  56.537  1.00  0.00    -0.301 N 
HETATM    3  O   UNL     1       7.918  25.993  58.163  1.00  0.00    -0.267 OA
HETATM    4  H   UNL     1       8.152  27.849  55.566  1.00  0.00     0.171 HD
ENDROOT
BRANCH   2   5
HETATM    5  C   UNL     1       8.637  28.644  57.361  1.00  0.00     0.173 A 
HETATM    6  S   UNL     1      10.063  29.444  56.871  1.00  0.00    -0.061 SA
HETATM    7  C   UNL     1       9.908  30.496  58.218  1.00  0.00     0.085 A 
HETATM    8  C   UNL     1       8.780  30.165  58.948  1.00  0.00     0.076 A 
HETATM    9  N   UNL     1       8.068  29.081  58.452  1.00  0.00    -0.223 NA
BRANCH   8  10
HETATM   10  C   UNL     1       8.361  30.852  60.167  1.00  0.00    -0.007 A 
HETATM   11  C   UNL     1       9.018  30.656  61.392  1.00  0.00     0.016 A 
HETATM   12  C   UNL     1       8.589  31.317  62.549  1.00  0.00     0.037 A 
HETATM   13  C   UNL     1       7.493  32.186  62.484  1.00  0.00     0.102 A 
HETATM   14  C   UNL     1       6.833  32.404  61.269  1.00  0.00     0.037 A 
HETATM   15  C   UNL     1       7.274  31.740  60.118  1.00  0.00     0.016 A 
BRANCH  13  16
HETATM   16  N   UNL     1       7.036  32.873  63.698  1.00  0.00    -0.116 N 
HETATM   17  O   UNL     1       5.816  32.903  63.917  1.00  0.00    -0.532 OA
HETATM   18  O   UNL     1       7.894  33.386  64.429  1.00  0.00    -0.532 OA
ENDBRANCH  13  16
ENDBRANCH   8  10
ENDBRANCH   2   5
BRANCH   1  19
HETATM   19  C   UNL     1       7.634  25.452  55.916  1.00  0.00     0.095 A 
HETATM   20  C   UNL     1       8.053  24.146  55.766  1.00  0.00     0.093 A 
HETATM   21  C   UNL     1       8.897  23.227  56.555  1.00  0.00     0.080 C 
HETATM   22  O   UNL     1       7.503  23.626  54.639  1.00  0.00    -0.217 OA
HETATM   23  N   UNL     1       6.698  24.568  54.040  1.00  0.00    -0.127 NA
HETATM   24  C   UNL     1       6.769  25.670  54.803  1.00  0.00     0.114 A 
BRANCH  24  25
HETATM   25  C   UNL     1       6.016  26.866  54.436  1.00  0.00     0.018 A 
HETATM   26  C   UNL     1       5.013  27.418  55.247  1.00  0.00     0.046 A 
HETATM   27 CL   UNL     1       4.604  26.773  56.802  1.00  0.00    -0.083 Cl
HETATM   28  C   UNL     1       4.329  28.568  54.836  1.00  0.00     0.025 A 
HETATM   29  C   UNL     1       4.648  29.184  53.624  1.00  0.00     0.002 A 
HETATM   30  C   UNL     1       5.654  28.656  52.821  1.00  0.00     0.001 A 
HETATM   31  C   UNL     1       6.335  27.504  53.224  1.00  0.00     0.016 A 
ENDBRANCH  24  25
ENDBRANCH   1  19
TORSDOF 5
ENDMDL
MODEL 7
REMARK VINA RESULT:      -9.2      6.427      8.851
REMARK  5 active torsions:
REMARK  status: ('A' for Active; 'I' for Inactive)
REMARK    1  A    between atoms: C_5  and  C_6 
REMARK    2  A    between atoms: C_13  and  C_14 
REMARK       I    between atoms: C_14  and  N_15 
REMARK    3  A    between atoms: N_15  and  C_16 
REMARK    4  A    between atoms: C_19  and  C_20 
REMARK    5  A    between atoms: C_23  and  N_24 
ROOT
HETATM    1  C   UNL     1       4.703  27.378  49.230  1.00  0.00     0.262 C 
HETATM    2  N   UNL     1       4.249  26.670  50.317  1.00  0.00    -0.301 N 
HETATM    3  O   UNL     1       5.850  27.742  49.015  1.00  0.00    -0.267 OA
HETATM    4  H   UNL     1       3.315  26.291  50.321  1.00  0.00     0.171 HD
ENDROOT
BRANCH   2   5
HETATM    5  C   UNL     1       5.052  26.306  51.357  1.00  0.00     0.173 A 
HETATM    6  S   UNL     1       5.525  27.620  52.337  1.00  0.00    -0.061 SA
HETATM    7  C   UNL     1       6.413  26.535  53.325  1.00  0.00     0.085 A 
HETATM    8  C   UNL     1       6.288  25.244  52.840  1.00  0.00     0.076 A 
HETATM    9  N   UNL     1       5.515  25.131  51.692  1.00  0.00    -0.223 NA
BRANCH   8  10
HETATM   10  C   UNL     1       6.931  24.077  53.437  1.00  0.00    -0.007 A 
HETATM   11  C   UNL     1       7.643  23.145  52.664  1.00  0.00     0.016 A 
HETATM   12  C   UNL     1       8.240  22.028  53.259  1.00  0.00     0.037 A 
HETATM   13  C   UNL     1       8.129  21.838  54.642  1.00  0.00     0.102 A 
HETATM   14  C   UNL     1       7.435  22.762  55.431  1.00  0.00     0.037 A 
HETATM   15  C   UNL     1       6.845  23.878  54.825  1.00  0.00     0.016 A 
BRANCH  13  16
HETATM   16  N   UNL     1       8.747  20.662  55.266  1.00  0.00    -0.116 N 
HETATM   17  O   UNL     1       9.116  20.763  56.445  1.00  0.00    -0.532 OA
HETATM   18  O   UNL     1       8.869  19.639  54.577  1.00  0.00    -0.532 OA
ENDBRANCH  13  16
ENDBRANCH   8  10
ENDBRANCH   2   5
BRANCH   1  19
HETATM   19  C   UNL     1       3.647  27.636  48.268  1.00  0.00     0.095 A 
HETATM   20  C   UNL     1       2.943  26.703  47.536  1.00  0.00     0.093 A 
HETATM   21  C   UNL     1       2.949  25.229  47.448  1.00  0.00     0.080 C 
HETATM   22  O   UNL     1       2.022  27.338  46.767  1.00  0.00    -0.217 OA
HETATM   23  N   UNL     1       2.088  28.695  46.992  1.00  0.00    -0.127 NA
HETATM   24  C   UNL     1       3.062  28.883  47.897  1.00  0.00     0.114 A 
BRANCH  24  25
HETATM   25  C   UNL     1       3.385  30.231  48.356  1.00  0.00     0.018 A 
HETATM   26  C   UNL     1       2.917  30.758  49.570  1.00  0.00     0.046 A 
HETATM   27 CL   UNL     1       1.955  29.841  50.681  1.00  0.00    -0.083 Cl
HETATM   28  C   UNL     1       3.264  32.059  49.953  1.00  0.00     0.025 A 
HETATM   29  C   UNL     1       4.091  32.837  49.140  1.00  0.00     0.002 A 
HETATM   30  C   UNL     1       4.577  32.317  47.944  1.00  0.00     0.001 A 
HETATM   31  C   UNL     1       4.227  31.022  47.554  1.00  0.00     0.016 A 
ENDBRANCH  24  25
ENDBRANCH   1  19
TORSDOF 5
ENDMDL
MODEL 8
REMARK VINA RESULT:      -9.0      2.563      3.458
REMARK  5 active torsions:
REMARK  status: ('A' for Active; 'I' for Inactive)
REMARK    1  A    between atoms: C_5  and  C_6 
REMARK    2  A    between atoms: C_13  and  C_14 
REMARK       I    between atoms: C_14  and  N_15 
REMARK    3  A    between atoms: N_15  and  C_16 
REMARK    4  A    between atoms: C_19  and  C_20 
REMARK    5  A    between atoms: C_23  and  N_24 
ROOT
HETATM    1  C   UNL     1       5.301  29.110  56.203  1.00  0.00     0.262 C 
HETATM    2  N   UNL     1       6.599  28.749  55.932  1.00  0.00    -0.301 N 
HETATM    3  O   UNL     1       4.439  28.422  56.728  1.00  0.00    -0.267 OA
HETATM    4  H   UNL     1       7.268  29.442  55.635  1.00  0.00     0.171 HD
ENDROOT
BRANCH   2   5
HETATM    5  C   UNL     1       7.096  27.505  56.191  1.00  0.00     0.173 A 
HETATM    6  S   UNL     1       7.746  27.351  57.762  1.00  0.00    -0.061 SA
HETATM    7  C   UNL     1       8.135  25.716  57.416  1.00  0.00     0.085 A 
HETATM    8  C   UNL     1       7.743  25.400  56.126  1.00  0.00     0.076 A 
HETATM    9  N   UNL     1       7.163  26.449  55.425  1.00  0.00    -0.223 NA
BRANCH   8  10
HETATM   10  C   UNL     1       7.941  24.093  55.505  1.00  0.00    -0.007 A 
HETATM   11  C   UNL     1       8.305  22.963  56.255  1.00  0.00     0.016 A 
HETATM   12  C   UNL     1       8.500  21.724  55.635  1.00  0.00     0.037 A 
HETATM   13  C   UNL     1       8.329  21.609  54.249  1.00  0.00     0.102 A 
HETATM   14  C   UNL     1       7.954  22.721  53.487  1.00  0.00     0.037 A 
HETATM   15  C   UNL     1       7.758  23.954  54.120  1.00  0.00     0.016 A 
BRANCH  13  16
HETATM   16  N   UNL     1       8.543  20.312  53.596  1.00  0.00    -0.116 N 
HETATM   17  O   UNL     1       8.968  19.380  54.293  1.00  0.00    -0.532 OA
HETATM   18  O   UNL     1       8.293  20.227  52.385  1.00  0.00    -0.532 OA
ENDBRANCH  13  16
ENDBRANCH   8  10
ENDBRANCH   2   5
BRANCH   1  19
HETATM   19  C   UNL     1       5.030  30.487  55.830  1.00  0.00     0.095 A 
HETATM   20  C   UNL     1       4.463  30.934  54.655  1.00  0.00     0.093 A 
HETATM   21  C   UNL     1       3.935  30.282  53.440  1.00  0.00     0.080 C 
HETATM   22  O   UNL     1       4.354  32.286  54.696  1.00  0.00    -0.217 OA
HETATM   23  N   UNL     1       4.826  32.752  55.902  1.00  0.00    -0.127 NA
HETATM   24  C   UNL     1       5.233  31.675  56.593  1.00  0.00     0.114 A 
BRANCH  24  25
HETATM   25  C   UNL     1       5.793  31.831  57.932  1.00  0.00     0.018 A 
HETATM   26  C   UNL     1       5.091  32.432  58.989  1.00  0.00     0.046 A 
HETATM   27 CL   UNL     1       3.461  32.997  58.830  1.00  0.00    -0.083 Cl
HETATM   28  C   UNL     1       5.685  32.551  60.251  1.00  0.00     0.025 A 
HETATM   29  C   UNL     1       6.973  32.059  60.474  1.00  0.00     0.002 A 
HETATM   30  C   UNL     1       7.670  31.445  59.438  1.00  0.00     0.001 A 
HETATM   31  C   UNL     1       7.084  31.330  58.175  1.00  0.00     0.016 A 
ENDBRANCH  24  25
ENDBRANCH   1  19
TORSDOF 5
ENDMDL
MODEL 9
REMARK VINA RESULT:      -8.9      3.348      9.301
REMARK  5 active torsions:
REMARK  status: ('A' for Active; 'I' for Inactive)
REMARK    1  A    between atoms: C_5  and  C_6 
REMARK    2  A    between atoms: C_13  and  C_14 
REMARK       I    between atoms: C_14  and  N_15 
REMARK    3  A    between atoms: N_15  and  C_16 
REMARK    4  A    between atoms: C_19  and  C_20 
REMARK    5  A    between atoms: C_23  and  N_24 
ROOT
HETATM    1  C   UNL     1       6.310  27.623  53.828  1.00  0.00     0.262 C 
HETATM    2  N   UNL     1       5.310  28.113  54.634  1.00  0.00    -0.301 N 
HETATM    3  O   UNL     1       7.476  27.987  53.796  1.00  0.00    -0.267 OA
HETATM    4  H   UNL     1       4.422  27.640  54.686  1.00  0.00     0.171 HD
ENDROOT
BRANCH   2   5
HETATM    5  C   UNL     1       5.495  29.144  55.508  1.00  0.00     0.173 A 
HETATM    6  S   UNL     1       4.581  30.532  55.119  1.00  0.00    -0.061 SA
HETATM    7  C   UNL     1       5.243  31.323  56.490  1.00  0.00     0.085 A 
HETATM    8  C   UNL     1       6.116  30.475  57.150  1.00  0.00     0.076 A 
HETATM    9  N   UNL     1       6.266  29.227  56.559  1.00  0.00    -0.223 NA
BRANCH   8  10
HETATM   10  C   UNL     1       6.865  30.839  58.349  1.00  0.00    -0.007 A 
HETATM   11  C   UNL     1       8.001  30.124  58.760  1.00  0.00     0.016 A 
HETATM   12  C   UNL     1       8.695  30.485  59.921  1.00  0.00     0.037 A 
HETATM   13  C   UNL     1       8.252  31.575  60.681  1.00  0.00     0.102 A 
HETATM   14  C   UNL     1       7.129  32.308  60.280  1.00  0.00     0.037 A 
HETATM   15  C   UNL     1       6.446  31.939  59.115  1.00  0.00     0.016 A 
BRANCH  13  16
HETATM   16  N   UNL     1       8.972  31.950  61.904  1.00  0.00    -0.116 N 
HETATM   17  O   UNL     1       8.299  32.190  62.916  1.00  0.00    -0.532 OA
HETATM   18  O   UNL     1      10.208  32.011  61.850  1.00  0.00    -0.532 OA
ENDBRANCH  13  16
ENDBRANCH   8  10
ENDBRANCH   2   5
BRANCH   1  19
HETATM   19  C   UNL     1       5.848  26.529  52.993  1.00  0.00     0.095 A 
HETATM   20  C   UNL     1       5.058  26.620  51.866  1.00  0.00     0.093 A 
HETATM   21  C   UNL     1       4.443  27.731  51.113  1.00  0.00     0.080 C 
HETATM   22  O   UNL     1       4.866  25.379  51.352  1.00  0.00    -0.217 OA
HETATM   23  N   UNL     1       5.540  24.452  52.115  1.00  0.00    -0.127 NA
HETATM   24  C   UNL     1       6.137  25.137  53.104  1.00  0.00     0.114 A 
BRANCH  24  25
HETATM   25  C   UNL     1       6.943  24.435  54.098  1.00  0.00     0.018 A 
HETATM   26  C   UNL     1       6.642  24.439  55.469  1.00  0.00     0.046 A 
HETATM   27 CL   UNL     1       5.244  25.229  56.119  1.00  0.00    -0.083 Cl
HETATM   28  C   UNL     1       7.457  23.744  56.371  1.00  0.00     0.025 A 
HETATM   29  C   UNL     1       8.566  23.029  55.914  1.00  0.00     0.002 A 
HETATM   30  C   UNL     1       8.861  23.002  54.555  1.00  0.00     0.001 A 
HETATM   31  C   UNL     1       8.056  23.700  53.651  1.00  0.00     0.016 A 
ENDBRANCH  24  25
ENDBRANCH   1  19
TORSDOF 5
ENDMDL
MODEL 10
REMARK VINA RESULT:      -8.9      6.879      9.131
REMARK  5 active torsions:
REMARK  status: ('A' for Active; 'I' for Inactive)
REMARK    1  A    between atoms: C_5  and  C_6 
REMARK    2  A    between atoms: C_13  and  C_14 
REMARK       I    between atoms: C_14  and  N_15 
REMARK    3  A    between atoms: N_15  and  C_16 
REMARK    4  A    between atoms: C_19  and  C_20 
REMARK    5  A    between atoms: C_23  and  N_24 
ROOT
HETATM    1  C   UNL     1       4.920  28.464  53.126  1.00  0.00     0.262 C 
HETATM    2  N   UNL     1       5.559  29.120  52.101  1.00  0.00    -0.301 N 
HETATM    3  O   UNL     1       3.826  27.922  53.085  1.00  0.00    -0.267 OA
HETATM    4  H   UNL     1       6.523  29.399  52.199  1.00  0.00     0.171 HD
ENDROOT
BRANCH   2   5
HETATM    5  C   UNL     1       5.006  29.290  50.866  1.00  0.00     0.173 A 
HETATM    6  S   UNL     1       5.882  30.370  49.876  1.00  0.00    -0.061 SA
HETATM    7  C   UNL     1       4.733  30.120  48.626  1.00  0.00     0.085 A 
HETATM    8  C   UNL     1       3.761  29.230  49.049  1.00  0.00     0.076 A 
HETATM    9  N   UNL     1       3.921  28.776  50.352  1.00  0.00    -0.223 NA
BRANCH   8  10
HETATM   10  C   UNL     1       2.623  28.810  48.236  1.00  0.00    -0.007 A 
HETATM   11  C   UNL     1       2.486  27.490  47.777  1.00  0.00     0.016 A 
HETATM   12  C   UNL     1       1.393  27.115  46.989  1.00  0.00     0.037 A 
HETATM   13  C   UNL     1       0.421  28.067  46.655  1.00  0.00     0.102 A 
HETATM   14  C   UNL     1       0.533  29.384  47.113  1.00  0.00     0.037 A 
HETATM   15  C   UNL     1       1.630  29.746  47.905  1.00  0.00     0.016 A 
BRANCH  13  16
HETATM   16  N   UNL     1      -0.722  27.678  45.820  1.00  0.00    -0.116 N 
HETATM   17  O   UNL     1      -0.523  26.840  44.928  1.00  0.00    -0.532 OA
HETATM   18  O   UNL     1      -1.815  28.213  46.050  1.00  0.00    -0.532 OA
ENDBRANCH  13  16
ENDBRANCH   8  10
ENDBRANCH   2   5
BRANCH   1  19
HETATM   19  C   UNL     1       5.726  28.425  54.332  1.00  0.00     0.095 A 
HETATM   20  C   UNL     1       5.764  29.368  55.338  1.00  0.00     0.093 A 
HETATM   21  C   UNL     1       5.069  30.645  55.594  1.00  0.00     0.080 C 
HETATM   22  O   UNL     1       6.622  28.956  56.306  1.00  0.00    -0.217 OA
HETATM   23  N   UNL     1       7.149  27.731  55.968  1.00  0.00    -0.127 NA
HETATM   24  C   UNL     1       6.613  27.401  54.781  1.00  0.00     0.114 A 
BRANCH  24  25
HETATM   25  C   UNL     1       6.971  26.140  54.140  1.00  0.00     0.018 A 
HETATM   26  C   UNL     1       6.641  24.886  54.679  1.00  0.00     0.046 A 
HETATM   27 CL   UNL     1       5.716  24.706  56.133  1.00  0.00    -0.083 Cl
HETATM   28  C   UNL     1       7.014  23.713  54.012  1.00  0.00     0.025 A 
HETATM   29  C   UNL     1       7.704  23.779  52.800  1.00  0.00     0.002 A 
HETATM   30  C   UNL     1       8.019  25.016  52.248  1.00  0.00     0.001 A 
HETATM   31  C   UNL     1       7.655  26.190  52.912  1.00  0.00     0.016 A 
ENDBRANCH  24  25
ENDBRANCH   1  19
TORSDOF 5
ENDMDL
