MODEL 1
REMARK VINA RESULT:      -9.7      0.000      0.000
REMARK  11 active torsions:
REMARK  status: ('A' for Active; 'I' for Inactive)
REMARK    1  A    between atoms: C_2  and  O_3 
REMARK    2  A    between atoms: C_2  and  C_4 
REMARK    3  A    between atoms: C_8  and  C_9 
REMARK    4  A    between atoms: C_12  and  C_13 
REMARK    5  A    between atoms: C_13  and  C_14 
REMARK    6  A    between atoms: C_14  and  N_15 
REMARK    7  A    between atoms: C_14  and  C_29 
REMARK       I    between atoms: N_15  and  C_16 
REMARK    8  A    between atoms: C_16  and  C_17 
REMARK    9  A    between atoms: C_21  and  O_22 
REMARK   10  A    between atoms: O_22  and  C_23 
REMARK   11  A    between atoms: C_29  and  N_30 
ROOT
HETATM    1  C   UNL     1       9.363  29.034  57.148  1.00  0.00     0.114 C 
ENDROOT
BRANCH   1   2
HETATM    2  C   UNL     1       8.110  29.949  57.157  1.00  0.00     0.065 C 
BRANCH   2   3
HETATM    3  C   UNL     1       7.761  30.735  58.407  1.00  0.00    -0.056 A 
HETATM    4  C   UNL     1       6.711  31.656  58.512  1.00  0.00     0.008 A 
HETATM    5  C   UNL     1       6.394  32.255  59.740  1.00  0.00     0.014 A 
HETATM    6  C   UNL     1       7.129  31.964  60.891  1.00  0.00    -0.006 A 
HETATM    7  C   UNL     1       8.220  31.097  60.780  1.00  0.00     0.014 A 
HETATM    8  C   UNL     1       8.530  30.490  59.557  1.00  0.00     0.008 A 
BRANCH   6   9
HETATM    9  C   UNL     1       6.777  32.511  62.190  1.00  0.00     0.085 A 
HETATM   10  C   UNL     1       7.587  32.545  63.306  1.00  0.00     0.130 A 
HETATM   11  N   UNL     1       6.866  33.211  64.266  1.00  0.00    -0.315 N 
HETATM   12  C   UNL     1       5.646  33.543  63.695  1.00  0.00     0.143 A 
HETATM   13  C   UNL     1       7.221  33.537  65.568  1.00  0.00     0.098 A 
HETATM   14  C   UNL     1       4.673  34.240  64.501  1.00  0.00     0.017 A 
HETATM   15  N   UNL     1       5.574  33.129  62.444  1.00  0.00    -0.228 NA
HETATM   16  C   UNL     1       5.039  34.546  65.772  1.00  0.00     0.015 A 
HETATM   17  C   UNL     1       6.339  34.200  66.332  1.00  0.00     0.018 A 
BRANCH  14  18
HETATM   18  C   UNL     1       3.313  34.607  63.912  1.00  0.00     0.150 C 
HETATM   19  C   UNL     1       3.188  35.966  63.234  1.00  0.00     0.044 C 
BRANCH  18  20
HETATM   20  O   UNL     1       2.332  34.567  64.954  1.00  0.00    -0.391 OA
HETATM   21  H   UNL     1       2.230  35.490  65.261  1.00  0.00     0.210 HD
ENDBRANCH  18  20
ENDBRANCH  14  18
ENDBRANCH   6   9
ENDBRANCH   2   3
ENDBRANCH   1   2
BRANCH   1  22
HETATM   22  N   UNL     1       9.005  27.703  56.621  1.00  0.00    -0.350 N 
HETATM   23  C   UNL     1       8.249  26.747  57.251  1.00  0.00     0.252 C 
HETATM   24  O   UNL     1       7.712  26.964  58.334  1.00  0.00    -0.268 OA
HETATM   25  H   UNL     1       9.209  27.554  55.637  1.00  0.00     0.163 HD
BRANCH  23  26
HETATM   26  C   UNL     1       8.173  25.399  56.611  1.00  0.00     0.033 A 
HETATM   27  C   UNL     1       7.522  25.287  55.380  1.00  0.00     0.043 A 
HETATM   28  C   UNL     1       7.320  24.028  54.804  1.00  0.00     0.068 A 
HETATM   29 CL   UNL     1       6.478  23.960  53.295  1.00  0.00    -0.081 Cl
HETATM   30  C   UNL     1       7.752  22.861  55.453  1.00  0.00     0.091 A 
HETATM   31  C   UNL     1       8.437  22.981  56.663  1.00  0.00     0.039 A 
HETATM   32  C   UNL     1       8.636  24.240  57.247  1.00  0.00     0.020 A 
BRANCH  30  33
HETATM   33  O   UNL     1       7.476  21.670  54.841  1.00  0.00    -0.345 OA
BRANCH  33  34
HETATM   34  C   UNL     1       8.534  20.940  54.206  1.00  0.00     0.121 C 
HETATM   35  C   UNL     1       8.939  19.723  55.036  1.00  0.00     0.040 C 
HETATM   36  C   UNL     1       7.992  20.479  52.853  1.00  0.00     0.040 C 
ENDBRANCH  33  34
ENDBRANCH  30  33
ENDBRANCH  23  26
ENDBRANCH   1  22
BRANCH   1  37
HETATM   37  C   UNL     1      10.546  29.755  56.440  1.00  0.00     0.254 C 
BRANCH  37  38
HETATM   38  N   UNL     1      11.670  30.008  57.381  1.00  0.00    -0.077 N 
HETATM   39  H   UNL     1      12.462  30.500  56.957  1.00  0.00     0.274 HD
HETATM   40  H   UNL     1      11.331  30.628  58.149  1.00  0.00     0.274 HD
HETATM   41  H   UNL     1      12.011  29.153  57.835  1.00  0.00     0.274 HD
ENDBRANCH  37  38
ENDBRANCH   1  37
TORSDOF 11
ENDMDL
MODEL 2
REMARK VINA RESULT:      -9.7      3.597     12.634
REMARK  11 active torsions:
REMARK  status: ('A' for Active; 'I' for Inactive)
REMARK    1  A    between atoms: C_2  and  O_3 
REMARK    2  A    between atoms: C_2  and  C_4 
REMARK    3  A    between atoms: C_8  and  C_9 
REMARK    4  A    between atoms: C_12  and  C_13 
REMARK    5  A    between atoms: C_13  and  C_14 
REMARK    6  A    between atoms: C_14  and  N_15 
REMARK    7  A    between atoms: C_14  and  C_29 
REMARK       I    between atoms: N_15  and  C_16 
REMARK    8  A    between atoms: C_16  and  C_17 
REMARK    9  A    between atoms: C_21  and  O_22 
REMARK   10  A    between atoms: O_22  and  C_23 
REMARK   11  A    between atoms: C_29  and  N_30 
ROOT
HETATM    1  C   UNL     1       5.795  32.285  60.256  1.00  0.00     0.114 C 
ENDROOT
BRANCH   1   2
HETATM    2  C   UNL     1       7.175  31.964  59.622  1.00  0.00     0.065 C 
BRANCH   2   3
HETATM    3  C   UNL     1       7.308  30.796  58.661  1.00  0.00    -0.056 A 
HETATM    4  C   UNL     1       8.430  29.967  58.553  1.00  0.00     0.008 A 
HETATM    5  C   UNL     1       8.422  28.844  57.712  1.00  0.00     0.014 A 
HETATM    6  C   UNL     1       7.299  28.533  56.943  1.00  0.00    -0.006 A 
HETATM    7  C   UNL     1       6.200  29.395  56.994  1.00  0.00     0.014 A 
HETATM    8  C   UNL     1       6.203  30.509  57.842  1.00  0.00     0.008 A 
BRANCH   6   9
HETATM    9  C   UNL     1       7.235  27.336  56.121  1.00  0.00     0.085 A 
HETATM   10  C   UNL     1       6.706  27.249  54.850  1.00  0.00     0.130 A 
HETATM   11  N   UNL     1       6.927  25.955  54.446  1.00  0.00    -0.315 N 
HETATM   12  C   UNL     1       7.571  25.311  55.493  1.00  0.00     0.143 A 
HETATM   13  C   UNL     1       6.610  25.341  53.242  1.00  0.00     0.098 A 
HETATM   14  C   UNL     1       7.908  23.916  55.341  1.00  0.00     0.017 A 
HETATM   15  N   UNL     1       7.765  26.128  56.511  1.00  0.00    -0.228 NA
HETATM   16  C   UNL     1       7.586  23.334  54.158  1.00  0.00     0.015 A 
HETATM   17  C   UNL     1       6.928  24.048  53.072  1.00  0.00     0.018 A 
BRANCH  14  18
HETATM   18  C   UNL     1       8.602  23.169  56.479  1.00  0.00     0.150 C 
HETATM   19  C   UNL     1       8.479  21.650  56.494  1.00  0.00     0.044 C 
BRANCH  18  20
HETATM   20  O   UNL     1       8.084  23.643  57.727  1.00  0.00    -0.391 OA
HETATM   21  H   UNL     1       7.979  22.852  58.291  1.00  0.00     0.210 HD
ENDBRANCH  18  20
ENDBRANCH  14  18
ENDBRANCH   6   9
ENDBRANCH   2   3
ENDBRANCH   1   2
BRANCH   1  22
HETATM   22  N   UNL     1       5.968  32.611  61.685  1.00  0.00    -0.350 N 
HETATM   23  C   UNL     1       5.020  32.501  62.672  1.00  0.00     0.252 C 
HETATM   24  O   UNL     1       3.913  32.020  62.448  1.00  0.00    -0.268 OA
HETATM   25  H   UNL     1       6.924  32.781  61.982  1.00  0.00     0.163 HD
BRANCH  23  26
HETATM   26  C   UNL     1       5.356  33.069  64.012  1.00  0.00     0.033 A 
HETATM   27  C   UNL     1       4.330  33.654  64.759  1.00  0.00     0.043 A 
HETATM   28  C   UNL     1       4.620  34.307  65.962  1.00  0.00     0.068 A 
HETATM   29 CL   UNL     1       3.307  35.037  66.817  1.00  0.00    -0.081 Cl
HETATM   30  C   UNL     1       5.939  34.397  66.432  1.00  0.00     0.091 A 
HETATM   31  C   UNL     1       6.955  33.777  65.704  1.00  0.00     0.039 A 
HETATM   32  C   UNL     1       6.670  33.127  64.495  1.00  0.00     0.020 A 
BRANCH  30  33
HETATM   33  O   UNL     1       6.140  35.089  67.595  1.00  0.00    -0.345 OA
BRANCH  33  34
HETATM   34  C   UNL     1       6.877  34.479  68.663  1.00  0.00     0.121 C 
HETATM   35  C   UNL     1       7.600  35.530  69.503  1.00  0.00     0.040 C 
HETATM   36  C   UNL     1       5.856  33.745  69.530  1.00  0.00     0.040 C 
ENDBRANCH  33  34
ENDBRANCH  30  33
ENDBRANCH  23  26
ENDBRANCH   1  22
BRANCH   1  37
HETATM   37  C   UNL     1       5.047  33.344  59.397  1.00  0.00     0.254 C 
BRANCH  37  38
HETATM   38  N   UNL     1       3.581  33.093  59.381  1.00  0.00    -0.077 N 
HETATM   39  H   UNL     1       3.331  32.100  59.389  1.00  0.00     0.274 HD
HETATM   40  H   UNL     1       3.162  33.496  60.248  1.00  0.00     0.274 HD
HETATM   41  H   UNL     1       3.106  33.550  58.595  1.00  0.00     0.274 HD
ENDBRANCH  37  38
ENDBRANCH   1  37
TORSDOF 11
ENDMDL
MODEL 3
REMARK VINA RESULT:      -9.6      3.811     12.542
REMARK  11 active torsions:
REMARK  status: ('A' for Active; 'I' for Inactive)
REMARK    1  A    between atoms: C_2  and  O_3 
REMARK    2  A    between atoms: C_2  and  C_4 
REMARK    3  A    between atoms: C_8  and  C_9 
REMARK    4  A    between atoms: C_12  and  C_13 
REMARK    5  A    between atoms: C_13  and  C_14 
REMARK    6  A    between atoms: C_14  and  N_15 
REMARK    7  A    between atoms: C_14  and  C_29 
REMARK       I    between atoms: N_15  and  C_16 
REMARK    8  A    between atoms: C_16  and  C_17 
REMARK    9  A    between atoms: C_21  and  O_22 
REMARK   10  A    between atoms: O_22  and  C_23 
REMARK   11  A    between atoms: C_29  and  N_30 
ROOT
HETATM    1  C   UNL     1       5.596  32.354  60.181  1.00  0.00     0.114 C 
ENDROOT
BRANCH   1   2
HETATM    2  C   UNL     1       6.931  32.212  59.403  1.00  0.00     0.065 C 
BRANCH   2   3
HETATM    3  C   UNL     1       7.216  30.942  58.622  1.00  0.00    -0.056 A 
HETATM    4  C   UNL     1       8.421  30.229  58.658  1.00  0.00     0.008 A 
HETATM    5  C   UNL     1       8.557  29.004  57.987  1.00  0.00     0.014 A 
HETATM    6  C   UNL     1       7.499  28.471  57.247  1.00  0.00    -0.006 A 
HETATM    7  C   UNL     1       6.317  29.211  57.151  1.00  0.00     0.014 A 
HETATM    8  C   UNL     1       6.177  30.428  57.830  1.00  0.00     0.008 A 
BRANCH   6   9
HETATM    9  C   UNL     1       7.586  27.171  56.604  1.00  0.00     0.085 A 
HETATM   10  C   UNL     1       8.089  26.016  57.167  1.00  0.00     0.130 A 
HETATM   11  N   UNL     1       7.902  25.035  56.225  1.00  0.00    -0.315 N 
HETATM   12  C   UNL     1       7.305  25.638  55.128  1.00  0.00     0.143 A 
HETATM   13  C   UNL     1       8.214  23.683  56.287  1.00  0.00     0.098 A 
HETATM   14  C   UNL     1       7.012  24.828  53.970  1.00  0.00     0.017 A 
HETATM   15  N   UNL     1       7.106  26.925  55.339  1.00  0.00    -0.228 NA
HETATM   16  C   UNL     1       7.327  23.510  54.050  1.00  0.00     0.015 A 
HETATM   17  C   UNL     1       7.936  22.907  55.228  1.00  0.00     0.018 A 
BRANCH  14  18
HETATM   18  C   UNL     1       6.370  25.460  52.737  1.00  0.00     0.150 C 
HETATM   19  C   UNL     1       5.013  24.919  52.300  1.00  0.00     0.044 C 
BRANCH  18  20
HETATM   20  O   UNL     1       7.259  25.311  51.625  1.00  0.00    -0.391 OA
HETATM   21  H   UNL     1       6.688  25.216  50.837  1.00  0.00     0.210 HD
ENDBRANCH  18  20
ENDBRANCH  14  18
ENDBRANCH   6   9
ENDBRANCH   2   3
ENDBRANCH   1   2
BRANCH   1  22
HETATM   22  N   UNL     1       5.875  32.662  61.597  1.00  0.00    -0.350 N 
HETATM   23  C   UNL     1       5.089  32.344  62.677  1.00  0.00     0.252 C 
HETATM   24  O   UNL     1       4.071  31.669  62.553  1.00  0.00    -0.268 OA
HETATM   25  H   UNL     1       6.812  33.000  61.794  1.00  0.00     0.163 HD
BRANCH  23  26
HETATM   26  C   UNL     1       5.472  32.923  63.999  1.00  0.00     0.033 A 
HETATM   27  C   UNL     1       4.466  33.477  64.796  1.00  0.00     0.043 A 
HETATM   28  C   UNL     1       4.794  34.139  65.983  1.00  0.00     0.068 A 
HETATM   29 CL   UNL     1       3.502  34.829  66.902  1.00  0.00    -0.081 Cl
HETATM   30  C   UNL     1       6.131  34.271  66.388  1.00  0.00     0.091 A 
HETATM   31  C   UNL     1       7.129  33.682  65.611  1.00  0.00     0.039 A 
HETATM   32  C   UNL     1       6.805  33.023  64.417  1.00  0.00     0.020 A 
BRANCH  30  33
HETATM   33  O   UNL     1       6.366  34.970  67.540  1.00  0.00    -0.345 OA
BRANCH  33  34
HETATM   34  C   UNL     1       6.946  34.300  68.668  1.00  0.00     0.121 C 
HETATM   35  C   UNL     1       7.924  35.212  69.407  1.00  0.00     0.040 C 
HETATM   36  C   UNL     1       5.789  33.932  69.595  1.00  0.00     0.040 C 
ENDBRANCH  33  34
ENDBRANCH  30  33
ENDBRANCH  23  26
ENDBRANCH   1  22
BRANCH   1  37
HETATM   37  C   UNL     1       4.649  33.339  59.440  1.00  0.00     0.254 C 
BRANCH  37  38
HETATM   38  N   UNL     1       3.220  32.989  59.660  1.00  0.00    -0.077 N 
HETATM   39  H   UNL     1       3.030  32.585  60.582  1.00  0.00     0.274 HD
HETATM   40  H   UNL     1       2.649  33.861  59.611  1.00  0.00     0.274 HD
HETATM   41  H   UNL     1       2.846  32.363  58.938  1.00  0.00     0.274 HD
ENDBRANCH  37  38
ENDBRANCH   1  37
TORSDOF 11
ENDMDL
MODEL 4
REMARK VINA RESULT:      -9.5      1.277      2.184
REMARK  11 active torsions:
REMARK  status: ('A' for Active; 'I' for Inactive)
REMARK    1  A    between atoms: C_2  and  O_3 
REMARK    2  A    between atoms: C_2  and  C_4 
REMARK    3  A    between atoms: C_8  and  C_9 
REMARK    4  A    between atoms: C_12  and  C_13 
REMARK    5  A    between atoms: C_13  and  C_14 
REMARK    6  A    between atoms: C_14  and  N_15 
REMARK    7  A    between atoms: C_14  and  C_29 
REMARK       I    between atoms: N_15  and  C_16 
REMARK    8  A    between atoms: C_16  and  C_17 
REMARK    9  A    between atoms: C_21  and  O_22 
REMARK   10  A    between atoms: O_22  and  C_23 
REMARK   11  A    between atoms: C_29  and  N_30 
ROOT
HETATM    1  C   UNL     1       9.023  29.278  57.178  1.00  0.00     0.114 C 
ENDROOT
BRANCH   1   2
HETATM    2  C   UNL     1       7.752  30.165  57.101  1.00  0.00     0.065 C 
BRANCH   2   3
HETATM    3  C   UNL     1       7.322  30.972  58.313  1.00  0.00    -0.056 A 
HETATM    4  C   UNL     1       8.185  31.457  59.304  1.00  0.00     0.008 A 
HETATM    5  C   UNL     1       7.713  32.287  60.331  1.00  0.00     0.014 A 
HETATM    6  C   UNL     1       6.363  32.638  60.406  1.00  0.00    -0.006 A 
HETATM    7  C   UNL     1       5.484  32.102  59.460  1.00  0.00     0.014 A 
HETATM    8  C   UNL     1       5.957  31.282  58.428  1.00  0.00     0.008 A 
BRANCH   6   9
HETATM    9  C   UNL     1       5.860  33.555  61.414  1.00  0.00     0.085 A 
HETATM   10  C   UNL     1       4.980  34.596  61.201  1.00  0.00     0.130 A 
HETATM   11  N   UNL     1       4.737  35.134  62.441  1.00  0.00    -0.315 N 
HETATM   12  C   UNL     1       5.487  34.403  63.351  1.00  0.00     0.143 A 
HETATM   13  C   UNL     1       3.911  36.192  62.797  1.00  0.00     0.098 A 
HETATM   14  C   UNL     1       5.434  34.774  64.745  1.00  0.00     0.017 A 
HETATM   15  N   UNL     1       6.170  33.447  62.750  1.00  0.00    -0.228 NA
HETATM   16  C   UNL     1       4.623  35.812  65.070  1.00  0.00     0.015 A 
HETATM   17  C   UNL     1       3.832  36.544  64.089  1.00  0.00     0.018 A 
BRANCH  14  18
HETATM   18  C   UNL     1       6.260  34.004  65.773  1.00  0.00     0.150 C 
HETATM   19  C   UNL     1       6.045  34.350  67.242  1.00  0.00     0.044 C 
BRANCH  18  20
HETATM   20  O   UNL     1       7.649  34.203  65.494  1.00  0.00    -0.391 OA
HETATM   21  H   UNL     1       7.721  35.104  65.121  1.00  0.00     0.210 HD
ENDBRANCH  18  20
ENDBRANCH  14  18
ENDBRANCH   6   9
ENDBRANCH   2   3
ENDBRANCH   1   2
BRANCH   1  22
HETATM   22  N   UNL     1       8.727  27.936  56.640  1.00  0.00    -0.350 N 
HETATM   23  C   UNL     1       8.073  26.918  57.287  1.00  0.00     0.252 C 
HETATM   24  O   UNL     1       7.582  27.076  58.401  1.00  0.00    -0.268 OA
HETATM   25  H   UNL     1       8.887  27.820  55.644  1.00  0.00     0.163 HD
BRANCH  23  26
HETATM   26  C   UNL     1       8.054  25.581  56.622  1.00  0.00     0.033 A 
HETATM   27  C   UNL     1       7.446  25.474  55.368  1.00  0.00     0.043 A 
HETATM   28  C   UNL     1       7.297  24.221  54.763  1.00  0.00     0.068 A 
HETATM   29 CL   UNL     1       6.505  24.160  53.228  1.00  0.00    -0.081 Cl
HETATM   30  C   UNL     1       7.739  23.055  55.406  1.00  0.00     0.091 A 
HETATM   31  C   UNL     1       8.382  23.170  56.639  1.00  0.00     0.039 A 
HETATM   32  C   UNL     1       8.529  24.423  57.251  1.00  0.00     0.020 A 
BRANCH  30  33
HETATM   33  O   UNL     1       7.516  21.868  54.763  1.00  0.00    -0.345 OA
BRANCH  33  34
HETATM   34  C   UNL     1       8.630  21.093  54.300  1.00  0.00     0.121 C 
HETATM   35  C   UNL     1       8.910  19.918  55.235  1.00  0.00     0.040 C 
HETATM   36  C   UNL     1       8.248  20.568  52.918  1.00  0.00     0.040 C 
ENDBRANCH  33  34
ENDBRANCH  30  33
ENDBRANCH  23  26
ENDBRANCH   1  22
BRANCH   1  37
HETATM   37  C   UNL     1      10.231  30.021  56.540  1.00  0.00     0.254 C 
BRANCH  37  38
HETATM   38  N   UNL     1      11.525  29.471  57.025  1.00  0.00    -0.077 N 
HETATM   39  H   UNL     1      12.338  30.043  56.777  1.00  0.00     0.274 HD
HETATM   40  H   UNL     1      11.508  29.445  58.069  1.00  0.00     0.274 HD
HETATM   41  H   UNL     1      11.690  28.506  56.719  1.00  0.00     0.274 HD
ENDBRANCH  37  38
ENDBRANCH   1  37
TORSDOF 11
ENDMDL
MODEL 5
REMARK VINA RESULT:      -9.5      3.454      4.902
REMARK  11 active torsions:
REMARK  status: ('A' for Active; 'I' for Inactive)
REMARK    1  A    between atoms: C_2  and  O_3 
REMARK    2  A    between atoms: C_2  and  C_4 
REMARK    3  A    between atoms: C_8  and  C_9 
REMARK    4  A    between atoms: C_12  and  C_13 
REMARK    5  A    between atoms: C_13  and  C_14 
REMARK    6  A    between atoms: C_14  and  N_15 
REMARK    7  A    between atoms: C_14  and  C_29 
REMARK       I    between atoms: N_15  and  C_16 
REMARK    8  A    between atoms: C_16  and  C_17 
REMARK    9  A    between atoms: C_21  and  O_22 
REMARK   10  A    between atoms: O_22  and  C_23 
REMARK   11  A    between atoms: C_29  and  N_30 
ROOT
HETATM    1  C   UNL     1       4.538  28.739  52.279  1.00  0.00     0.114 C 
ENDROOT
BRANCH   1   2
HETATM    2  C   UNL     1       3.625  29.275  53.414  1.00  0.00     0.065 C 
BRANCH   2   3
HETATM    3  C   UNL     1       4.226  29.621  54.764  1.00  0.00    -0.056 A 
HETATM    4  C   UNL     1       4.354  28.734  55.840  1.00  0.00     0.008 A 
HETATM    5  C   UNL     1       5.022  29.111  57.014  1.00  0.00     0.014 A 
HETATM    6  C   UNL     1       5.563  30.392  57.151  1.00  0.00    -0.006 A 
HETATM    7  C   UNL     1       5.380  31.305  56.108  1.00  0.00     0.014 A 
HETATM    8  C   UNL     1       4.723  30.925  54.931  1.00  0.00     0.008 A 
BRANCH   6   9
HETATM    9  C   UNL     1       6.325  30.785  58.324  1.00  0.00     0.085 A 
HETATM   10  C   UNL     1       7.611  30.392  58.630  1.00  0.00     0.130 A 
HETATM   11  N   UNL     1       7.939  31.063  59.782  1.00  0.00    -0.315 N 
HETATM   12  C   UNL     1       6.835  31.827  60.131  1.00  0.00     0.143 A 
HETATM   13  C   UNL     1       9.122  31.043  60.508  1.00  0.00     0.098 A 
HETATM   14  C   UNL     1       6.900  32.627  61.330  1.00  0.00     0.017 A 
HETATM   15  N   UNL     1       5.852  31.673  59.263  1.00  0.00    -0.228 NA
HETATM   16  C   UNL     1       8.065  32.590  62.026  1.00  0.00     0.015 A 
HETATM   17  C   UNL     1       9.213  31.792  61.618  1.00  0.00     0.018 A 
BRANCH  14  18
HETATM   18  C   UNL     1       5.698  33.467  61.755  1.00  0.00     0.150 C 
HETATM   19  C   UNL     1       4.597  32.764  62.540  1.00  0.00     0.044 C 
BRANCH  18  20
HETATM   20  O   UNL     1       5.088  34.027  60.587  1.00  0.00    -0.391 OA
HETATM   21  H   UNL     1       4.201  34.327  60.866  1.00  0.00     0.210 HD
ENDBRANCH  18  20
ENDBRANCH  14  18
ENDBRANCH   6   9
ENDBRANCH   2   3
ENDBRANCH   1   2
BRANCH   1  22
HETATM   22  N   UNL     1       5.201  27.497  52.718  1.00  0.00    -0.350 N 
HETATM   23  C   UNL     1       6.498  27.365  53.147  1.00  0.00     0.252 C 
HETATM   24  O   UNL     1       7.230  28.341  53.284  1.00  0.00    -0.268 OA
HETATM   25  H   UNL     1       4.586  26.701  52.862  1.00  0.00     0.163 HD
BRANCH  23  26
HETATM   26  C   UNL     1       7.015  25.980  53.359  1.00  0.00     0.033 A 
HETATM   27  C   UNL     1       7.291  25.570  54.667  1.00  0.00     0.043 A 
HETATM   28  C   UNL     1       7.890  24.328  54.902  1.00  0.00     0.068 A 
HETATM   29 CL   UNL     1       8.234  23.899  56.541  1.00  0.00    -0.081 Cl
HETATM   30  C   UNL     1       8.236  23.482  53.837  1.00  0.00     0.091 A 
HETATM   31  C   UNL     1       7.922  23.878  52.536  1.00  0.00     0.039 A 
HETATM   32  C   UNL     1       7.326  25.124  52.295  1.00  0.00     0.020 A 
BRANCH  30  33
HETATM   33  O   UNL     1       8.857  22.305  54.153  1.00  0.00    -0.345 OA
BRANCH  33  34
HETATM   34  C   UNL     1       8.110  21.082  54.126  1.00  0.00     0.121 C 
HETATM   35  C   UNL     1       8.406  20.284  52.856  1.00  0.00     0.040 C 
HETATM   36  C   UNL     1       8.549  20.278  55.349  1.00  0.00     0.040 C 
ENDBRANCH  33  34
ENDBRANCH  30  33
ENDBRANCH  23  26
ENDBRANCH   1  22
BRANCH   1  37
HETATM   37  C   UNL     1       3.739  28.656  50.947  1.00  0.00     0.254 C 
BRANCH  37  38
HETATM   38  N   UNL     1       3.869  27.314  50.319  1.00  0.00    -0.077 N 
HETATM   39  H   UNL     1       4.714  27.204  49.749  1.00  0.00     0.274 HD
HETATM   40  H   UNL     1       3.943  26.596  51.073  1.00  0.00     0.274 HD
HETATM   41  H   UNL     1       3.051  27.054  49.757  1.00  0.00     0.274 HD
ENDBRANCH  37  38
ENDBRANCH   1  37
TORSDOF 11
ENDMDL
MODEL 6
REMARK VINA RESULT:      -9.5      3.714      5.484
REMARK  11 active torsions:
REMARK  status: ('A' for Active; 'I' for Inactive)
REMARK    1  A    between atoms: C_2  and  O_3 
REMARK    2  A    between atoms: C_2  and  C_4 
REMARK    3  A    between atoms: C_8  and  C_9 
REMARK    4  A    between atoms: C_12  and  C_13 
REMARK    5  A    between atoms: C_13  and  C_14 
REMARK    6  A    between atoms: C_14  and  N_15 
REMARK    7  A    between atoms: C_14  and  C_29 
REMARK       I    between atoms: N_15  and  C_16 
REMARK    8  A    between atoms: C_16  and  C_17 
REMARK    9  A    between atoms: C_21  and  O_22 
REMARK   10  A    between atoms: O_22  and  C_23 
REMARK   11  A    between atoms: C_29  and  N_30 
ROOT
HETATM    1  C   UNL     1       4.386  28.439  51.870  1.00  0.00     0.114 C 
ENDROOT
BRANCH   1   2
HETATM    2  C   UNL     1       3.415  29.016  52.934  1.00  0.00     0.065 C 
BRANCH   2   3
HETATM    3  C   UNL     1       3.971  29.742  54.146  1.00  0.00    -0.056 A 
HETATM    4  C   UNL     1       4.227  31.117  54.213  1.00  0.00     0.008 A 
HETATM    5  C   UNL     1       4.639  31.719  55.411  1.00  0.00     0.014 A 
HETATM    6  C   UNL     1       4.823  30.959  56.569  1.00  0.00    -0.006 A 
HETATM    7  C   UNL     1       4.634  29.576  56.492  1.00  0.00     0.014 A 
HETATM    8  C   UNL     1       4.212  28.976  55.299  1.00  0.00     0.008 A 
BRANCH   6   9
HETATM    9  C   UNL     1       5.175  31.565  57.841  1.00  0.00     0.085 A 
HETATM   10  C   UNL     1       4.321  32.246  58.683  1.00  0.00     0.130 A 
HETATM   11  N   UNL     1       5.071  32.572  59.786  1.00  0.00    -0.315 N 
HETATM   12  C   UNL     1       6.350  32.085  59.561  1.00  0.00     0.143 A 
HETATM   13  C   UNL     1       4.695  33.245  60.941  1.00  0.00     0.098 A 
HETATM   14  C   UNL     1       7.361  32.309  60.566  1.00  0.00     0.017 A 
HETATM   15  N   UNL     1       6.432  31.474  58.394  1.00  0.00    -0.228 NA
HETATM   16  C   UNL     1       6.973  32.972  61.686  1.00  0.00     0.015 A 
HETATM   17  C   UNL     1       5.613  33.451  61.897  1.00  0.00     0.018 A 
BRANCH  14  18
HETATM   18  C   UNL     1       8.785  31.803  60.346  1.00  0.00     0.150 C 
HETATM   19  C   UNL     1       9.795  32.051  61.461  1.00  0.00     0.044 C 
BRANCH  18  20
HETATM   20  O   UNL     1       9.312  32.407  59.160  1.00  0.00    -0.391 OA
HETATM   21  H   UNL     1       8.790  32.042  58.419  1.00  0.00     0.210 HD
ENDBRANCH  18  20
ENDBRANCH  14  18
ENDBRANCH   6   9
ENDBRANCH   2   3
ENDBRANCH   1   2
BRANCH   1  22
HETATM   22  N   UNL     1       5.056  27.239  52.406  1.00  0.00    -0.350 N 
HETATM   23  C   UNL     1       6.302  27.182  52.981  1.00  0.00     0.252 C 
HETATM   24  O   UNL     1       6.964  28.196  53.178  1.00  0.00    -0.268 OA
HETATM   25  H   UNL     1       4.470  26.415  52.498  1.00  0.00     0.163 HD
BRANCH  23  26
HETATM   26  C   UNL     1       6.859  25.829  53.279  1.00  0.00     0.033 A 
HETATM   27  C   UNL     1       7.051  25.472  54.616  1.00  0.00     0.043 A 
HETATM   28  C   UNL     1       7.684  24.266  54.938  1.00  0.00     0.068 A 
HETATM   29 CL   UNL     1       7.918  23.904  56.613  1.00  0.00    -0.081 Cl
HETATM   30  C   UNL     1       8.147  23.405  53.932  1.00  0.00     0.091 A 
HETATM   31  C   UNL     1       7.917  23.746  52.598  1.00  0.00     0.039 A 
HETATM   32  C   UNL     1       7.289  24.956  52.271  1.00  0.00     0.020 A 
BRANCH  30  33
HETATM   33  O   UNL     1       8.791  22.267  54.335  1.00  0.00    -0.345 OA
BRANCH  33  34
HETATM   34  C   UNL     1       8.104  21.010  54.287  1.00  0.00     0.121 C 
HETATM   35  C   UNL     1       8.439  20.247  53.006  1.00  0.00     0.040 C 
HETATM   36  C   UNL     1       8.579  20.210  55.499  1.00  0.00     0.040 C 
ENDBRANCH  33  34
ENDBRANCH  30  33
ENDBRANCH  23  26
ENDBRANCH   1  22
BRANCH   1  37
HETATM   37  C   UNL     1       3.646  28.261  50.514  1.00  0.00     0.254 C 
BRANCH  37  38
HETATM   38  N   UNL     1       2.201  28.596  50.635  1.00  0.00    -0.077 N 
HETATM   39  H   UNL     1       1.841  29.162  49.861  1.00  0.00     0.274 HD
HETATM   40  H   UNL     1       1.649  27.710  50.616  1.00  0.00     0.274 HD
HETATM   41  H   UNL     1       1.971  29.056  51.522  1.00  0.00     0.274 HD
ENDBRANCH  37  38
ENDBRANCH   1  37
TORSDOF 11
ENDMDL
MODEL 7
REMARK VINA RESULT:      -9.4      3.229     12.412
REMARK  11 active torsions:
REMARK  status: ('A' for Active; 'I' for Inactive)
REMARK    1  A    between atoms: C_2  and  O_3 
REMARK    2  A    between atoms: C_2  and  C_4 
REMARK    3  A    between atoms: C_8  and  C_9 
REMARK    4  A    between atoms: C_12  and  C_13 
REMARK    5  A    between atoms: C_13  and  C_14 
REMARK    6  A    between atoms: C_14  and  N_15 
REMARK    7  A    between atoms: C_14  and  C_29 
REMARK       I    between atoms: N_15  and  C_16 
REMARK    8  A    between atoms: C_16  and  C_17 
REMARK    9  A    between atoms: C_21  and  O_22 
REMARK   10  A    between atoms: O_22  and  C_23 
REMARK   11  A    between atoms: C_29  and  N_30 
ROOT
HETATM    1  C   UNL     1       7.604  31.350  58.675  1.00  0.00     0.114 C 
ENDROOT
BRANCH   1   2
HETATM    2  C   UNL     1       6.436  30.792  57.819  1.00  0.00     0.065 C 
BRANCH   2   3
HETATM    3  C   UNL     1       6.644  29.542  56.983  1.00  0.00    -0.056 A 
HETATM    4  C   UNL     1       7.508  29.442  55.886  1.00  0.00     0.008 A 
HETATM    5  C   UNL     1       7.719  28.215  55.240  1.00  0.00     0.014 A 
HETATM    6  C   UNL     1       7.056  27.060  55.662  1.00  0.00    -0.006 A 
HETATM    7  C   UNL     1       6.140  27.167  56.713  1.00  0.00     0.014 A 
HETATM    8  C   UNL     1       5.938  28.389  57.365  1.00  0.00     0.008 A 
BRANCH   6   9
HETATM    9  C   UNL     1       7.310  25.762  55.061  1.00  0.00     0.085 A 
HETATM   10  C   UNL     1       7.169  25.441  53.727  1.00  0.00     0.130 A 
HETATM   11  N   UNL     1       7.586  24.137  53.614  1.00  0.00    -0.315 N 
HETATM   12  C   UNL     1       7.951  23.721  54.887  1.00  0.00     0.143 A 
HETATM   13  C   UNL     1       7.665  23.331  52.487  1.00  0.00     0.098 A 
HETATM   14  C   UNL     1       8.414  22.365  55.062  1.00  0.00     0.017 A 
HETATM   15  N   UNL     1       7.792  24.687  55.771  1.00  0.00    -0.228 NA
HETATM   16  C   UNL     1       8.481  21.593  53.948  1.00  0.00     0.015 A 
HETATM   17  C   UNL     1       8.108  22.071  52.623  1.00  0.00     0.018 A 
BRANCH  14  18
HETATM   18  C   UNL     1       8.808  21.865  56.451  1.00  0.00     0.150 C 
HETATM   19  C   UNL     1       8.790  20.359  56.682  1.00  0.00     0.044 C 
BRANCH  18  20
HETATM   20  O   UNL     1       7.930  22.449  57.419  1.00  0.00    -0.391 OA
HETATM   21  H   UNL     1       7.683  21.724  58.027  1.00  0.00     0.210 HD
ENDBRANCH  18  20
ENDBRANCH  14  18
ENDBRANCH   6   9
ENDBRANCH   2   3
ENDBRANCH   1   2
BRANCH   1  22
HETATM   22  N   UNL     1       7.091  31.814  59.978  1.00  0.00    -0.350 N 
HETATM   23  C   UNL     1       7.768  32.561  60.909  1.00  0.00     0.252 C 
HETATM   24  O   UNL     1       8.894  32.996  60.685  1.00  0.00    -0.268 OA
HETATM   25  H   UNL     1       6.091  31.699  60.119  1.00  0.00     0.163 HD
BRANCH  23  26
HETATM   26  C   UNL     1       7.119  32.754  62.239  1.00  0.00     0.033 A 
HETATM   27  C   UNL     1       5.741  32.989  62.276  1.00  0.00     0.043 A 
HETATM   28  C   UNL     1       5.113  33.297  63.487  1.00  0.00     0.068 A 
HETATM   29 CL   UNL     1       3.412  33.608  63.453  1.00  0.00    -0.081 Cl
HETATM   30  C   UNL     1       5.849  33.388  64.678  1.00  0.00     0.091 A 
HETATM   31  C   UNL     1       7.217  33.114  64.644  1.00  0.00     0.039 A 
HETATM   32  C   UNL     1       7.853  32.810  63.431  1.00  0.00     0.020 A 
BRANCH  30  33
HETATM   33  O   UNL     1       5.163  33.736  65.809  1.00  0.00    -0.345 OA
BRANCH  33  34
HETATM   34  C   UNL     1       5.444  34.986  66.451  1.00  0.00     0.121 C 
HETATM   35  C   UNL     1       4.453  36.064  66.014  1.00  0.00     0.040 C 
HETATM   36  C   UNL     1       5.307  34.743  67.953  1.00  0.00     0.040 C 
ENDBRANCH  33  34
ENDBRANCH  30  33
ENDBRANCH  23  26
ENDBRANCH   1  22
BRANCH   1  37
HETATM   37  C   UNL     1       8.767  30.318  58.726  1.00  0.00     0.254 C 
BRANCH  37  38
HETATM   38  N   UNL     1      10.074  30.956  58.411  1.00  0.00    -0.077 N 
HETATM   39  H   UNL     1      10.474  31.487  59.190  1.00  0.00     0.274 HD
HETATM   40  H   UNL     1      10.768  30.208  58.194  1.00  0.00     0.274 HD
HETATM   41  H   UNL     1      10.035  31.558  57.581  1.00  0.00     0.274 HD
ENDBRANCH  37  38
ENDBRANCH   1  37
TORSDOF 11
ENDMDL
MODEL 8
REMARK VINA RESULT:      -9.4      1.440      1.603
REMARK  11 active torsions:
REMARK  status: ('A' for Active; 'I' for Inactive)
REMARK    1  A    between atoms: C_2  and  O_3 
REMARK    2  A    between atoms: C_2  and  C_4 
REMARK    3  A    between atoms: C_8  and  C_9 
REMARK    4  A    between atoms: C_12  and  C_13 
REMARK    5  A    between atoms: C_13  and  C_14 
REMARK    6  A    between atoms: C_14  and  N_15 
REMARK    7  A    between atoms: C_14  and  C_29 
REMARK       I    between atoms: N_15  and  C_16 
REMARK    8  A    between atoms: C_16  and  C_17 
REMARK    9  A    between atoms: C_21  and  O_22 
REMARK   10  A    between atoms: O_22  and  C_23 
REMARK   11  A    between atoms: C_29  and  N_30 
ROOT
HETATM    1  C   UNL     1       8.812  29.003  57.454  1.00  0.00     0.114 C 
ENDROOT
BRANCH   1   2
HETATM    2  C   UNL     1       7.589  29.936  57.249  1.00  0.00     0.065 C 
BRANCH   2   3
HETATM    3  C   UNL     1       7.161  30.873  58.363  1.00  0.00    -0.056 A 
HETATM    4  C   UNL     1       6.098  31.782  58.288  1.00  0.00     0.008 A 
HETATM    5  C   UNL     1       5.706  32.531  59.406  1.00  0.00     0.014 A 
HETATM    6  C   UNL     1       6.378  32.407  60.624  1.00  0.00    -0.006 A 
HETATM    7  C   UNL     1       7.483  31.552  60.688  1.00  0.00     0.014 A 
HETATM    8  C   UNL     1       7.867  30.795  59.575  1.00  0.00     0.008 A 
BRANCH   6   9
HETATM    9  C   UNL     1       5.948  33.114  61.818  1.00  0.00     0.085 A 
HETATM   10  C   UNL     1       5.465  32.539  62.976  1.00  0.00     0.130 A 
HETATM   11  N   UNL     1       5.257  33.579  63.847  1.00  0.00    -0.315 N 
HETATM   12  C   UNL     1       5.612  34.742  63.177  1.00  0.00     0.143 A 
HETATM   13  C   UNL     1       4.795  33.555  65.156  1.00  0.00     0.098 A 
HETATM   14  C   UNL     1       5.470  36.004  63.862  1.00  0.00     0.017 A 
HETATM   15  N   UNL     1       6.031  34.480  61.953  1.00  0.00    -0.228 NA
HETATM   16  C   UNL     1       5.014  35.957  65.140  1.00  0.00     0.015 A 
HETATM   17  C   UNL     1       4.671  34.715  65.819  1.00  0.00     0.018 A 
BRANCH  14  18
HETATM   18  C   UNL     1       5.835  37.305  63.152  1.00  0.00     0.150 C 
HETATM   19  C   UNL     1       5.843  38.580  63.988  1.00  0.00     0.044 C 
BRANCH  18  20
HETATM   20  O   UNL     1       4.916  37.517  62.074  1.00  0.00    -0.391 OA
HETATM   21  H   UNL     1       4.029  37.563  62.484  1.00  0.00     0.210 HD
ENDBRANCH  18  20
ENDBRANCH  14  18
ENDBRANCH   6   9
ENDBRANCH   2   3
ENDBRANCH   1   2
BRANCH   1  22
HETATM   22  N   UNL     1       8.552  27.694  56.826  1.00  0.00    -0.350 N 
HETATM   23  C   UNL     1       8.004  26.589  57.430  1.00  0.00     0.252 C 
HETATM   24  O   UNL     1       7.590  26.627  58.584  1.00  0.00    -0.268 OA
HETATM   25  H   UNL     1       8.643  27.668  55.815  1.00  0.00     0.163 HD
BRANCH  23  26
HETATM   26  C   UNL     1       8.010  25.311  56.656  1.00  0.00     0.033 A 
HETATM   27  C   UNL     1       7.458  25.312  55.373  1.00  0.00     0.043 A 
HETATM   28  C   UNL     1       7.330  24.114  54.661  1.00  0.00     0.068 A 
HETATM   29 CL   UNL     1       6.607  24.184  53.092  1.00  0.00    -0.081 Cl
HETATM   30  C   UNL     1       7.738  22.895  55.225  1.00  0.00     0.091 A 
HETATM   31  C   UNL     1       8.325  22.904  56.490  1.00  0.00     0.039 A 
HETATM   32  C   UNL     1       8.450  24.101  57.209  1.00  0.00     0.020 A 
BRANCH  30  33
HETATM   33  O   UNL     1       7.538  21.767  54.478  1.00  0.00    -0.345 OA
BRANCH  33  34
HETATM   34  C   UNL     1       8.666  20.991  54.053  1.00  0.00     0.121 C 
HETATM   35  C   UNL     1       8.938  19.839  55.019  1.00  0.00     0.040 C 
HETATM   36  C   UNL     1       8.313  20.431  52.676  1.00  0.00     0.040 C 
ENDBRANCH  33  34
ENDBRANCH  30  33
ENDBRANCH  23  26
ENDBRANCH   1  22
BRANCH   1  37
HETATM   37  C   UNL     1      10.115  29.728  57.010  1.00  0.00     0.254 C 
BRANCH  37  38
HETATM   38  N   UNL     1      10.252  29.741  55.529  1.00  0.00    -0.077 N 
HETATM   39  H   UNL     1      10.796  28.956  55.156  1.00  0.00     0.274 HD
HETATM   40  H   UNL     1       9.303  29.653  55.104  1.00  0.00     0.274 HD
HETATM   41  H   UNL     1      10.645  30.619  55.171  1.00  0.00     0.274 HD
ENDBRANCH  37  38
ENDBRANCH   1  37
TORSDOF 11
ENDMDL
MODEL 9
REMARK VINA RESULT:      -9.4      5.439     14.069
REMARK  11 active torsions:
REMARK  status: ('A' for Active; 'I' for Inactive)
REMARK    1  A    between atoms: C_2  and  O_3 
REMARK    2  A    between atoms: C_2  and  C_4 
REMARK    3  A    between atoms: C_8  and  C_9 
REMARK    4  A    between atoms: C_12  and  C_13 
REMARK    5  A    between atoms: C_13  and  C_14 
REMARK    6  A    between atoms: C_14  and  N_15 
REMARK    7  A    between atoms: C_14  and  C_29 
REMARK       I    between atoms: N_15  and  C_16 
REMARK    8  A    between atoms: C_16  and  C_17 
REMARK    9  A    between atoms: C_21  and  O_22 
REMARK   10  A    between atoms: O_22  and  C_23 
REMARK   11  A    between atoms: C_29  and  N_30 
ROOT
HETATM    1  C   UNL     1       5.392  33.962  65.910  1.00  0.00     0.114 C 
ENDROOT
BRANCH   1   2
HETATM    2  C   UNL     1       6.142  34.648  64.738  1.00  0.00     0.065 C 
BRANCH   2   3
HETATM    3  C   UNL     1       6.573  33.827  63.536  1.00  0.00    -0.056 A 
HETATM    4  C   UNL     1       5.924  33.813  62.296  1.00  0.00     0.008 A 
HETATM    5  C   UNL     1       6.457  33.107  61.207  1.00  0.00     0.014 A 
HETATM    6  C   UNL     1       7.642  32.379  61.336  1.00  0.00    -0.006 A 
HETATM    7  C   UNL     1       8.259  32.332  62.590  1.00  0.00     0.014 A 
HETATM    8  C   UNL     1       7.734  33.047  63.673  1.00  0.00     0.008 A 
BRANCH   6   9
HETATM    9  C   UNL     1       8.256  31.700  60.209  1.00  0.00     0.085 A 
HETATM   10  C   UNL     1       9.482  31.995  59.649  1.00  0.00     0.130 A 
HETATM   11  N   UNL     1       9.676  31.055  58.667  1.00  0.00    -0.315 N 
HETATM   12  C   UNL     1       8.555  30.237  58.665  1.00  0.00     0.143 A 
HETATM   13  C   UNL     1      10.756  30.885  57.811  1.00  0.00     0.098 A 
HETATM   14  C   UNL     1       8.487  29.163  57.704  1.00  0.00     0.017 A 
HETATM   15  N   UNL     1       7.689  30.610  59.588  1.00  0.00    -0.228 NA
HETATM   16  C   UNL     1       9.551  29.016  56.874  1.00  0.00     0.015 A 
HETATM   17  C   UNL     1      10.721  29.883  56.919  1.00  0.00     0.018 A 
BRANCH  14  18
HETATM   18  C   UNL     1       7.261  28.253  57.661  1.00  0.00     0.150 C 
HETATM   19  C   UNL     1       7.045  27.432  56.395  1.00  0.00     0.044 C 
BRANCH  18  20
HETATM   20  O   UNL     1       6.086  29.049  57.849  1.00  0.00    -0.391 OA
HETATM   21  H   UNL     1       5.882  29.435  56.975  1.00  0.00     0.210 HD
ENDBRANCH  18  20
ENDBRANCH  14  18
ENDBRANCH   6   9
ENDBRANCH   2   3
ENDBRANCH   1   2
BRANCH   1  22
HETATM   22  N   UNL     1       6.090  34.242  67.180  1.00  0.00    -0.350 N 
HETATM   23  C   UNL     1       5.616  34.006  68.447  1.00  0.00     0.252 C 
HETATM   24  O   UNL     1       4.545  33.437  68.635  1.00  0.00    -0.268 OA
HETATM   25  H   UNL     1       7.073  34.483  67.094  1.00  0.00     0.163 HD
BRANCH  23  26
HETATM   26  C   UNL     1       6.414  34.544  69.589  1.00  0.00     0.033 A 
HETATM   27  C   UNL     1       5.779  34.697  70.825  1.00  0.00     0.043 A 
HETATM   28  C   UNL     1       6.450  35.311  71.888  1.00  0.00     0.068 A 
HETATM   29 CL   UNL     1       5.593  35.497  73.378  1.00  0.00    -0.081 Cl
HETATM   30  C   UNL     1       7.758  35.794  71.731  1.00  0.00     0.091 A 
HETATM   31  C   UNL     1       8.402  35.603  70.508  1.00  0.00     0.039 A 
HETATM   32  C   UNL     1       7.732  34.993  69.438  1.00  0.00     0.020 A 
BRANCH  30  33
HETATM   33  O   UNL     1       8.324  36.418  72.809  1.00  0.00    -0.345 OA
BRANCH  33  34
HETATM   34  C   UNL     1       8.618  37.820  72.740  1.00  0.00     0.121 C 
HETATM   35  C   UNL     1       8.151  38.416  71.413  1.00  0.00     0.040 C 
HETATM   36  C   UNL     1       7.860  38.479  73.891  1.00  0.00     0.040 C 
ENDBRANCH  33  34
ENDBRANCH  30  33
ENDBRANCH  23  26
ENDBRANCH   1  22
BRANCH   1  37
HETATM   37  C   UNL     1       3.881  34.329  65.864  1.00  0.00     0.254 C 
BRANCH  37  38
HETATM   38  N   UNL     1       3.632  35.494  64.972  1.00  0.00    -0.077 N 
HETATM   39  H   UNL     1       2.781  35.408  64.408  1.00  0.00     0.274 HD
HETATM   40  H   UNL     1       3.495  36.344  65.562  1.00  0.00     0.274 HD
HETATM   41  H   UNL     1       4.424  35.700  64.354  1.00  0.00     0.274 HD
ENDBRANCH  37  38
ENDBRANCH   1  37
TORSDOF 11
ENDMDL
MODEL 10
REMARK VINA RESULT:      -9.3      5.338     11.657
REMARK  11 active torsions:
REMARK  status: ('A' for Active; 'I' for Inactive)
REMARK    1  A    between atoms: C_2  and  O_3 
REMARK    2  A    between atoms: C_2  and  C_4 
REMARK    3  A    between atoms: C_8  and  C_9 
REMARK    4  A    between atoms: C_12  and  C_13 
REMARK    5  A    between atoms: C_13  and  C_14 
REMARK    6  A    between atoms: C_14  and  N_15 
REMARK    7  A    between atoms: C_14  and  C_29 
REMARK       I    between atoms: N_15  and  C_16 
REMARK    8  A    between atoms: C_16  and  C_17 
REMARK    9  A    between atoms: C_21  and  O_22 
REMARK   10  A    between atoms: O_22  and  C_23 
REMARK   11  A    between atoms: C_29  and  N_30 
ROOT
HETATM    1  C   UNL     1       8.476  23.202  55.634  1.00  0.00     0.114 C 
ENDROOT
BRANCH   1   2
HETATM    2  C   UNL     1       7.452  22.977  54.489  1.00  0.00     0.065 C 
BRANCH   2   3
HETATM    3  C   UNL     1       7.012  24.150  53.632  1.00  0.00    -0.056 A 
HETATM    4  C   UNL     1       7.829  24.832  52.722  1.00  0.00     0.008 A 
HETATM    5  C   UNL     1       7.306  25.835  51.892  1.00  0.00     0.014 A 
HETATM    6  C   UNL     1       5.959  26.195  51.963  1.00  0.00    -0.006 A 
HETATM    7  C   UNL     1       5.153  25.565  52.916  1.00  0.00     0.014 A 
HETATM    8  C   UNL     1       5.671  24.556  53.737  1.00  0.00     0.008 A 
BRANCH   6   9
HETATM    9  C   UNL     1       5.374  27.176  51.065  1.00  0.00     0.085 A 
HETATM   10  C   UNL     1       5.419  28.546  51.215  1.00  0.00     0.130 A 
HETATM   11  N   UNL     1       4.803  29.061  50.101  1.00  0.00    -0.315 N 
HETATM   12  C   UNL     1       4.401  27.980  49.328  1.00  0.00     0.143 A 
HETATM   13  C   UNL     1       4.594  30.385  49.741  1.00  0.00     0.098 A 
HETATM   14  C   UNL     1       3.701  28.238  48.093  1.00  0.00     0.017 A 
HETATM   15  N   UNL     1       4.737  26.836  49.893  1.00  0.00    -0.228 NA
HETATM   16  C   UNL     1       3.504  29.540  47.762  1.00  0.00     0.015 A 
HETATM   17  C   UNL     1       3.959  30.649  48.589  1.00  0.00     0.018 A 
BRANCH  14  18
HETATM   18  C   UNL     1       3.228  27.074  47.225  1.00  0.00     0.150 C 
HETATM   19  C   UNL     1       1.904  26.417  47.598  1.00  0.00     0.044 C 
BRANCH  18  20
HETATM   20  O   UNL     1       4.225  26.047  47.244  1.00  0.00    -0.391 OA
HETATM   21  H   UNL     1       4.048  25.516  48.045  1.00  0.00     0.210 HD
ENDBRANCH  18  20
ENDBRANCH  14  18
ENDBRANCH   6   9
ENDBRANCH   2   3
ENDBRANCH   1   2
BRANCH   1  22
HETATM   22  N   UNL     1       8.418  24.605  56.086  1.00  0.00    -0.350 N 
HETATM   23  C   UNL     1       7.393  25.205  56.774  1.00  0.00     0.252 C 
HETATM   24  O   UNL     1       6.419  24.565  57.160  1.00  0.00    -0.268 OA
HETATM   25  H   UNL     1       9.289  25.123  56.016  1.00  0.00     0.163 HD
BRANCH  23  26
HETATM   26  C   UNL     1       7.464  26.685  56.960  1.00  0.00     0.033 A 
HETATM   27  C   UNL     1       8.723  27.292  56.957  1.00  0.00     0.043 A 
HETATM   28  C   UNL     1       8.847  28.654  57.250  1.00  0.00     0.068 A 
HETATM   29 CL   UNL     1      10.438  29.332  57.261  1.00  0.00    -0.081 Cl
HETATM   30  C   UNL     1       7.720  29.429  57.565  1.00  0.00     0.091 A 
HETATM   31  C   UNL     1       6.461  28.827  57.527  1.00  0.00     0.039 A 
HETATM   32  C   UNL     1       6.332  27.461  57.240  1.00  0.00     0.020 A 
BRANCH  30  33
HETATM   33  O   UNL     1       7.936  30.742  57.880  1.00  0.00    -0.345 OA
BRANCH  33  34
HETATM   34  C   UNL     1       7.967  31.143  59.257  1.00  0.00     0.121 C 
HETATM   35  C   UNL     1       9.250  31.906  59.579  1.00  0.00     0.040 C 
HETATM   36  C   UNL     1       6.761  32.056  59.469  1.00  0.00     0.040 C 
ENDBRANCH  33  34
ENDBRANCH  30  33
ENDBRANCH  23  26
ENDBRANCH   1  22
BRANCH   1  37
HETATM   37  C   UNL     1       8.290  22.119  56.735  1.00  0.00     0.254 C 
BRANCH  37  38
HETATM   38  N   UNL     1       8.827  20.802  56.299  1.00  0.00    -0.077 N 
HETATM   39  H   UNL     1       8.302  20.000  56.659  1.00  0.00     0.274 HD
HETATM   40  H   UNL     1       8.757  20.740  55.259  1.00  0.00     0.274 HD
HETATM   41  H   UNL     1       9.820  20.680  56.526  1.00  0.00     0.274 HD
ENDBRANCH  37  38
ENDBRANCH   1  37
TORSDOF 11
ENDMDL
