MODEL 1
REMARK VINA RESULT:     -10.4      0.000      0.000
REMARK  3 active torsions:
REMARK  status: ('A' for Active; 'I' for Inactive)
REMARK    1  A    between atoms: O_2  and  C_3 
REMARK    2  A    between atoms: C_9  and  C_10 
REMARK       I    between atoms: C_10  and  N_11 
REMARK    3  A    between atoms: N_11  and  C_12 
ROOT
HETATM    1  C   UNL     1       7.874  21.628  54.141  1.00  0.00     0.068 A 
HETATM    2  C   UNL     1       7.646  22.320  55.333  1.00  0.00     0.044 A 
HETATM    3  C   UNL     1       7.477  23.711  55.333  1.00  0.00    -0.043 A 
HETATM    4  C   UNL     1       7.513  24.415  54.107  1.00  0.00    -0.001 A 
HETATM    5  C   UNL     1       7.342  25.855  54.184  1.00  0.00     0.069 A 
HETATM    6  C   UNL     1       7.366  26.576  55.357  1.00  0.00     0.007 A 
HETATM    7  C   UNL     1       7.192  27.929  54.982  1.00  0.00     0.153 A 
HETATM    8  N   UNL     1       7.033  28.038  53.641  1.00  0.00    -0.168 NA
HETATM    9  N   UNL     1       7.129  26.765  53.194  1.00  0.00    -0.276 N 
HETATM   10  H   UNL     1       7.037  26.594  52.199  1.00  0.00     0.189 HD
HETATM   11  C   UNL     1       7.590  25.922  56.674  1.00  0.00     0.048 C 
HETATM   12  C   UNL     1       7.156  24.438  56.635  1.00  0.00     0.044 C 
HETATM   13  C   UNL     1       7.746  23.723  52.918  1.00  0.00     0.017 A 
HETATM   14  C   UNL     1       7.927  22.334  52.936  1.00  0.00     0.037 A 
ENDROOT
BRANCH   7  15
HETATM   15  C   UNL     1       7.209  29.113  55.862  1.00  0.00     0.277 C 
HETATM   16  N   UNL     1       8.308  29.118  56.703  1.00  0.00    -0.320 N 
HETATM   17  H   UNL     1       8.766  28.210  56.735  1.00  0.00     0.169 HD
HETATM   18  O   UNL     1       6.287  29.920  55.871  1.00  0.00    -0.266 OA
BRANCH  16  19
HETATM   19  C   UNL     1       8.566  30.051  57.728  1.00  0.00     0.057 A 
HETATM   20  C   UNL     1       9.808  30.661  57.995  1.00  0.00     0.063 A 
HETATM   21 CL   UNL     1      11.302  30.132  57.299  1.00  0.00    -0.082 Cl
HETATM   22  C   UNL     1       9.913  31.636  58.992  1.00  0.00     0.068 A 
HETATM   23  C   UNL     1       8.799  31.973  59.747  1.00  0.00     0.118 A 
HETATM   24  F   UNL     1       8.906  32.905  60.704  1.00  0.00    -0.206 F 
HETATM   25  C   UNL     1       7.583  31.336  59.548  1.00  0.00     0.044 A 
HETATM   26  C   UNL     1       7.470  30.367  58.549  1.00  0.00     0.034 A 
ENDBRANCH  16  19
ENDBRANCH   7  15
BRANCH   1  27
HETATM   27  O   UNL     1       8.027  20.278  54.291  1.00  0.00    -0.356 OA
HETATM   28  C   UNL     1       8.646  19.826  55.488  1.00  0.00     0.210 C 
ENDBRANCH   1  27
TORSDOF 3
ENDMDL
MODEL 2
REMARK VINA RESULT:      -9.9      3.888      8.450
REMARK  3 active torsions:
REMARK  status: ('A' for Active; 'I' for Inactive)
REMARK    1  A    between atoms: O_2  and  C_3 
REMARK    2  A    between atoms: C_9  and  C_10 
REMARK       I    between atoms: C_10  and  N_11 
REMARK    3  A    between atoms: N_11  and  C_12 
ROOT
HETATM    1  C   UNL     1       8.585  31.598  59.308  1.00  0.00     0.068 A 
HETATM    2  C   UNL     1       9.207  30.542  58.638  1.00  0.00     0.044 A 
HETATM    3  C   UNL     1       8.464  29.662  57.841  1.00  0.00    -0.043 A 
HETATM    4  C   UNL     1       7.072  29.863  57.696  1.00  0.00    -0.001 A 
HETATM    5  C   UNL     1       6.363  28.906  56.865  1.00  0.00     0.069 A 
HETATM    6  C   UNL     1       6.908  27.729  56.404  1.00  0.00     0.007 A 
HETATM    7  C   UNL     1       5.882  27.091  55.667  1.00  0.00     0.153 A 
HETATM    8  N   UNL     1       4.764  27.855  55.643  1.00  0.00    -0.168 NA
HETATM    9  N   UNL     1       5.093  28.943  56.377  1.00  0.00    -0.276 N 
HETATM   10  H   UNL     1       4.398  29.671  56.499  1.00  0.00     0.189 HD
HETATM   11  C   UNL     1       8.299  27.324  56.742  1.00  0.00     0.048 C 
HETATM   12  C   UNL     1       9.172  28.560  57.059  1.00  0.00     0.044 C 
HETATM   13  C   UNL     1       6.450  30.916  58.370  1.00  0.00     0.017 A 
HETATM   14  C   UNL     1       7.206  31.779  59.175  1.00  0.00     0.037 A 
ENDROOT
BRANCH   7  15
HETATM   15  C   UNL     1       5.934  25.766  55.020  1.00  0.00     0.277 C 
HETATM   16  N   UNL     1       7.114  25.099  55.299  1.00  0.00    -0.320 N 
HETATM   17  H   UNL     1       7.819  25.720  55.688  1.00  0.00     0.169 HD
HETATM   18  O   UNL     1       5.049  25.386  54.263  1.00  0.00    -0.266 OA
BRANCH  16  19
HETATM   19  C   UNL     1       7.516  23.861  54.757  1.00  0.00     0.057 A 
HETATM   20  C   UNL     1       8.009  23.652  53.453  1.00  0.00     0.063 A 
HETATM   21 CL   UNL     1       7.915  24.836  52.195  1.00  0.00    -0.082 Cl
HETATM   22  C   UNL     1       8.454  22.384  53.064  1.00  0.00     0.068 A 
HETATM   23  C   UNL     1       8.369  21.321  53.952  1.00  0.00     0.118 A 
HETATM   24  F   UNL     1       8.793  20.108  53.572  1.00  0.00    -0.206 F 
HETATM   25  C   UNL     1       7.823  21.489  55.216  1.00  0.00     0.044 A 
HETATM   26  C   UNL     1       7.385  22.754  55.613  1.00  0.00     0.034 A 
ENDBRANCH  16  19
ENDBRANCH   7  15
BRANCH   1  27
HETATM   27  O   UNL     1       9.430  32.372  60.054  1.00  0.00    -0.356 OA
HETATM   28  C   UNL     1       9.640  31.984  61.405  1.00  0.00     0.210 C 
ENDBRANCH   1  27
TORSDOF 3
ENDMDL
MODEL 3
REMARK VINA RESULT:      -9.8      4.644     10.435
REMARK  3 active torsions:
REMARK  status: ('A' for Active; 'I' for Inactive)
REMARK    1  A    between atoms: O_2  and  C_3 
REMARK    2  A    between atoms: C_9  and  C_10 
REMARK       I    between atoms: C_10  and  N_11 
REMARK    3  A    between atoms: N_11  and  C_12 
ROOT
HETATM    1  C   UNL     1       5.942  34.626  64.538  1.00  0.00     0.068 A 
HETATM    2  C   UNL     1       5.423  34.268  63.292  1.00  0.00     0.044 A 
HETATM    3  C   UNL     1       6.075  33.323  62.489  1.00  0.00    -0.043 A 
HETATM    4  C   UNL     1       7.260  32.711  62.960  1.00  0.00    -0.001 A 
HETATM    5  C   UNL     1       7.889  31.750  62.070  1.00  0.00     0.069 A 
HETATM    6  C   UNL     1       7.535  31.570  60.752  1.00  0.00     0.007 A 
HETATM    7  C   UNL     1       8.406  30.573  60.252  1.00  0.00     0.153 A 
HETATM    8  N   UNL     1       9.238  30.132  61.226  1.00  0.00    -0.168 NA
HETATM    9  N   UNL     1       8.895  30.865  62.309  1.00  0.00    -0.276 N 
HETATM   10  H   UNL     1       9.392  30.704  63.178  1.00  0.00     0.189 HD
HETATM   11  C   UNL     1       6.462  32.376  60.111  1.00  0.00     0.048 C 
HETATM   12  C   UNL     1       5.454  32.891  61.165  1.00  0.00     0.044 C 
HETATM   13  C   UNL     1       7.780  33.073  64.204  1.00  0.00     0.017 A 
HETATM   14  C   UNL     1       7.122  34.030  64.989  1.00  0.00     0.037 A 
ENDROOT
BRANCH   7  15
HETATM   15  C   UNL     1       8.485  30.063  58.870  1.00  0.00     0.277 C 
HETATM   16  N   UNL     1       7.493  29.136  58.603  1.00  0.00    -0.320 N 
HETATM   17  H   UNL     1       7.048  28.798  59.453  1.00  0.00     0.169 HD
HETATM   18  O   UNL     1       9.396  30.385  58.118  1.00  0.00    -0.266 OA
BRANCH  16  19
HETATM   19  C   UNL     1       7.352  28.390  57.414  1.00  0.00     0.057 A 
HETATM   20  C   UNL     1       6.804  28.861  56.205  1.00  0.00     0.063 A 
HETATM   21 CL   UNL     1       5.928  30.348  56.066  1.00  0.00    -0.082 Cl
HETATM   22  C   UNL     1       6.797  28.042  55.070  1.00  0.00     0.068 A 
HETATM   23  C   UNL     1       7.293  26.750  55.149  1.00  0.00     0.118 A 
HETATM   24  F   UNL     1       7.280  25.969  54.060  1.00  0.00    -0.206 F 
HETATM   25  C   UNL     1       7.774  26.242  56.347  1.00  0.00     0.044 A 
HETATM   26  C   UNL     1       7.791  27.056  57.481  1.00  0.00     0.034 A 
ENDBRANCH  16  19
ENDBRANCH   7  15
BRANCH   1  27
HETATM   27  O   UNL     1       5.206  35.562  65.210  1.00  0.00    -0.356 OA
HETATM   28  C   UNL     1       4.116  36.151  64.512  1.00  0.00     0.210 C 
ENDBRANCH   1  27
TORSDOF 3
ENDMDL
MODEL 4
REMARK VINA RESULT:      -9.8      1.701      1.881
REMARK  3 active torsions:
REMARK  status: ('A' for Active; 'I' for Inactive)
REMARK    1  A    between atoms: O_2  and  C_3 
REMARK    2  A    between atoms: C_9  and  C_10 
REMARK       I    between atoms: C_10  and  N_11 
REMARK    3  A    between atoms: N_11  and  C_12 
ROOT
HETATM    1  C   UNL     1       8.381  22.299  53.765  1.00  0.00     0.068 A 
HETATM    2  C   UNL     1       8.140  22.676  55.089  1.00  0.00     0.044 A 
HETATM    3  C   UNL     1       7.615  23.940  55.389  1.00  0.00    -0.043 A 
HETATM    4  C   UNL     1       7.303  24.831  54.336  1.00  0.00    -0.001 A 
HETATM    5  C   UNL     1       6.773  26.127  54.722  1.00  0.00     0.069 A 
HETATM    6  C   UNL     1       6.763  26.606  56.013  1.00  0.00     0.007 A 
HETATM    7  C   UNL     1       6.194  27.899  55.941  1.00  0.00     0.153 A 
HETATM    8  N   UNL     1       5.836  28.194  54.668  1.00  0.00    -0.168 NA
HETATM    9  N   UNL     1       6.201  27.100  53.961  1.00  0.00    -0.276 N 
HETATM   10  H   UNL     1       6.026  27.089  52.963  1.00  0.00     0.189 HD
HETATM   11  C   UNL     1       7.323  25.819  57.145  1.00  0.00     0.048 C 
HETATM   12  C   UNL     1       7.290  24.305  56.834  1.00  0.00     0.044 C 
HETATM   13  C   UNL     1       7.548  24.455  53.015  1.00  0.00     0.017 A 
HETATM   14  C   UNL     1       8.087  23.193  52.732  1.00  0.00     0.037 A 
ENDROOT
BRANCH   7  15
HETATM   15  C   UNL     1       6.017  28.864  57.042  1.00  0.00     0.277 C 
HETATM   16  N   UNL     1       7.199  29.511  57.358  1.00  0.00    -0.320 N 
HETATM   17  H   UNL     1       8.008  29.045  56.954  1.00  0.00     0.169 HD
HETATM   18  O   UNL     1       4.951  28.976  57.633  1.00  0.00    -0.266 OA
BRANCH  16  19
HETATM   19  C   UNL     1       7.393  30.414  58.424  1.00  0.00     0.057 A 
HETATM   20  C   UNL     1       6.656  31.595  58.648  1.00  0.00     0.063 A 
HETATM   21 CL   UNL     1       5.591  32.295  57.477  1.00  0.00    -0.082 Cl
HETATM   22  C   UNL     1       6.893  32.365  59.792  1.00  0.00     0.068 A 
HETATM   23  C   UNL     1       7.883  31.985  60.686  1.00  0.00     0.118 A 
HETATM   24  F   UNL     1       8.107  32.728  61.778  1.00  0.00    -0.206 F 
HETATM   25  C   UNL     1       8.666  30.865  60.450  1.00  0.00     0.044 A 
HETATM   26  C   UNL     1       8.430  30.088  59.314  1.00  0.00     0.034 A 
ENDBRANCH  16  19
ENDBRANCH   7  15
BRANCH   1  27
HETATM   27  O   UNL     1       8.900  21.043  53.620  1.00  0.00    -0.356 OA
HETATM   28  C   UNL     1       8.714  20.138  54.700  1.00  0.00     0.210 C 
ENDBRANCH   1  27
TORSDOF 3
ENDMDL
MODEL 5
REMARK VINA RESULT:      -9.7      5.459      7.222
REMARK  3 active torsions:
REMARK  status: ('A' for Active; 'I' for Inactive)
REMARK    1  A    between atoms: O_2  and  C_3 
REMARK    2  A    between atoms: C_9  and  C_10 
REMARK       I    between atoms: C_10  and  N_11 
REMARK    3  A    between atoms: N_11  and  C_12 
ROOT
HETATM    1  C   UNL     1       8.723  22.315  55.301  1.00  0.00     0.068 A 
HETATM    2  C   UNL     1       8.550  22.694  53.967  1.00  0.00     0.044 A 
HETATM    3  C   UNL     1       7.974  23.929  53.642  1.00  0.00    -0.043 A 
HETATM    4  C   UNL     1       7.588  24.810  54.680  1.00  0.00    -0.001 A 
HETATM    5  C   UNL     1       6.988  26.067  54.269  1.00  0.00     0.069 A 
HETATM    6  C   UNL     1       6.585  26.350  52.984  1.00  0.00     0.007 A 
HETATM    7  C   UNL     1       6.036  27.653  53.029  1.00  0.00     0.153 A 
HETATM    8  N   UNL     1       6.127  28.168  54.279  1.00  0.00    -0.168 NA
HETATM    9  N   UNL     1       6.708  27.181  54.999  1.00  0.00    -0.276 N 
HETATM   10  H   UNL     1       6.883  27.343  55.985  1.00  0.00     0.189 HD
HETATM   11  C   UNL     1       6.722  25.357  51.884  1.00  0.00     0.048 C 
HETATM   12  C   UNL     1       7.861  24.356  52.182  1.00  0.00     0.044 C 
HETATM   13  C   UNL     1       7.758  24.428  56.011  1.00  0.00     0.017 A 
HETATM   14  C   UNL     1       8.322  23.183  56.319  1.00  0.00     0.037 A 
ENDROOT
BRANCH   7  15
HETATM   15  C   UNL     1       5.401  28.397  51.925  1.00  0.00     0.277 C 
HETATM   16  N   UNL     1       4.165  27.873  51.591  1.00  0.00    -0.320 N 
HETATM   17  H   UNL     1       4.023  26.947  51.988  1.00  0.00     0.169 HD
HETATM   18  O   UNL     1       5.982  29.307  51.346  1.00  0.00    -0.266 OA
BRANCH  16  19
HETATM   19  C   UNL     1       3.348  28.289  50.519  1.00  0.00     0.057 A 
HETATM   20  C   UNL     1       3.427  27.819  49.192  1.00  0.00     0.063 A 
HETATM   21 CL   UNL     1       4.746  26.875  48.588  1.00  0.00    -0.082 Cl
HETATM   22  C   UNL     1       2.501  28.253  48.237  1.00  0.00     0.068 A 
HETATM   23  C   UNL     1       1.530  29.179  48.588  1.00  0.00     0.118 A 
HETATM   24  F   UNL     1       0.648  29.593  47.668  1.00  0.00    -0.206 F 
HETATM   25  C   UNL     1       1.477  29.706  49.870  1.00  0.00     0.044 A 
HETATM   26  C   UNL     1       2.393  29.272  50.830  1.00  0.00     0.034 A 
ENDBRANCH  16  19
ENDBRANCH   7  15
BRANCH   1  27
HETATM   27  O   UNL     1       9.290  21.083  55.470  1.00  0.00    -0.356 OA
HETATM   28  C   UNL     1       8.763  20.016  54.692  1.00  0.00     0.210 C 
ENDBRANCH   1  27
TORSDOF 3
ENDMDL
MODEL 6
REMARK VINA RESULT:      -9.6      4.327      9.843
REMARK  3 active torsions:
REMARK  status: ('A' for Active; 'I' for Inactive)
REMARK    1  A    between atoms: O_2  and  C_3 
REMARK    2  A    between atoms: C_9  and  C_10 
REMARK       I    between atoms: C_10  and  N_11 
REMARK    3  A    between atoms: N_11  and  C_12 
ROOT
HETATM    1  C   UNL     1       7.043  33.702  64.318  1.00  0.00     0.068 A 
HETATM    2  C   UNL     1       7.996  32.800  63.836  1.00  0.00     0.044 A 
HETATM    3  C   UNL     1       7.931  32.325  62.519  1.00  0.00    -0.043 A 
HETATM    4  C   UNL     1       6.902  32.785  61.665  1.00  0.00    -0.001 A 
HETATM    5  C   UNL     1       6.889  32.241  60.318  1.00  0.00     0.069 A 
HETATM    6  C   UNL     1       7.659  31.177  59.906  1.00  0.00     0.007 A 
HETATM    7  C   UNL     1       7.322  30.959  58.549  1.00  0.00     0.153 A 
HETATM    8  N   UNL     1       6.409  31.869  58.131  1.00  0.00    -0.168 NA
HETATM    9  N   UNL     1       6.173  32.626  59.226  1.00  0.00    -0.276 N 
HETATM   10  H   UNL     1       5.511  33.390  59.151  1.00  0.00     0.189 HD
HETATM   11  C   UNL     1       8.581  30.470  60.835  1.00  0.00     0.048 C 
HETATM   12  C   UNL     1       9.021  31.400  61.990  1.00  0.00     0.044 C 
HETATM   13  C   UNL     1       5.948  33.682  62.149  1.00  0.00     0.017 A 
HETATM   14  C   UNL     1       6.019  34.137  63.473  1.00  0.00     0.037 A 
ENDROOT
BRANCH   7  15
HETATM   15  C   UNL     1       7.819  29.891  57.662  1.00  0.00     0.277 C 
HETATM   16  N   UNL     1       6.933  28.831  57.580  1.00  0.00    -0.320 N 
HETATM   17  H   UNL     1       6.230  28.866  58.314  1.00  0.00     0.169 HD
HETATM   18  O   UNL     1       8.933  29.945  57.154  1.00  0.00    -0.266 OA
BRANCH  16  19
HETATM   19  C   UNL     1       7.153  27.616  56.899  1.00  0.00     0.057 A 
HETATM   20  C   UNL     1       6.972  27.400  55.518  1.00  0.00     0.063 A 
HETATM   21 CL   UNL     1       6.154  28.513  54.475  1.00  0.00    -0.082 Cl
HETATM   22  C   UNL     1       7.305  26.165  54.950  1.00  0.00     0.068 A 
HETATM   23  C   UNL     1       7.775  25.139  55.757  1.00  0.00     0.118 A 
HETATM   24  F   UNL     1       8.089  23.958  55.208  1.00  0.00    -0.206 F 
HETATM   25  C   UNL     1       7.895  25.308  57.128  1.00  0.00     0.044 A 
HETATM   26  C   UNL     1       7.572  26.540  57.700  1.00  0.00     0.034 A 
ENDBRANCH  16  19
ENDBRANCH   7  15
BRANCH   1  27
HETATM   27  O   UNL     1       7.225  34.075  65.620  1.00  0.00    -0.356 OA
HETATM   28  C   UNL     1       6.066  34.150  66.440  1.00  0.00     0.210 C 
ENDBRANCH   1  27
TORSDOF 3
ENDMDL
MODEL 7
REMARK VINA RESULT:      -9.6      3.874      8.661
REMARK  3 active torsions:
REMARK  status: ('A' for Active; 'I' for Inactive)
REMARK    1  A    between atoms: O_2  and  C_3 
REMARK    2  A    between atoms: C_9  and  C_10 
REMARK       I    between atoms: C_10  and  N_11 
REMARK    3  A    between atoms: N_11  and  C_12 
ROOT
HETATM    1  C   UNL     1       7.292  32.284  60.556  1.00  0.00     0.068 A 
HETATM    2  C   UNL     1       8.269  31.460  59.991  1.00  0.00     0.044 A 
HETATM    3  C   UNL     1       8.005  30.733  58.822  1.00  0.00    -0.043 A 
HETATM    4  C   UNL     1       6.742  30.857  58.198  1.00  0.00    -0.001 A 
HETATM    5  C   UNL     1       6.534  30.067  56.997  1.00  0.00     0.069 A 
HETATM    6  C   UNL     1       7.384  29.071  56.570  1.00  0.00     0.007 A 
HETATM    7  C   UNL     1       6.801  28.545  55.393  1.00  0.00     0.153 A 
HETATM    8  N   UNL     1       5.659  29.207  55.087  1.00  0.00    -0.168 NA
HETATM    9  N   UNL     1       5.532  30.119  56.078  1.00  0.00    -0.276 N 
HETATM   10  H   UNL     1       4.735  30.745  56.058  1.00  0.00     0.189 HD
HETATM   11  C   UNL     1       8.608  28.706  57.331  1.00  0.00     0.048 C 
HETATM   12  C   UNL     1       9.107  29.898  58.180  1.00  0.00     0.044 C 
HETATM   13  C   UNL     1       5.765  31.677  58.766  1.00  0.00     0.017 A 
HETATM   14  C   UNL     1       6.041  32.386  59.943  1.00  0.00     0.037 A 
ENDROOT
BRANCH   7  15
HETATM   15  C   UNL     1       7.285  27.412  54.582  1.00  0.00     0.277 C 
HETATM   16  N   UNL     1       6.937  26.192  55.136  1.00  0.00    -0.320 N 
HETATM   17  H   UNL     1       6.631  26.286  56.101  1.00  0.00     0.169 HD
HETATM   18  O   UNL     1       7.985  27.584  53.592  1.00  0.00    -0.266 OA
BRANCH  16  19
HETATM   19  C   UNL     1       7.331  24.923  54.664  1.00  0.00     0.057 A 
HETATM   20  C   UNL     1       6.871  24.303  53.485  1.00  0.00     0.063 A 
HETATM   21 CL   UNL     1       5.511  24.867  52.575  1.00  0.00    -0.082 Cl
HETATM   22  C   UNL     1       7.404  23.073  53.083  1.00  0.00     0.068 A 
HETATM   23  C   UNL     1       8.357  22.444  53.871  1.00  0.00     0.118 A 
HETATM   24  F   UNL     1       8.860  21.265  53.484  1.00  0.00    -0.206 F 
HETATM   25  C   UNL     1       8.773  23.003  55.070  1.00  0.00     0.044 A 
HETATM   26  C   UNL     1       8.251  24.235  55.472  1.00  0.00     0.034 A 
ENDBRANCH  16  19
ENDBRANCH   7  15
BRANCH   1  27
HETATM   27  O   UNL     1       7.684  32.927  61.696  1.00  0.00    -0.356 OA
HETATM   28  C   UNL     1       8.167  32.118  62.761  1.00  0.00     0.210 C 
ENDBRANCH   1  27
TORSDOF 3
ENDMDL
MODEL 8
REMARK VINA RESULT:      -9.4      5.339     10.801
REMARK  3 active torsions:
REMARK  status: ('A' for Active; 'I' for Inactive)
REMARK    1  A    between atoms: O_2  and  C_3 
REMARK    2  A    between atoms: C_9  and  C_10 
REMARK       I    between atoms: C_10  and  N_11 
REMARK    3  A    between atoms: N_11  and  C_12 
ROOT
HETATM    1  C   UNL     1       6.016  34.087  66.072  1.00  0.00     0.068 A 
HETATM    2  C   UNL     1       7.100  33.504  65.411  1.00  0.00     0.044 A 
HETATM    3  C   UNL     1       7.033  33.214  64.042  1.00  0.00    -0.043 A 
HETATM    4  C   UNL     1       5.862  33.540  63.320  1.00  0.00    -0.001 A 
HETATM    5  C   UNL     1       5.858  33.201  61.907  1.00  0.00     0.069 A 
HETATM    6  C   UNL     1       6.806  32.410  61.299  1.00  0.00     0.007 A 
HETATM    7  C   UNL     1       6.414  32.311  59.943  1.00  0.00     0.153 A 
HETATM    8  N   UNL     1       5.293  33.036  59.715  1.00  0.00    -0.168 NA
HETATM    9  N   UNL     1       4.988  33.559  60.924  1.00  0.00    -0.276 N 
HETATM   10  H   UNL     1       4.170  34.154  61.000  1.00  0.00     0.189 HD
HETATM   11  C   UNL     1       7.933  31.810  62.063  1.00  0.00     0.048 C 
HETATM   12  C   UNL     1       8.253  32.646  63.324  1.00  0.00     0.044 C 
HETATM   13  C   UNL     1       4.778  34.118  63.982  1.00  0.00     0.017 A 
HETATM   14  C   UNL     1       4.856  34.389  65.355  1.00  0.00     0.037 A 
ENDROOT
BRANCH   7  15
HETATM   15  C   UNL     1       7.060  31.519  58.879  1.00  0.00     0.277 C 
HETATM   16  N   UNL     1       6.208  30.560  58.358  1.00  0.00    -0.320 N 
HETATM   17  H   UNL     1       5.394  30.412  58.950  1.00  0.00     0.169 HD
HETATM   18  O   UNL     1       8.240  31.672  58.590  1.00  0.00    -0.266 OA
BRANCH  16  19
HETATM   19  C   UNL     1       6.547  29.579  57.403  1.00  0.00     0.057 A 
HETATM   20  C   UNL     1       6.129  29.560  56.057  1.00  0.00     0.063 A 
HETATM   21 CL   UNL     1       4.876  30.577  55.430  1.00  0.00    -0.082 Cl
HETATM   22  C   UNL     1       6.604  28.572  55.187  1.00  0.00     0.068 A 
HETATM   23  C   UNL     1       7.455  27.586  55.663  1.00  0.00     0.118 A 
HETATM   24  F   UNL     1       7.903  26.641  54.827  1.00  0.00    -0.206 F 
HETATM   25  C   UNL     1       7.824  27.546  57.000  1.00  0.00     0.044 A 
HETATM   26  C   UNL     1       7.360  28.534  57.871  1.00  0.00     0.034 A 
ENDBRANCH  16  19
ENDBRANCH   7  15
BRANCH   1  27
HETATM   27  O   UNL     1       6.218  34.307  67.406  1.00  0.00    -0.356 OA
HETATM   28  C   UNL     1       5.063  34.383  68.231  1.00  0.00     0.210 C 
ENDBRANCH   1  27
TORSDOF 3
ENDMDL
MODEL 9
REMARK VINA RESULT:      -9.4      6.014     11.454
REMARK  3 active torsions:
REMARK  status: ('A' for Active; 'I' for Inactive)
REMARK    1  A    between atoms: O_2  and  C_3 
REMARK    2  A    between atoms: C_9  and  C_10 
REMARK       I    between atoms: C_10  and  N_11 
REMARK    3  A    between atoms: N_11  and  C_12 
ROOT
HETATM    1  C   UNL     1       5.791  34.197  67.514  1.00  0.00     0.068 A 
HETATM    2  C   UNL     1       6.837  34.003  66.608  1.00  0.00     0.044 A 
HETATM    3  C   UNL     1       6.577  33.799  65.246  1.00  0.00    -0.043 A 
HETATM    4  C   UNL     1       5.241  33.816  64.784  1.00  0.00    -0.001 A 
HETATM    5  C   UNL     1       5.046  33.586  63.363  1.00  0.00     0.069 A 
HETATM    6  C   UNL     1       6.031  33.151  62.507  1.00  0.00     0.007 A 
HETATM    7  C   UNL     1       5.416  33.033  61.238  1.00  0.00     0.153 A 
HETATM    8  N   UNL     1       4.117  33.411  61.299  1.00  0.00    -0.168 NA
HETATM    9  N   UNL     1       3.931  33.739  62.598  1.00  0.00    -0.276 N 
HETATM   10  H   UNL     1       3.014  34.062  62.888  1.00  0.00     0.189 HD
HETATM   11  C   UNL     1       7.410  32.858  62.984  1.00  0.00     0.048 C 
HETATM   12  C   UNL     1       7.735  33.664  64.263  1.00  0.00     0.044 C 
HETATM   13  C   UNL     1       4.197  34.005  65.691  1.00  0.00     0.017 A 
HETATM   14  C   UNL     1       4.473  34.193  67.052  1.00  0.00     0.037 A 
ENDROOT
BRANCH   7  15
HETATM   15  C   UNL     1       6.026  32.539  59.989  1.00  0.00     0.277 C 
HETATM   16  N   UNL     1       6.874  31.469  60.214  1.00  0.00    -0.320 N 
HETATM   17  H   UNL     1       7.111  31.371  61.199  1.00  0.00     0.169 HD
HETATM   18  O   UNL     1       5.839  33.101  58.917  1.00  0.00    -0.266 OA
BRANCH  16  19
HETATM   19  C   UNL     1       7.684  30.834  59.250  1.00  0.00     0.057 A 
HETATM   20  C   UNL     1       9.091  30.901  59.182  1.00  0.00     0.063 A 
HETATM   21 CL   UNL     1      10.040  32.027  60.090  1.00  0.00    -0.082 Cl
HETATM   22  C   UNL     1       9.784  30.154  58.222  1.00  0.00     0.068 A 
HETATM   23  C   UNL     1       9.081  29.380  57.311  1.00  0.00     0.118 A 
HETATM   24  F   UNL     1       9.750  28.671  56.393  1.00  0.00    -0.206 F 
HETATM   25  C   UNL     1       7.694  29.354  57.317  1.00  0.00     0.044 A 
HETATM   26  C   UNL     1       6.997  30.090  58.277  1.00  0.00     0.034 A 
ENDBRANCH  16  19
ENDBRANCH   7  15
BRANCH   1  27
HETATM   27  O   UNL     1       6.190  34.377  68.809  1.00  0.00    -0.356 OA
HETATM   28  C   UNL     1       7.489  34.916  69.017  1.00  0.00     0.210 C 
ENDBRANCH   1  27
TORSDOF 3
ENDMDL
MODEL 10
REMARK VINA RESULT:      -9.1      6.508      8.594
REMARK  3 active torsions:
REMARK  status: ('A' for Active; 'I' for Inactive)
REMARK    1  A    between atoms: O_2  and  C_3 
REMARK    2  A    between atoms: C_9  and  C_10 
REMARK       I    between atoms: C_10  and  N_11 
REMARK    3  A    between atoms: N_11  and  C_12 
ROOT
HETATM    1  C   UNL     1       8.302  24.304  55.742  1.00  0.00     0.068 A 
HETATM    2  C   UNL     1       8.123  24.065  54.377  1.00  0.00     0.044 A 
HETATM    3  C   UNL     1       7.511  25.022  53.556  1.00  0.00    -0.043 A 
HETATM    4  C   UNL     1       7.095  26.252  54.115  1.00  0.00    -0.001 A 
HETATM    5  C   UNL     1       6.459  27.192  53.208  1.00  0.00     0.069 A 
HETATM    6  C   UNL     1       6.053  26.880  51.930  1.00  0.00     0.007 A 
HETATM    7  C   UNL     1       5.465  28.058  51.414  1.00  0.00     0.153 A 
HETATM    8  N   UNL     1       5.534  29.065  52.318  1.00  0.00    -0.168 NA
HETATM    9  N   UNL     1       6.142  28.503  53.388  1.00  0.00    -0.276 N 
HETATM   10  H   UNL     1       6.308  29.079  54.206  1.00  0.00     0.189 HD
HETATM   11  C   UNL     1       6.224  25.515  51.365  1.00  0.00     0.048 C 
HETATM   12  C   UNL     1       7.392  24.773  52.056  1.00  0.00     0.044 C 
HETATM   13  C   UNL     1       7.270  26.488  55.480  1.00  0.00     0.017 A 
HETATM   14  C   UNL     1       7.870  25.515  56.290  1.00  0.00     0.037 A 
ENDROOT
BRANCH   7  15
HETATM   15  C   UNL     1       4.812  28.234  50.102  1.00  0.00     0.277 C 
HETATM   16  N   UNL     1       3.489  27.829  50.123  1.00  0.00    -0.320 N 
HETATM   17  H   UNL     1       3.275  27.271  50.946  1.00  0.00     0.169 HD
HETATM   18  O   UNL     1       5.438  28.613  49.120  1.00  0.00    -0.266 OA
BRANCH  16  19
HETATM   19  C   UNL     1       2.620  27.774  49.014  1.00  0.00     0.057 A 
HETATM   20  C   UNL     1       1.659  28.746  48.670  1.00  0.00     0.063 A 
HETATM   21 CL   UNL     1       1.175  30.028  49.728  1.00  0.00    -0.082 Cl
HETATM   22  C   UNL     1       0.913  28.612  47.494  1.00  0.00     0.068 A 
HETATM   23  C   UNL     1       1.092  27.498  46.688  1.00  0.00     0.118 A 
HETATM   24  F   UNL     1       0.372  27.373  45.565  1.00  0.00    -0.206 F 
HETATM   25  C   UNL     1       1.982  26.495  47.043  1.00  0.00     0.044 A 
HETATM   26  C   UNL     1       2.735  26.627  48.211  1.00  0.00     0.034 A 
ENDBRANCH  16  19
ENDBRANCH   7  15
BRANCH   1  27
HETATM   27  O   UNL     1       8.905  23.282  56.421  1.00  0.00    -0.356 OA
HETATM   28  C   UNL     1       8.237  22.027  56.428  1.00  0.00     0.210 C 
ENDBRANCH   1  27
TORSDOF 3
ENDMDL
