MODEL 1
REMARK VINA RESULT:     -10.0      0.000      0.000
REMARK  4 active torsions:
REMARK  status: ('A' for Active; 'I' for Inactive)
REMARK    1  A    between atoms: C_5  and  C_6 
REMARK    2  A    between atoms: C_10  and  C_11 
REMARK       I    between atoms: C_11  and  N_12 
REMARK    3  A    between atoms: N_12  and  N_13 
REMARK       I    between atoms: N_13  and  C_14 
REMARK       I    between atoms: C_14  and  N_15 
REMARK    4  A    between atoms: N_15  and  C_16 
ROOT
HETATM    1  C   UNL     1       5.733  28.513  55.981  1.00  0.00     0.288 C 
HETATM    2  N   UNL     1       6.909  29.186  56.231  1.00  0.00    -0.261 N 
HETATM    3  O   UNL     1       4.636  28.988  56.274  1.00  0.00    -0.264 OA
HETATM    4  H   UNL     1       7.834  28.794  56.067  1.00  0.00     0.190 HD
ENDROOT
BRANCH   1   5
HETATM    5  C   UNL     1       5.879  27.220  55.373  1.00  0.00     0.121 A 
HETATM    6  N   UNL     1       4.905  26.681  54.582  1.00  0.00    -0.272 N 
HETATM    7  N   UNL     1       5.184  25.452  54.127  1.00  0.00    -0.174 NA
HETATM    8  H   UNL     1       4.020  27.108  54.329  1.00  0.00     0.189 HD
HETATM    9  C   UNL     1       6.392  25.163  54.637  1.00  0.00     0.089 A 
HETATM   10  C   UNL     1       6.870  26.259  55.411  1.00  0.00     0.071 A 
BRANCH   9  11
HETATM   11  C   UNL     1       7.039  23.865  54.406  1.00  0.00    -0.006 A 
HETATM   12  C   UNL     1       7.319  22.992  55.466  1.00  0.00     0.014 A 
HETATM   13  C   UNL     1       7.900  21.741  55.230  1.00  0.00     0.007 A 
HETATM   14  C   UNL     1       8.224  21.341  53.930  1.00  0.00    -0.062 A 
HETATM   15  C   UNL     1       8.801  19.983  53.666  1.00  0.00     0.048 C 
HETATM   16  C   UNL     1       7.948  22.207  52.868  1.00  0.00     0.007 A 
HETATM   17  C   UNL     1       7.368  23.458  53.106  1.00  0.00     0.014 A 
ENDBRANCH   9  11
ENDBRANCH   1   5
BRANCH   2  18
HETATM   18  N   UNL     1       6.871  30.398  56.943  1.00  0.00    -0.249 N 
HETATM   19  C   UNL     1       7.376  30.360  58.235  1.00  0.00     0.339 C 
HETATM   20  N   UNL     1       7.164  31.556  58.889  1.00  0.00    -0.306 N 
HETATM   21  O   UNL     1       7.985  29.384  58.661  1.00  0.00    -0.245 OA
HETATM   22  H   UNL     1       7.230  32.352  58.270  1.00  0.00     0.171 HD
HETATM   23  H   UNL     1       6.047  30.967  56.765  1.00  0.00     0.192 HD
BRANCH  20  24
HETATM   24  C   UNL     1       7.494  31.788  60.247  1.00  0.00     0.058 A 
HETATM   25  C   UNL     1       6.567  32.065  61.269  1.00  0.00     0.060 A 
HETATM   26 CL   UNL     1       4.892  32.389  60.975  1.00  0.00    -0.082 Cl
HETATM   27  C   UNL     1       7.010  32.242  62.587  1.00  0.00     0.026 A 
HETATM   28  C   UNL     1       8.369  32.175  62.892  1.00  0.00     0.002 A 
HETATM   29  C   UNL     1       9.296  31.958  61.877  1.00  0.00     0.002 A 
HETATM   30  C   UNL     1       8.861  31.777  60.562  1.00  0.00     0.031 A 
ENDBRANCH  20  24
ENDBRANCH   2  18
TORSDOF 4
ENDMDL
MODEL 2
REMARK VINA RESULT:      -9.7      3.152     10.200
REMARK  4 active torsions:
REMARK  status: ('A' for Active; 'I' for Inactive)
REMARK    1  A    between atoms: C_5  and  C_6 
REMARK    2  A    between atoms: C_10  and  C_11 
REMARK       I    between atoms: C_11  and  N_12 
REMARK    3  A    between atoms: N_12  and  N_13 
REMARK       I    between atoms: N_13  and  C_14 
REMARK       I    between atoms: C_14  and  N_15 
REMARK    4  A    between atoms: N_15  and  C_16 
ROOT
HETATM    1  C   UNL     1       8.169  29.038  56.931  1.00  0.00     0.288 C 
HETATM    2  N   UNL     1       7.527  27.821  56.876  1.00  0.00    -0.261 N 
HETATM    3  O   UNL     1       9.092  29.324  56.168  1.00  0.00    -0.264 OA
HETATM    4  H   UNL     1       6.811  27.526  57.535  1.00  0.00     0.190 HD
ENDROOT
BRANCH   1   5
HETATM    5  C   UNL     1       7.698  29.939  57.946  1.00  0.00     0.121 A 
HETATM    6  N   UNL     1       6.666  30.804  57.720  1.00  0.00    -0.272 N 
HETATM    7  N   UNL     1       6.378  31.601  58.758  1.00  0.00    -0.174 NA
HETATM    8  H   UNL     1       6.126  30.899  56.865  1.00  0.00     0.189 HD
HETATM    9  C   UNL     1       7.256  31.251  59.712  1.00  0.00     0.089 A 
HETATM   10  C   UNL     1       8.091  30.196  59.245  1.00  0.00     0.071 A 
BRANCH   9  11
HETATM   11  C   UNL     1       7.302  31.936  61.011  1.00  0.00    -0.006 A 
HETATM   12  C   UNL     1       6.430  32.993  61.308  1.00  0.00     0.014 A 
HETATM   13  C   UNL     1       6.457  33.612  62.563  1.00  0.00     0.007 A 
HETATM   14  C   UNL     1       7.362  33.195  63.543  1.00  0.00    -0.062 A 
HETATM   15  C   UNL     1       7.361  33.821  64.905  1.00  0.00     0.048 C 
HETATM   16  C   UNL     1       8.235  32.142  63.253  1.00  0.00     0.007 A 
HETATM   17  C   UNL     1       8.208  31.524  61.998  1.00  0.00     0.014 A 
ENDBRANCH   9  11
ENDBRANCH   1   5
BRANCH   2  18
HETATM   18  N   UNL     1       8.008  26.828  56.004  1.00  0.00    -0.249 N 
HETATM   19  C   UNL     1       7.643  25.524  56.309  1.00  0.00     0.339 C 
HETATM   20  N   UNL     1       8.277  24.622  55.479  1.00  0.00    -0.306 N 
HETATM   21  O   UNL     1       6.804  25.272  57.168  1.00  0.00    -0.245 OA
HETATM   22  H   UNL     1       8.403  24.979  54.543  1.00  0.00     0.171 HD
HETATM   23  H   UNL     1       8.947  26.994  55.651  1.00  0.00     0.192 HD
BRANCH  20  24
HETATM   24  C   UNL     1       8.168  23.215  55.605  1.00  0.00     0.058 A 
HETATM   25  C   UNL     1       7.841  22.331  54.560  1.00  0.00     0.060 A 
HETATM   26 CL   UNL     1       7.300  22.856  53.002  1.00  0.00    -0.082 Cl
HETATM   27  C   UNL     1       7.798  20.951  54.798  1.00  0.00     0.026 A 
HETATM   28  C   UNL     1       8.046  20.444  56.073  1.00  0.00     0.002 A 
HETATM   29  C   UNL     1       8.314  21.316  57.124  1.00  0.00     0.002 A 
HETATM   30  C   UNL     1       8.363  22.693  56.893  1.00  0.00     0.031 A 
ENDBRANCH  20  24
ENDBRANCH   2  18
TORSDOF 4
ENDMDL
MODEL 3
REMARK VINA RESULT:      -9.7      2.025      2.315
REMARK  4 active torsions:
REMARK  status: ('A' for Active; 'I' for Inactive)
REMARK    1  A    between atoms: C_5  and  C_6 
REMARK    2  A    between atoms: C_10  and  C_11 
REMARK       I    between atoms: C_11  and  N_12 
REMARK    3  A    between atoms: N_12  and  N_13 
REMARK       I    between atoms: N_13  and  C_14 
REMARK       I    between atoms: C_14  and  N_15 
REMARK    4  A    between atoms: N_15  and  C_16 
ROOT
HETATM    1  C   UNL     1       7.022  28.250  57.313  1.00  0.00     0.288 C 
HETATM    2  N   UNL     1       8.051  29.143  57.513  1.00  0.00    -0.261 N 
HETATM    3  O   UNL     1       5.843  28.572  57.454  1.00  0.00    -0.264 OA
HETATM    4  H   UNL     1       9.037  28.893  57.474  1.00  0.00     0.190 HD
ENDROOT
BRANCH   1   5
HETATM    5  C   UNL     1       7.422  26.920  56.946  1.00  0.00     0.121 A 
HETATM    6  N   UNL     1       8.158  26.131  57.784  1.00  0.00    -0.272 N 
HETATM    7  N   UNL     1       8.479  24.935  57.272  1.00  0.00    -0.174 NA
HETATM    8  H   UNL     1       8.478  26.367  58.718  1.00  0.00     0.189 HD
HETATM    9  C   UNL     1       7.935  24.930  56.044  1.00  0.00     0.089 A 
HETATM   10  C   UNL     1       7.246  26.155  55.810  1.00  0.00     0.071 A 
BRANCH   9  11
HETATM   11  C   UNL     1       8.106  23.796  55.127  1.00  0.00    -0.006 A 
HETATM   12  C   UNL     1       8.915  22.702  55.463  1.00  0.00     0.014 A 
HETATM   13  C   UNL     1       9.040  21.609  54.598  1.00  0.00     0.007 A 
HETATM   14  C   UNL     1       8.366  21.592  53.373  1.00  0.00    -0.062 A 
HETATM   15  C   UNL     1       8.456  20.403  52.465  1.00  0.00     0.048 C 
HETATM   16  C   UNL     1       7.557  22.680  53.031  1.00  0.00     0.007 A 
HETATM   17  C   UNL     1       7.435  23.772  53.897  1.00  0.00     0.014 A 
ENDBRANCH   9  11
ENDBRANCH   1   5
BRANCH   2  18
HETATM   18  N   UNL     1       7.762  30.429  58.003  1.00  0.00    -0.249 N 
HETATM   19  C   UNL     1       7.856  30.592  59.377  1.00  0.00     0.339 C 
HETATM   20  N   UNL     1       7.419  31.842  59.764  1.00  0.00    -0.306 N 
HETATM   21  O   UNL     1       8.342  29.726  60.098  1.00  0.00    -0.245 OA
HETATM   22  H   UNL     1       7.641  32.557  59.085  1.00  0.00     0.171 HD
HETATM   23  H   UNL     1       7.010  30.909  57.513  1.00  0.00     0.192 HD
BRANCH  20  24
HETATM   24  C   UNL     1       7.318  32.266  61.111  1.00  0.00     0.058 A 
HETATM   25  C   UNL     1       8.405  32.453  61.986  1.00  0.00     0.060 A 
HETATM   26 CL   UNL     1      10.025  31.973  61.609  1.00  0.00    -0.082 Cl
HETATM   27  C   UNL     1       8.183  32.912  63.291  1.00  0.00     0.026 A 
HETATM   28  C   UNL     1       6.887  33.157  63.745  1.00  0.00     0.002 A 
HETATM   29  C   UNL     1       5.804  32.920  62.904  1.00  0.00     0.002 A 
HETATM   30  C   UNL     1       6.018  32.467  61.600  1.00  0.00     0.031 A 
ENDBRANCH  20  24
ENDBRANCH   2  18
TORSDOF 4
ENDMDL
MODEL 4
REMARK VINA RESULT:      -9.6      2.607      4.090
REMARK  4 active torsions:
REMARK  status: ('A' for Active; 'I' for Inactive)
REMARK    1  A    between atoms: C_5  and  C_6 
REMARK    2  A    between atoms: C_10  and  C_11 
REMARK       I    between atoms: C_11  and  N_12 
REMARK    3  A    between atoms: N_12  and  N_13 
REMARK       I    between atoms: N_13  and  C_14 
REMARK       I    between atoms: C_14  and  N_15 
REMARK    4  A    between atoms: N_15  and  C_16 
ROOT
HETATM    1  C   UNL     1       7.864  30.776  58.972  1.00  0.00     0.288 C 
HETATM    2  N   UNL     1       7.243  30.873  60.197  1.00  0.00    -0.261 N 
HETATM    3  O   UNL     1       8.606  31.660  58.546  1.00  0.00    -0.264 OA
HETATM    4  H   UNL     1       6.570  30.196  60.549  1.00  0.00     0.190 HD
ENDROOT
BRANCH   1   5
HETATM    5  C   UNL     1       7.573  29.583  58.226  1.00  0.00     0.121 A 
HETATM    6  N   UNL     1       6.300  29.257  57.857  1.00  0.00    -0.272 N 
HETATM    7  N   UNL     1       6.199  28.093  57.200  1.00  0.00    -0.174 NA
HETATM    8  H   UNL     1       5.456  29.792  58.039  1.00  0.00     0.189 HD
HETATM    9  C   UNL     1       7.456  27.628  57.132  1.00  0.00     0.089 A 
HETATM   10  C   UNL     1       8.352  28.547  57.750  1.00  0.00     0.071 A 
BRANCH   9  11
HETATM   11  C   UNL     1       7.768  26.330  56.519  1.00  0.00    -0.006 A 
HETATM   12  C   UNL     1       8.499  25.354  57.212  1.00  0.00     0.014 A 
HETATM   13  C   UNL     1       8.757  24.106  56.632  1.00  0.00     0.007 A 
HETATM   14  C   UNL     1       8.299  23.812  55.345  1.00  0.00    -0.062 A 
HETATM   15  C   UNL     1       8.529  22.461  54.738  1.00  0.00     0.048 C 
HETATM   16  C   UNL     1       7.570  24.781  54.648  1.00  0.00     0.007 A 
HETATM   17  C   UNL     1       7.314  26.028  55.228  1.00  0.00     0.014 A 
ENDBRANCH   9  11
ENDBRANCH   1   5
BRANCH   2  18
HETATM   18  N   UNL     1       7.364  32.063  60.938  1.00  0.00    -0.249 N 
HETATM   19  C   UNL     1       6.831  32.037  62.219  1.00  0.00     0.339 C 
HETATM   20  N   UNL     1       6.876  33.287  62.804  1.00  0.00    -0.306 N 
HETATM   21  O   UNL     1       6.451  30.994  62.740  1.00  0.00    -0.245 OA
HETATM   22  H   UNL     1       7.696  33.811  62.533  1.00  0.00     0.171 HD
HETATM   23  H   UNL     1       7.259  32.914  60.391  1.00  0.00     0.192 HD
BRANCH  20  24
HETATM   24  C   UNL     1       6.329  33.589  64.074  1.00  0.00     0.058 A 
HETATM   25  C   UNL     1       4.957  33.743  64.350  1.00  0.00     0.060 A 
HETATM   26 CL   UNL     1       3.739  33.807  63.121  1.00  0.00    -0.082 Cl
HETATM   27  C   UNL     1       4.531  34.007  65.658  1.00  0.00     0.026 A 
HETATM   28  C   UNL     1       5.458  34.151  66.690  1.00  0.00     0.002 A 
HETATM   29  C   UNL     1       6.818  34.057  66.415  1.00  0.00     0.002 A 
HETATM   30  C   UNL     1       7.251  33.788  65.113  1.00  0.00     0.031 A 
ENDBRANCH  20  24
ENDBRANCH   2  18
TORSDOF 4
ENDMDL
MODEL 5
REMARK VINA RESULT:      -9.6      2.972     10.737
REMARK  4 active torsions:
REMARK  status: ('A' for Active; 'I' for Inactive)
REMARK    1  A    between atoms: C_5  and  C_6 
REMARK    2  A    between atoms: C_10  and  C_11 
REMARK       I    between atoms: C_11  and  N_12 
REMARK    3  A    between atoms: N_12  and  N_13 
REMARK       I    between atoms: N_13  and  C_14 
REMARK       I    between atoms: C_14  and  N_15 
REMARK    4  A    between atoms: N_15  and  C_16 
ROOT
HETATM    1  C   UNL     1       8.570  30.636  59.027  1.00  0.00     0.288 C 
HETATM    2  N   UNL     1       7.884  29.545  58.542  1.00  0.00    -0.261 N 
HETATM    3  O   UNL     1       9.381  31.254  58.338  1.00  0.00    -0.264 OA
HETATM    4  H   UNL     1       7.261  28.969  59.104  1.00  0.00     0.190 HD
ENDROOT
BRANCH   1   5
HETATM    5  C   UNL     1       8.284  30.989  60.390  1.00  0.00     0.121 A 
HETATM    6  N   UNL     1       8.762  30.256  61.439  1.00  0.00    -0.272 N 
HETATM    7  N   UNL     1       8.370  30.699  62.642  1.00  0.00    -0.174 NA
HETATM    8  H   UNL     1       9.354  29.433  61.389  1.00  0.00     0.189 HD
HETATM    9  C   UNL     1       7.601  31.769  62.380  1.00  0.00     0.089 A 
HETATM   10  C   UNL     1       7.538  31.993  60.975  1.00  0.00     0.071 A 
BRANCH   9  11
HETATM   11  C   UNL     1       6.930  32.519  63.449  1.00  0.00    -0.006 A 
HETATM   12  C   UNL     1       5.533  32.597  63.519  1.00  0.00     0.014 A 
HETATM   13  C   UNL     1       4.904  33.283  64.565  1.00  0.00     0.007 A 
HETATM   14  C   UNL     1       5.660  33.915  65.556  1.00  0.00    -0.062 A 
HETATM   15  C   UNL     1       4.992  34.609  66.705  1.00  0.00     0.048 C 
HETATM   16  C   UNL     1       7.055  33.842  65.493  1.00  0.00     0.007 A 
HETATM   17  C   UNL     1       7.682  33.157  64.446  1.00  0.00     0.014 A 
ENDBRANCH   9  11
ENDBRANCH   1   5
BRANCH   2  18
HETATM   18  N   UNL     1       8.196  29.046  57.265  1.00  0.00    -0.249 N 
HETATM   19  C   UNL     1       7.412  27.994  56.814  1.00  0.00     0.339 C 
HETATM   20  N   UNL     1       7.888  27.492  55.620  1.00  0.00    -0.306 N 
HETATM   21  O   UNL     1       6.396  27.646  57.408  1.00  0.00    -0.245 OA
HETATM   22  H   UNL     1       8.280  28.210  55.028  1.00  0.00     0.171 HD
HETATM   23  H   UNL     1       9.190  29.032  57.048  1.00  0.00     0.192 HD
BRANCH  20  24
HETATM   24  C   UNL     1       7.345  26.362  54.962  1.00  0.00     0.058 A 
HETATM   25  C   UNL     1       7.493  25.028  55.386  1.00  0.00     0.060 A 
HETATM   26 CL   UNL     1       8.557  24.547  56.664  1.00  0.00    -0.082 Cl
HETATM   27  C   UNL     1       6.877  23.993  54.670  1.00  0.00     0.026 A 
HETATM   28  C   UNL     1       6.142  24.268  53.518  1.00  0.00     0.002 A 
HETATM   29  C   UNL     1       6.039  25.578  53.060  1.00  0.00     0.002 A 
HETATM   30  C   UNL     1       6.646  26.616  53.772  1.00  0.00     0.031 A 
ENDBRANCH  20  24
ENDBRANCH   2  18
TORSDOF 4
ENDMDL
MODEL 6
REMARK VINA RESULT:      -9.3      2.903     10.585
REMARK  4 active torsions:
REMARK  status: ('A' for Active; 'I' for Inactive)
REMARK    1  A    between atoms: C_5  and  C_6 
REMARK    2  A    between atoms: C_10  and  C_11 
REMARK       I    between atoms: C_11  and  N_12 
REMARK    3  A    between atoms: N_12  and  N_13 
REMARK       I    between atoms: N_13  and  C_14 
REMARK       I    between atoms: C_14  and  N_15 
REMARK    4  A    between atoms: N_15  and  C_16 
ROOT
HETATM    1  C   UNL     1       8.354  30.166  58.820  1.00  0.00     0.288 C 
HETATM    2  N   UNL     1       7.700  29.057  58.331  1.00  0.00    -0.261 N 
HETATM    3  O   UNL     1       9.483  30.476  58.442  1.00  0.00    -0.264 OA
HETATM    4  H   UNL     1       6.798  28.731  58.673  1.00  0.00     0.190 HD
ENDROOT
BRANCH   1   5
HETATM    5  C   UNL     1       7.634  30.920  59.809  1.00  0.00     0.121 A 
HETATM    6  N   UNL     1       6.499  31.613  59.501  1.00  0.00    -0.272 N 
HETATM    7  N   UNL     1       5.974  32.294  60.529  1.00  0.00    -0.174 NA
HETATM    8  H   UNL     1       6.042  31.664  58.595  1.00  0.00     0.189 HD
HETATM    9  C   UNL     1       6.796  32.044  61.561  1.00  0.00     0.089 A 
HETATM   10  C   UNL     1       7.842  31.168  61.151  1.00  0.00     0.071 A 
BRANCH   9  11
HETATM   11  C   UNL     1       6.590  32.655  62.880  1.00  0.00    -0.006 A 
HETATM   12  C   UNL     1       5.303  32.890  63.382  1.00  0.00     0.014 A 
HETATM   13  C   UNL     1       5.119  33.438  64.657  1.00  0.00     0.007 A 
HETATM   14  C   UNL     1       6.218  33.773  65.452  1.00  0.00    -0.062 A 
HETATM   15  C   UNL     1       6.027  34.314  66.837  1.00  0.00     0.048 C 
HETATM   16  C   UNL     1       7.506  33.542  64.958  1.00  0.00     0.007 A 
HETATM   17  C   UNL     1       7.688  32.996  63.683  1.00  0.00     0.014 A 
ENDBRANCH   9  11
ENDBRANCH   1   5
BRANCH   2  18
HETATM   18  N   UNL     1       8.379  28.185  57.460  1.00  0.00    -0.249 N 
HETATM   19  C   UNL     1       7.751  26.976  57.200  1.00  0.00     0.339 C 
HETATM   20  N   UNL     1       8.559  26.144  56.453  1.00  0.00    -0.306 N 
HETATM   21  O   UNL     1       6.596  26.759  57.553  1.00  0.00    -0.245 OA
HETATM   22  H   UNL     1       9.127  26.651  55.788  1.00  0.00     0.171 HD
HETATM   23  H   UNL     1       9.390  28.189  57.562  1.00  0.00     0.192 HD
BRANCH  20  24
HETATM   24  C   UNL     1       8.223  24.813  56.105  1.00  0.00     0.058 A 
HETATM   25  C   UNL     1       7.507  24.433  54.954  1.00  0.00     0.060 A 
HETATM   26 CL   UNL     1       6.729  25.563  53.898  1.00  0.00    -0.082 Cl
HETATM   27  C   UNL     1       7.265  23.077  54.697  1.00  0.00     0.026 A 
HETATM   28  C   UNL     1       7.701  22.097  55.588  1.00  0.00     0.002 A 
HETATM   29  C   UNL     1       8.359  22.469  56.756  1.00  0.00     0.002 A 
HETATM   30  C   UNL     1       8.609  23.820  57.017  1.00  0.00     0.031 A 
ENDBRANCH  20  24
ENDBRANCH   2  18
TORSDOF 4
ENDMDL
MODEL 7
REMARK VINA RESULT:      -9.3      2.634      3.067
REMARK  4 active torsions:
REMARK  status: ('A' for Active; 'I' for Inactive)
REMARK    1  A    between atoms: C_5  and  C_6 
REMARK    2  A    between atoms: C_10  and  C_11 
REMARK       I    between atoms: C_11  and  N_12 
REMARK    3  A    between atoms: N_12  and  N_13 
REMARK       I    between atoms: N_13  and  C_14 
REMARK       I    between atoms: C_14  and  N_15 
REMARK    4  A    between atoms: N_15  and  C_16 
ROOT
HETATM    1  C   UNL     1       4.802  28.262  56.375  1.00  0.00     0.288 C 
HETATM    2  N   UNL     1       4.862  28.794  57.644  1.00  0.00    -0.261 N 
HETATM    3  O   UNL     1       4.024  28.691  55.524  1.00  0.00    -0.264 OA
HETATM    4  H   UNL     1       5.441  28.418  58.392  1.00  0.00     0.190 HD
ENDROOT
BRANCH   1   5
HETATM    5  C   UNL     1       5.695  27.164  56.124  1.00  0.00     0.121 A 
HETATM    6  N   UNL     1       6.960  27.134  56.635  1.00  0.00    -0.272 N 
HETATM    7  N   UNL     1       7.674  26.059  56.272  1.00  0.00    -0.174 NA
HETATM    8  H   UNL     1       7.394  27.831  57.232  1.00  0.00     0.189 HD
HETATM    9  C   UNL     1       6.848  25.347  55.488  1.00  0.00     0.089 A 
HETATM   10  C   UNL     1       5.587  26.002  55.386  1.00  0.00     0.071 A 
BRANCH   9  11
HETATM   11  C   UNL     1       7.278  24.101  54.840  1.00  0.00    -0.006 A 
HETATM   12  C   UNL     1       7.491  22.931  55.581  1.00  0.00     0.014 A 
HETATM   13  C   UNL     1       7.863  21.739  54.948  1.00  0.00     0.007 A 
HETATM   14  C   UNL     1       8.041  21.697  53.562  1.00  0.00    -0.062 A 
HETATM   15  C   UNL     1       8.391  20.412  52.873  1.00  0.00     0.048 C 
HETATM   16  C   UNL     1       7.830  22.861  52.817  1.00  0.00     0.007 A 
HETATM   17  C   UNL     1       7.460  24.051  53.451  1.00  0.00     0.014 A 
ENDBRANCH   9  11
ENDBRANCH   1   5
BRANCH   2  18
HETATM   18  N   UNL     1       3.934  29.781  58.021  1.00  0.00    -0.249 N 
HETATM   19  C   UNL     1       4.468  31.004  58.402  1.00  0.00     0.339 C 
HETATM   20  N   UNL     1       3.489  31.848  58.884  1.00  0.00    -0.306 N 
HETATM   21  O   UNL     1       5.655  31.268  58.241  1.00  0.00    -0.245 OA
HETATM   22  H   UNL     1       2.607  31.732  58.405  1.00  0.00     0.171 HD
HETATM   23  H   UNL     1       3.127  29.430  58.530  1.00  0.00     0.192 HD
BRANCH  20  24
HETATM   24  C   UNL     1       3.744  33.132  59.426  1.00  0.00     0.058 A 
HETATM   25  C   UNL     1       4.243  33.381  60.718  1.00  0.00     0.060 A 
HETATM   26 CL   UNL     1       4.411  32.154  61.928  1.00  0.00    -0.082 Cl
HETATM   27  C   UNL     1       4.489  34.697  61.132  1.00  0.00     0.026 A 
HETATM   28  C   UNL     1       4.214  35.769  60.284  1.00  0.00     0.002 A 
HETATM   29  C   UNL     1       3.667  35.534  59.027  1.00  0.00     0.002 A 
HETATM   30  C   UNL     1       3.423  34.224  58.605  1.00  0.00     0.031 A 
ENDBRANCH  20  24
ENDBRANCH   2  18
TORSDOF 4
ENDMDL
MODEL 8
REMARK VINA RESULT:      -9.2      7.075     10.362
REMARK  4 active torsions:
REMARK  status: ('A' for Active; 'I' for Inactive)
REMARK    1  A    between atoms: C_5  and  C_6 
REMARK    2  A    between atoms: C_10  and  C_11 
REMARK       I    between atoms: C_11  and  N_12 
REMARK    3  A    between atoms: N_12  and  N_13 
REMARK       I    between atoms: N_13  and  C_14 
REMARK       I    between atoms: C_14  and  N_15 
REMARK    4  A    between atoms: N_15  and  C_16 
ROOT
HETATM    1  C   UNL     1       4.986  26.941  50.369  1.00  0.00     0.288 C 
HETATM    2  N   UNL     1       3.957  26.555  49.540  1.00  0.00    -0.261 N 
HETATM    3  O   UNL     1       5.601  27.993  50.198  1.00  0.00    -0.264 OA
HETATM    4  H   UNL     1       3.475  25.661  49.609  1.00  0.00     0.190 HD
ENDROOT
BRANCH   1   5
HETATM    5  C   UNL     1       5.300  26.025  51.430  1.00  0.00     0.121 A 
HETATM    6  N   UNL     1       4.487  25.876  52.517  1.00  0.00    -0.272 N 
HETATM    7  N   UNL     1       4.946  25.011  53.432  1.00  0.00    -0.174 NA
HETATM    8  H   UNL     1       3.608  26.353  52.691  1.00  0.00     0.189 HD
HETATM    9  C   UNL     1       6.111  24.568  52.932  1.00  0.00     0.089 A 
HETATM   10  C   UNL     1       6.359  25.169  51.665  1.00  0.00     0.071 A 
BRANCH   9  11
HETATM   11  C   UNL     1       6.961  23.625  53.670  1.00  0.00    -0.006 A 
HETATM   12  C   UNL     1       7.014  23.633  55.070  1.00  0.00     0.014 A 
HETATM   13  C   UNL     1       7.798  22.704  55.764  1.00  0.00     0.007 A 
HETATM   14  C   UNL     1       8.554  21.754  55.071  1.00  0.00    -0.062 A 
HETATM   15  C   UNL     1       9.356  20.725  55.809  1.00  0.00     0.048 C 
HETATM   16  C   UNL     1       8.506  21.740  53.673  1.00  0.00     0.007 A 
HETATM   17  C   UNL     1       7.723  22.670  52.982  1.00  0.00     0.014 A 
ENDBRANCH   9  11
ENDBRANCH   1   5
BRANCH   2  18
HETATM   18  N   UNL     1       3.668  27.323  48.397  1.00  0.00    -0.249 N 
HETATM   19  C   UNL     1       2.377  27.825  48.313  1.00  0.00     0.339 C 
HETATM   20  N   UNL     1       2.159  28.440  47.097  1.00  0.00    -0.306 N 
HETATM   21  O   UNL     1       1.598  27.764  49.258  1.00  0.00    -0.245 OA
HETATM   22  H   UNL     1       2.982  28.910  46.748  1.00  0.00     0.171 HD
HETATM   23  H   UNL     1       4.112  26.994  47.544  1.00  0.00     0.192 HD
BRANCH  20  24
HETATM   24  C   UNL     1       0.911  28.971  46.689  1.00  0.00     0.058 A 
HETATM   25  C   UNL     1       0.463  30.279  46.952  1.00  0.00     0.060 A 
HETATM   26 CL   UNL     1       1.283  31.372  48.014  1.00  0.00    -0.082 Cl
HETATM   27  C   UNL     1      -0.780  30.704  46.464  1.00  0.00     0.026 A 
HETATM   28  C   UNL     1      -1.595  29.831  45.744  1.00  0.00     0.002 A 
HETATM   29  C   UNL     1      -1.184  28.520  45.530  1.00  0.00     0.002 A 
HETATM   30  C   UNL     1       0.057  28.090  46.009  1.00  0.00     0.031 A 
ENDBRANCH  20  24
ENDBRANCH   2  18
TORSDOF 4
ENDMDL
MODEL 9
REMARK VINA RESULT:      -9.0      2.566     10.289
REMARK  4 active torsions:
REMARK  status: ('A' for Active; 'I' for Inactive)
REMARK    1  A    between atoms: C_5  and  C_6 
REMARK    2  A    between atoms: C_10  and  C_11 
REMARK       I    between atoms: C_11  and  N_12 
REMARK    3  A    between atoms: N_12  and  N_13 
REMARK       I    between atoms: N_13  and  C_14 
REMARK       I    between atoms: C_14  and  N_15 
REMARK    4  A    between atoms: N_15  and  C_16 
ROOT
HETATM    1  C   UNL     1       5.943  30.445  57.370  1.00  0.00     0.288 C 
HETATM    2  N   UNL     1       5.759  29.096  57.573  1.00  0.00    -0.261 N 
HETATM    3  O   UNL     1       5.666  30.988  56.301  1.00  0.00    -0.264 OA
HETATM    4  H   UNL     1       6.043  28.603  58.417  1.00  0.00     0.190 HD
ENDROOT
BRANCH   1   5
HETATM    5  C   UNL     1       6.494  31.167  58.484  1.00  0.00     0.121 A 
HETATM    6  N   UNL     1       7.791  31.594  58.496  1.00  0.00    -0.272 N 
HETATM    7  N   UNL     1       8.155  32.216  59.626  1.00  0.00    -0.174 NA
HETATM    8  H   UNL     1       8.478  31.477  57.758  1.00  0.00     0.189 HD
HETATM    9  C   UNL     1       7.054  32.200  60.396  1.00  0.00     0.089 A 
HETATM   10  C   UNL     1       5.984  31.564  59.704  1.00  0.00     0.071 A 
BRANCH   9  11
HETATM   11  C   UNL     1       7.055  32.751  61.757  1.00  0.00    -0.006 A 
HETATM   12  C   UNL     1       6.104  33.698  62.161  1.00  0.00     0.014 A 
HETATM   13  C   UNL     1       6.091  34.186  63.472  1.00  0.00     0.007 A 
HETATM   14  C   UNL     1       7.035  33.746  64.404  1.00  0.00    -0.062 A 
HETATM   15  C   UNL     1       6.995  34.229  65.823  1.00  0.00     0.048 C 
HETATM   16  C   UNL     1       7.987  32.802  64.009  1.00  0.00     0.007 A 
HETATM   17  C   UNL     1       8.000  32.316  62.697  1.00  0.00     0.014 A 
ENDBRANCH   9  11
ENDBRANCH   1   5
BRANCH   2  18
HETATM   18  N   UNL     1       5.350  28.287  56.497  1.00  0.00    -0.249 N 
HETATM   19  C   UNL     1       6.263  27.332  56.073  1.00  0.00     0.339 C 
HETATM   20  N   UNL     1       5.824  26.693  54.932  1.00  0.00    -0.306 N 
HETATM   21  O   UNL     1       7.279  27.082  56.713  1.00  0.00    -0.245 OA
HETATM   22  H   UNL     1       4.820  26.575  54.916  1.00  0.00     0.171 HD
HETATM   23  H   UNL     1       4.797  28.770  55.792  1.00  0.00     0.192 HD
BRANCH  20  24
HETATM   24  C   UNL     1       6.580  25.730  54.220  1.00  0.00     0.058 A 
HETATM   25  C   UNL     1       6.912  24.448  54.696  1.00  0.00     0.060 A 
HETATM   26 CL   UNL     1       6.633  23.933  56.325  1.00  0.00    -0.082 Cl
HETATM   27  C   UNL     1       7.637  23.566  53.883  1.00  0.00     0.026 A 
HETATM   28  C   UNL     1       8.063  23.959  52.615  1.00  0.00     0.002 A 
HETATM   29  C   UNL     1       7.788  25.245  52.161  1.00  0.00     0.002 A 
HETATM   30  C   UNL     1       7.060  26.128  52.963  1.00  0.00     0.031 A 
ENDBRANCH  20  24
ENDBRANCH   2  18
TORSDOF 4
ENDMDL
MODEL 10
REMARK VINA RESULT:      -9.0      8.265     11.201
REMARK  4 active torsions:
REMARK  status: ('A' for Active; 'I' for Inactive)
REMARK    1  A    between atoms: C_5  and  C_6 
REMARK    2  A    between atoms: C_10  and  C_11 
REMARK       I    between atoms: C_11  and  N_12 
REMARK    3  A    between atoms: N_12  and  N_13 
REMARK       I    between atoms: N_13  and  C_14 
REMARK       I    between atoms: C_14  and  N_15 
REMARK    4  A    between atoms: N_15  and  C_16 
ROOT
HETATM    1  C   UNL     1       4.120  26.740  48.310  1.00  0.00     0.288 C 
HETATM    2  N   UNL     1       4.370  26.751  49.664  1.00  0.00    -0.261 N 
HETATM    3  O   UNL     1       4.970  26.389  47.493  1.00  0.00    -0.264 OA
HETATM    4  H   UNL     1       3.716  27.101  50.361  1.00  0.00     0.190 HD
ENDROOT
BRANCH   1   5
HETATM    5  C   UNL     1       2.808  27.181  47.922  1.00  0.00     0.121 A 
HETATM    6  N   UNL     1       1.679  26.534  48.335  1.00  0.00    -0.272 N 
HETATM    7  N   UNL     1       0.541  27.051  47.850  1.00  0.00    -0.174 NA
HETATM    8  H   UNL     1       1.629  25.723  48.943  1.00  0.00     0.189 HD
HETATM    9  C   UNL     1       0.932  28.082  47.084  1.00  0.00     0.089 A 
HETATM   10  C   UNL     1       2.350  28.207  47.119  1.00  0.00     0.071 A 
BRANCH   9  11
HETATM   11  C   UNL     1      -0.031  28.891  46.326  1.00  0.00    -0.006 A 
HETATM   12  C   UNL     1      -0.657  28.391  45.176  1.00  0.00     0.014 A 
HETATM   13  C   UNL     1      -1.603  29.156  44.483  1.00  0.00     0.007 A 
HETATM   14  C   UNL     1      -1.933  30.442  44.920  1.00  0.00    -0.062 A 
HETATM   15  C   UNL     1      -2.981  31.248  44.212  1.00  0.00     0.048 C 
HETATM   16  C   UNL     1      -1.313  30.948  46.067  1.00  0.00     0.007 A 
HETATM   17  C   UNL     1      -0.367  30.182  46.757  1.00  0.00     0.014 A 
ENDBRANCH   9  11
ENDBRANCH   1   5
BRANCH   2  18
HETATM   18  N   UNL     1       5.666  26.463  50.128  1.00  0.00    -0.249 N 
HETATM   19  C   UNL     1       5.745  25.642  51.243  1.00  0.00     0.339 C 
HETATM   20  N   UNL     1       7.044  25.538  51.696  1.00  0.00    -0.306 N 
HETATM   21  O   UNL     1       4.762  25.053  51.681  1.00  0.00    -0.245 OA
HETATM   22  H   UNL     1       7.719  25.550  50.943  1.00  0.00     0.171 HD
HETATM   23  H   UNL     1       6.323  27.236  50.053  1.00  0.00     0.192 HD
BRANCH  20  24
HETATM   24  C   UNL     1       7.423  24.837  52.866  1.00  0.00     0.058 A 
HETATM   25  C   UNL     1       7.457  25.383  54.163  1.00  0.00     0.060 A 
HETATM   26 CL   UNL     1       7.253  27.070  54.492  1.00  0.00    -0.082 Cl
HETATM   27  C   UNL     1       7.815  24.579  55.253  1.00  0.00     0.026 A 
HETATM   28  C   UNL     1       8.171  23.244  55.062  1.00  0.00     0.002 A 
HETATM   29  C   UNL     1       8.195  22.712  53.776  1.00  0.00     0.002 A 
HETATM   30  C   UNL     1       7.834  23.507  52.685  1.00  0.00     0.031 A 
ENDBRANCH  20  24
ENDBRANCH   2  18
TORSDOF 4
ENDMDL
