MODEL 1
REMARK VINA RESULT:      -8.9      0.000      0.000
REMARK  4 active torsions:
REMARK  status: ('A' for Active; 'I' for Inactive)
REMARK    1  A    between atoms: C_4  and  O_5 
REMARK    2  A    between atoms: O_5  and  C_6 
REMARK    3  A    between atoms: C_7  and  N_8 
REMARK       I    between atoms: N_8  and  C_9 
REMARK    4  A    between atoms: C_9  and  C_10 
ROOT
HETATM    1  C   UNL     1       7.227  24.720  53.812  1.00  0.00     0.102 A 
HETATM    2  C   UNL     1       5.918  25.171  54.082  1.00  0.00     0.069 A 
HETATM    3  C   UNL     1       5.112  25.598  53.022  1.00  0.00     0.032 A 
HETATM    4  C   UNL     1       5.615  25.629  51.719  1.00  0.00     0.002 A 
HETATM    5  C   UNL     1       6.925  25.232  51.465  1.00  0.00     0.003 A 
HETATM    6  C   UNL     1       7.734  24.780  52.509  1.00  0.00     0.039 A 
ENDROOT
BRANCH   2   7
HETATM    7  N   UNL     1       5.472  25.115  55.419  1.00  0.00    -0.320 N 
HETATM    8  C   UNL     1       5.533  26.006  56.452  1.00  0.00     0.257 C 
HETATM    9  O   UNL     1       4.816  25.845  57.440  1.00  0.00    -0.267 OA
HETATM   10  H   UNL     1       4.996  24.255  55.675  1.00  0.00     0.169 HD
BRANCH   8  11
HETATM   11  C   UNL     1       6.526  27.117  56.440  1.00  0.00     0.048 A 
HETATM   12  C   UNL     1       6.339  28.181  55.641  1.00  0.00     0.108 A 
HETATM   13  N   UNL     1       7.276  29.188  55.587  1.00  0.00    -0.333 N 
HETATM   14  C   UNL     1       8.456  29.176  56.290  1.00  0.00     0.245 A 
HETATM   15  H   UNL     1       7.121  29.998  54.998  1.00  0.00     0.168 HD
HETATM   16  O   UNL     1       9.272  30.088  56.237  1.00  0.00    -0.268 OA
HETATM   17  C   UNL     1       8.697  27.971  57.127  1.00  0.00     0.075 A 
HETATM   18  C   UNL     1       7.770  27.001  57.180  1.00  0.00     0.024 A 
ENDBRANCH   8  11
ENDBRANCH   2   7
BRANCH   1  19
HETATM   19  O   UNL     1       7.956  24.310  54.917  1.00  0.00    -0.309 OA
BRANCH  19  20
HETATM   20  C   UNL     1       8.064  22.971  55.187  1.00  0.00     0.076 A 
HETATM   21  C   UNL     1       8.301  22.593  56.509  1.00  0.00     0.037 A 
HETATM   22  C   UNL     1       8.364  21.240  56.841  1.00  0.00     0.003 A 
HETATM   23  C   UNL     1       8.172  20.272  55.854  1.00  0.00     0.000 A 
HETATM   24  C   UNL     1       7.909  20.654  54.537  1.00  0.00     0.003 A 
HETATM   25  C   UNL     1       7.841  22.007  54.203  1.00  0.00     0.037 A 
ENDBRANCH  19  20
ENDBRANCH   1  19
TORSDOF 4
ENDMDL
MODEL 2
REMARK VINA RESULT:      -8.7      0.970      1.280
REMARK  4 active torsions:
REMARK  status: ('A' for Active; 'I' for Inactive)
REMARK    1  A    between atoms: C_4  and  O_5 
REMARK    2  A    between atoms: O_5  and  C_6 
REMARK    3  A    between atoms: C_7  and  N_8 
REMARK       I    between atoms: N_8  and  C_9 
REMARK    4  A    between atoms: C_9  and  C_10 
ROOT
HETATM    1  C   UNL     1       7.124  24.740  53.927  1.00  0.00     0.102 A 
HETATM    2  C   UNL     1       5.811  25.105  54.291  1.00  0.00     0.069 A 
HETATM    3  C   UNL     1       4.982  25.708  53.341  1.00  0.00     0.032 A 
HETATM    4  C   UNL     1       5.466  25.995  52.062  1.00  0.00     0.002 A 
HETATM    5  C   UNL     1       6.779  25.680  51.723  1.00  0.00     0.003 A 
HETATM    6  C   UNL     1       7.610  25.055  52.654  1.00  0.00     0.039 A 
ENDROOT
BRANCH   2   7
HETATM    7  N   UNL     1       5.385  24.788  55.598  1.00  0.00    -0.320 N 
HETATM    8  C   UNL     1       5.301  25.522  56.747  1.00  0.00     0.257 C 
HETATM    9  O   UNL     1       4.625  25.107  57.689  1.00  0.00    -0.267 OA
HETATM   10  H   UNL     1       5.060  23.834  55.723  1.00  0.00     0.169 HD
BRANCH   8  11
HETATM   11  C   UNL     1       6.096  26.772  56.911  1.00  0.00     0.048 A 
HETATM   12  C   UNL     1       7.389  26.706  57.273  1.00  0.00     0.108 A 
HETATM   13  N   UNL     1       8.117  27.856  57.475  1.00  0.00    -0.333 N 
HETATM   14  C   UNL     1       7.597  29.123  57.365  1.00  0.00     0.245 A 
HETATM   15  H   UNL     1       9.097  27.802  57.730  1.00  0.00     0.168 HD
HETATM   16  O   UNL     1       8.265  30.135  57.538  1.00  0.00    -0.268 OA
HETATM   17  C   UNL     1       6.152  29.200  57.026  1.00  0.00     0.075 A 
HETATM   18  C   UNL     1       5.455  28.071  56.820  1.00  0.00     0.024 A 
ENDBRANCH   8  11
ENDBRANCH   2   7
BRANCH   1  19
HETATM   19  O   UNL     1       7.876  24.142  54.927  1.00  0.00    -0.309 OA
BRANCH  19  20
HETATM   20  C   UNL     1       8.097  22.791  54.878  1.00  0.00     0.076 A 
HETATM   21  C   UNL     1       8.138  22.098  56.088  1.00  0.00     0.037 A 
HETATM   22  C   UNL     1       8.306  20.714  56.087  1.00  0.00     0.003 A 
HETATM   23  C   UNL     1       8.415  20.027  54.877  1.00  0.00     0.000 A 
HETATM   24  C   UNL     1       8.347  20.722  53.667  1.00  0.00     0.003 A 
HETATM   25  C   UNL     1       8.175  22.105  53.666  1.00  0.00     0.037 A 
ENDBRANCH  19  20
ENDBRANCH   1  19
TORSDOF 4
ENDMDL
MODEL 3
REMARK VINA RESULT:      -8.6      1.605      4.348
REMARK  4 active torsions:
REMARK  status: ('A' for Active; 'I' for Inactive)
REMARK    1  A    between atoms: C_4  and  O_5 
REMARK    2  A    between atoms: O_5  and  C_6 
REMARK    3  A    between atoms: C_7  and  N_8 
REMARK       I    between atoms: N_8  and  C_9 
REMARK    4  A    between atoms: C_9  and  C_10 
ROOT
HETATM    1  C   UNL     1       6.241  24.372  54.045  1.00  0.00     0.102 A 
HETATM    2  C   UNL     1       6.628  24.641  55.375  1.00  0.00     0.069 A 
HETATM    3  C   UNL     1       7.869  24.188  55.830  1.00  0.00     0.032 A 
HETATM    4  C   UNL     1       8.695  23.431  54.994  1.00  0.00     0.002 A 
HETATM    5  C   UNL     1       8.287  23.124  53.700  1.00  0.00     0.003 A 
HETATM    6  C   UNL     1       7.061  23.590  53.223  1.00  0.00     0.039 A 
ENDROOT
BRANCH   2   7
HETATM    7  N   UNL     1       5.748  25.409  56.166  1.00  0.00    -0.320 N 
HETATM    8  C   UNL     1       5.680  26.744  56.443  1.00  0.00     0.257 C 
HETATM    9  O   UNL     1       4.649  27.217  56.924  1.00  0.00    -0.267 OA
HETATM   10  H   UNL     1       5.003  24.882  56.612  1.00  0.00     0.169 HD
BRANCH   8  11
HETATM   11  C   UNL     1       6.872  27.620  56.261  1.00  0.00     0.048 A 
HETATM   12  C   UNL     1       7.095  28.218  55.077  1.00  0.00     0.108 A 
HETATM   13  N   UNL     1       8.219  28.988  54.884  1.00  0.00    -0.333 N 
HETATM   14  C   UNL     1       9.193  29.176  55.836  1.00  0.00     0.245 A 
HETATM   15  H   UNL     1       8.373  29.452  53.997  1.00  0.00     0.168 HD
HETATM   16  O   UNL     1      10.180  29.876  55.648  1.00  0.00    -0.268 OA
HETATM   17  C   UNL     1       8.981  28.467  57.124  1.00  0.00     0.075 A 
HETATM   18  C   UNL     1       7.875  27.728  57.304  1.00  0.00     0.024 A 
ENDBRANCH   8  11
ENDBRANCH   2   7
BRANCH   1  19
HETATM   19  O   UNL     1       4.999  24.861  53.674  1.00  0.00    -0.309 OA
BRANCH  19  20
HETATM   20  C   UNL     1       4.925  25.846  52.724  1.00  0.00     0.076 A 
HETATM   21  C   UNL     1       5.176  25.487  51.399  1.00  0.00     0.037 A 
HETATM   22  C   UNL     1       5.059  26.442  50.390  1.00  0.00     0.003 A 
HETATM   23  C   UNL     1       4.675  27.746  50.708  1.00  0.00     0.000 A 
HETATM   24  C   UNL     1       4.399  28.094  52.032  1.00  0.00     0.003 A 
HETATM   25  C   UNL     1       4.511  27.139  53.042  1.00  0.00     0.037 A 
ENDBRANCH  19  20
ENDBRANCH   1  19
TORSDOF 4
ENDMDL
MODEL 4
REMARK VINA RESULT:      -8.5      9.615     12.967
REMARK  4 active torsions:
REMARK  status: ('A' for Active; 'I' for Inactive)
REMARK    1  A    between atoms: C_4  and  O_5 
REMARK    2  A    between atoms: O_5  and  C_6 
REMARK    3  A    between atoms: C_7  and  N_8 
REMARK       I    between atoms: N_8  and  C_9 
REMARK    4  A    between atoms: C_9  and  C_10 
ROOT
HETATM    1  C   UNL     1       3.828  34.676  64.140  1.00  0.00     0.102 A 
HETATM    2  C   UNL     1       3.831  33.945  62.933  1.00  0.00     0.069 A 
HETATM    3  C   UNL     1       3.862  34.635  61.718  1.00  0.00     0.032 A 
HETATM    4  C   UNL     1       3.835  36.031  61.697  1.00  0.00     0.002 A 
HETATM    5  C   UNL     1       3.780  36.748  62.889  1.00  0.00     0.003 A 
HETATM    6  C   UNL     1       3.773  36.074  64.111  1.00  0.00     0.039 A 
ENDROOT
BRANCH   2   7
HETATM    7  N   UNL     1       3.856  32.538  63.025  1.00  0.00    -0.320 N 
HETATM    8  C   UNL     1       4.856  31.619  62.879  1.00  0.00     0.257 C 
HETATM    9  O   UNL     1       4.696  30.471  63.293  1.00  0.00    -0.267 OA
HETATM   10  H   UNL     1       2.966  32.108  63.260  1.00  0.00     0.169 HD
BRANCH   8  11
HETATM   11  C   UNL     1       6.101  31.963  62.136  1.00  0.00     0.048 A 
HETATM   12  C   UNL     1       6.083  32.058  60.795  1.00  0.00     0.108 A 
HETATM   13  N   UNL     1       7.238  32.326  60.097  1.00  0.00    -0.333 N 
HETATM   14  C   UNL     1       8.471  32.477  60.684  1.00  0.00     0.245 A 
HETATM   15  H   UNL     1       7.216  32.416  59.088  1.00  0.00     0.168 HD
HETATM   16  O   UNL     1       9.487  32.727  60.046  1.00  0.00    -0.268 OA
HETATM   17  C   UNL     1       8.508  32.310  62.161  1.00  0.00     0.075 A 
HETATM   18  C   UNL     1       7.372  32.061  62.831  1.00  0.00     0.024 A 
ENDBRANCH   8  11
ENDBRANCH   2   7
BRANCH   1  19
HETATM   19  O   UNL     1       3.802  33.916  65.298  1.00  0.00    -0.309 OA
BRANCH  19  20
HETATM   20  C   UNL     1       4.780  34.101  66.241  1.00  0.00     0.076 A 
HETATM   21  C   UNL     1       4.377  34.288  67.563  1.00  0.00     0.037 A 
HETATM   22  C   UNL     1       5.336  34.426  68.566  1.00  0.00     0.003 A 
HETATM   23  C   UNL     1       6.693  34.359  68.244  1.00  0.00     0.000 A 
HETATM   24  C   UNL     1       7.092  34.146  66.922  1.00  0.00     0.003 A 
HETATM   25  C   UNL     1       6.134  34.003  65.919  1.00  0.00     0.037 A 
ENDBRANCH  19  20
ENDBRANCH   1  19
TORSDOF 4
ENDMDL
MODEL 5
REMARK VINA RESULT:      -8.3      2.002      2.518
REMARK  4 active torsions:
REMARK  status: ('A' for Active; 'I' for Inactive)
REMARK    1  A    between atoms: C_4  and  O_5 
REMARK    2  A    between atoms: O_5  and  C_6 
REMARK    3  A    between atoms: C_7  and  N_8 
REMARK       I    between atoms: N_8  and  C_9 
REMARK    4  A    between atoms: C_9  and  C_10 
ROOT
HETATM    1  C   UNL     1       6.621  24.651  54.161  1.00  0.00     0.102 A 
HETATM    2  C   UNL     1       7.111  25.950  54.408  1.00  0.00     0.069 A 
HETATM    3  C   UNL     1       6.900  26.951  53.456  1.00  0.00     0.032 A 
HETATM    4  C   UNL     1       6.258  26.657  52.250  1.00  0.00     0.002 A 
HETATM    5  C   UNL     1       5.822  25.361  51.989  1.00  0.00     0.003 A 
HETATM    6  C   UNL     1       6.003  24.356  52.940  1.00  0.00     0.039 A 
ENDROOT
BRANCH   2   7
HETATM    7  N   UNL     1       7.751  26.180  55.644  1.00  0.00    -0.320 N 
HETATM    8  C   UNL     1       7.347  26.796  56.793  1.00  0.00     0.257 C 
HETATM    9  O   UNL     1       7.976  26.616  57.837  1.00  0.00    -0.267 OA
HETATM   10  H   UNL     1       8.694  25.808  55.713  1.00  0.00     0.169 HD
BRANCH   8  11
HETATM   11  C   UNL     1       6.211  27.760  56.781  1.00  0.00     0.048 A 
HETATM   12  C   UNL     1       4.950  27.316  56.639  1.00  0.00     0.108 A 
HETATM   13  N   UNL     1       3.900  28.202  56.576  1.00  0.00    -0.333 N 
HETATM   14  C   UNL     1       4.045  29.568  56.614  1.00  0.00     0.245 A 
HETATM   15  H   UNL     1       2.949  27.861  56.488  1.00  0.00     0.168 HD
HETATM   16  O   UNL     1       3.095  30.340  56.569  1.00  0.00    -0.268 OA
HETATM   17  C   UNL     1       5.442  30.066  56.708  1.00  0.00     0.075 A 
HETATM   18  C   UNL     1       6.458  29.191  56.780  1.00  0.00     0.024 A 
ENDBRANCH   8  11
ENDBRANCH   2   7
BRANCH   1  19
HETATM   19  O   UNL     1       6.868  23.720  55.158  1.00  0.00    -0.309 OA
BRANCH  19  20
HETATM   20  C   UNL     1       7.524  22.559  54.840  1.00  0.00     0.076 A 
HETATM   21  C   UNL     1       7.578  21.560  55.812  1.00  0.00     0.037 A 
HETATM   22  C   UNL     1       8.187  20.340  55.516  1.00  0.00     0.003 A 
HETATM   23  C   UNL     1       8.723  20.120  54.247  1.00  0.00     0.000 A 
HETATM   24  C   UNL     1       8.643  21.115  53.268  1.00  0.00     0.003 A 
HETATM   25  C   UNL     1       8.031  22.333  53.561  1.00  0.00     0.037 A 
ENDBRANCH  19  20
ENDBRANCH   1  19
TORSDOF 4
ENDMDL
MODEL 6
REMARK VINA RESULT:      -8.2      1.783      5.157
REMARK  4 active torsions:
REMARK  status: ('A' for Active; 'I' for Inactive)
REMARK    1  A    between atoms: C_4  and  O_5 
REMARK    2  A    between atoms: O_5  and  C_6 
REMARK    3  A    between atoms: C_7  and  N_8 
REMARK       I    between atoms: N_8  and  C_9 
REMARK    4  A    between atoms: C_9  and  C_10 
ROOT
HETATM    1  C   UNL     1       7.213  28.281  55.403  1.00  0.00     0.102 A 
HETATM    2  C   UNL     1       7.046  27.712  56.683  1.00  0.00     0.069 A 
HETATM    3  C   UNL     1       7.974  28.006  57.687  1.00  0.00     0.032 A 
HETATM    4  C   UNL     1       9.083  28.809  57.411  1.00  0.00     0.002 A 
HETATM    5  C   UNL     1       9.272  29.326  56.132  1.00  0.00     0.003 A 
HETATM    6  C   UNL     1       8.342  29.062  55.126  1.00  0.00     0.039 A 
ENDROOT
BRANCH   2   7
HETATM    7  N   UNL     1       5.906  26.910  56.895  1.00  0.00    -0.320 N 
HETATM    8  C   UNL     1       5.735  25.562  57.028  1.00  0.00     0.257 C 
HETATM    9  O   UNL     1       4.685  25.122  57.498  1.00  0.00    -0.267 OA
HETATM   10  H   UNL     1       5.033  27.422  56.983  1.00  0.00     0.169 HD
BRANCH   8  11
HETATM   11  C   UNL     1       6.766  24.612  56.524  1.00  0.00     0.048 A 
HETATM   12  C   UNL     1       8.005  24.620  57.046  1.00  0.00     0.108 A 
HETATM   13  N   UNL     1       8.977  23.781  56.552  1.00  0.00    -0.333 N 
HETATM   14  C   UNL     1       8.785  22.920  55.498  1.00  0.00     0.245 A 
HETATM   15  H   UNL     1       9.904  23.777  56.962  1.00  0.00     0.168 HD
HETATM   16  O   UNL     1       9.661  22.172  55.081  1.00  0.00    -0.268 OA
HETATM   17  C   UNL     1       7.435  22.952  54.876  1.00  0.00     0.075 A 
HETATM   18  C   UNL     1       6.492  23.767  55.375  1.00  0.00     0.024 A 
ENDBRANCH   8  11
ENDBRANCH   2   7
BRANCH   1  19
HETATM   19  O   UNL     1       6.247  27.944  54.469  1.00  0.00    -0.309 OA
BRANCH  19  20
HETATM   20  C   UNL     1       6.482  26.901  53.612  1.00  0.00     0.076 A 
HETATM   21  C   UNL     1       5.384  26.335  52.964  1.00  0.00     0.037 A 
HETATM   22  C   UNL     1       5.578  25.308  52.040  1.00  0.00     0.003 A 
HETATM   23  C   UNL     1       6.871  24.864  51.757  1.00  0.00     0.000 A 
HETATM   24  C   UNL     1       7.970  25.451  52.389  1.00  0.00     0.003 A 
HETATM   25  C   UNL     1       7.777  26.481  53.309  1.00  0.00     0.037 A 
ENDBRANCH  19  20
ENDBRANCH   1  19
TORSDOF 4
ENDMDL
MODEL 7
REMARK VINA RESULT:      -8.2      3.476      7.783
REMARK  4 active torsions:
REMARK  status: ('A' for Active; 'I' for Inactive)
REMARK    1  A    between atoms: C_4  and  O_5 
REMARK    2  A    between atoms: O_5  and  C_6 
REMARK    3  A    between atoms: C_7  and  N_8 
REMARK       I    between atoms: N_8  and  C_9 
REMARK    4  A    between atoms: C_9  and  C_10 
ROOT
HETATM    1  C   UNL     1       8.556  30.359  58.194  1.00  0.00     0.102 A 
HETATM    2  C   UNL     1       8.206  29.592  57.063  1.00  0.00     0.069 A 
HETATM    3  C   UNL     1       9.196  29.244  56.140  1.00  0.00     0.032 A 
HETATM    4  C   UNL     1      10.507  29.698  56.306  1.00  0.00     0.002 A 
HETATM    5  C   UNL     1      10.838  30.499  57.396  1.00  0.00     0.003 A 
HETATM    6  C   UNL     1       9.865  30.833  58.339  1.00  0.00     0.039 A 
ENDROOT
BRANCH   2   7
HETATM    7  N   UNL     1       6.865  29.167  56.955  1.00  0.00    -0.320 N 
HETATM    8  C   UNL     1       6.283  27.932  56.957  1.00  0.00     0.257 C 
HETATM    9  O   UNL     1       5.070  27.828  57.143  1.00  0.00    -0.267 OA
HETATM   10  H   UNL     1       6.184  29.917  56.874  1.00  0.00     0.169 HD
BRANCH   8  11
HETATM   11  C   UNL     1       7.082  26.715  56.640  1.00  0.00     0.048 A 
HETATM   12  C   UNL     1       7.022  26.169  55.413  1.00  0.00     0.108 A 
HETATM   13  N   UNL     1       7.717  25.016  55.127  1.00  0.00    -0.333 N 
HETATM   14  C   UNL     1       8.474  24.329  56.044  1.00  0.00     0.245 A 
HETATM   15  H   UNL     1       7.684  24.619  54.195  1.00  0.00     0.168 HD
HETATM   16  O   UNL     1       9.095  23.310  55.765  1.00  0.00    -0.268 OA
HETATM   17  C   UNL     1       8.493  24.894  57.418  1.00  0.00     0.075 A 
HETATM   18  C   UNL     1       7.820  26.025  57.683  1.00  0.00     0.024 A 
ENDBRANCH   8  11
ENDBRANCH   2   7
BRANCH   1  19
HETATM   19  O   UNL     1       7.516  30.654  59.061  1.00  0.00    -0.309 OA
BRANCH  19  20
HETATM   20  C   UNL     1       7.802  31.204  60.284  1.00  0.00     0.076 A 
HETATM   21  C   UNL     1       7.190  32.415  60.608  1.00  0.00     0.037 A 
HETATM   22  C   UNL     1       7.405  32.985  61.862  1.00  0.00     0.003 A 
HETATM   23  C   UNL     1       8.218  32.335  62.791  1.00  0.00     0.000 A 
HETATM   24  C   UNL     1       8.808  31.109  62.472  1.00  0.00     0.003 A 
HETATM   25  C   UNL     1       8.590  30.535  61.220  1.00  0.00     0.037 A 
ENDBRANCH  19  20
ENDBRANCH   1  19
TORSDOF 4
ENDMDL
MODEL 8
REMARK VINA RESULT:      -8.1      5.246      7.755
REMARK  4 active torsions:
REMARK  status: ('A' for Active; 'I' for Inactive)
REMARK    1  A    between atoms: C_4  and  O_5 
REMARK    2  A    between atoms: O_5  and  C_6 
REMARK    3  A    between atoms: C_7  and  N_8 
REMARK       I    between atoms: N_8  and  C_9 
REMARK    4  A    between atoms: C_9  and  C_10 
ROOT
HETATM    1  C   UNL     1       4.715  27.375  51.540  1.00  0.00     0.102 A 
HETATM    2  C   UNL     1       4.984  28.121  50.373  1.00  0.00     0.069 A 
HETATM    3  C   UNL     1       4.830  29.510  50.400  1.00  0.00     0.032 A 
HETATM    4  C   UNL     1       4.362  30.147  51.553  1.00  0.00     0.002 A 
HETATM    5  C   UNL     1       4.048  29.401  52.685  1.00  0.00     0.003 A 
HETATM    6  C   UNL     1       4.220  28.016  52.682  1.00  0.00     0.039 A 
ENDROOT
BRANCH   2   7
HETATM    7  N   UNL     1       5.452  27.416  49.244  1.00  0.00    -0.320 N 
HETATM    8  C   UNL     1       4.920  27.197  48.005  1.00  0.00     0.257 C 
HETATM    9  O   UNL     1       5.644  26.800  47.091  1.00  0.00    -0.267 OA
HETATM   10  H   UNL     1       6.370  26.996  49.352  1.00  0.00     0.169 HD
BRANCH   8  11
HETATM   11  C   UNL     1       3.456  27.341  47.770  1.00  0.00     0.048 A 
HETATM   12  C   UNL     1       2.627  26.314  48.028  1.00  0.00     0.108 A 
HETATM   13  N   UNL     1       1.281  26.420  47.767  1.00  0.00    -0.333 N 
HETATM   14  C   UNL     1       0.692  27.529  47.207  1.00  0.00     0.245 A 
HETATM   15  H   UNL     1       0.657  25.650  47.981  1.00  0.00     0.168 HD
HETATM   16  O   UNL     1      -0.511  27.608  46.993  1.00  0.00    -0.268 OA
HETATM   17  C   UNL     1       1.614  28.643  46.862  1.00  0.00     0.075 A 
HETATM   18  C   UNL     1       2.924  28.531  47.132  1.00  0.00     0.024 A 
ENDBRANCH   8  11
ENDBRANCH   2   7
BRANCH   1  19
HETATM   19  O   UNL     1       4.899  26.006  51.429  1.00  0.00    -0.309 OA
BRANCH  19  20
HETATM   20  C   UNL     1       5.856  25.396  52.196  1.00  0.00     0.076 A 
HETATM   21  C   UNL     1       5.446  24.788  53.383  1.00  0.00     0.037 A 
HETATM   22  C   UNL     1       6.374  24.107  54.169  1.00  0.00     0.003 A 
HETATM   23  C   UNL     1       7.705  24.023  53.757  1.00  0.00     0.000 A 
HETATM   24  C   UNL     1       8.107  24.611  52.555  1.00  0.00     0.003 A 
HETATM   25  C   UNL     1       7.179  25.288  51.765  1.00  0.00     0.037 A 
ENDBRANCH  19  20
ENDBRANCH   1  19
TORSDOF 4
ENDMDL
MODEL 9
REMARK VINA RESULT:      -8.0      2.157      6.114
REMARK  4 active torsions:
REMARK  status: ('A' for Active; 'I' for Inactive)
REMARK    1  A    between atoms: C_4  and  O_5 
REMARK    2  A    between atoms: O_5  and  C_6 
REMARK    3  A    between atoms: C_7  and  N_8 
REMARK       I    between atoms: N_8  and  C_9 
REMARK    4  A    between atoms: C_9  and  C_10 
ROOT
HETATM    1  C   UNL     1       6.922  26.986  54.362  1.00  0.00     0.102 A 
HETATM    2  C   UNL     1       6.402  25.787  54.891  1.00  0.00     0.069 A 
HETATM    3  C   UNL     1       5.381  25.124  54.204  1.00  0.00     0.032 A 
HETATM    4  C   UNL     1       4.843  25.671  53.036  1.00  0.00     0.002 A 
HETATM    5  C   UNL     1       5.323  26.882  52.546  1.00  0.00     0.003 A 
HETATM    6  C   UNL     1       6.360  27.543  53.207  1.00  0.00     0.039 A 
ENDROOT
BRANCH   2   7
HETATM    7  N   UNL     1       6.988  25.289  56.073  1.00  0.00    -0.320 N 
HETATM    8  C   UNL     1       7.817  24.232  56.321  1.00  0.00     0.257 C 
HETATM    9  O   UNL     1       8.429  24.172  57.388  1.00  0.00    -0.267 OA
HETATM   10  H   UNL     1       6.773  25.818  56.913  1.00  0.00     0.169 HD
BRANCH   8  11
HETATM   11  C   UNL     1       7.915  23.101  55.356  1.00  0.00     0.048 A 
HETATM   12  C   UNL     1       7.679  21.842  55.765  1.00  0.00     0.108 A 
HETATM   13  N   UNL     1       7.817  20.787  54.894  1.00  0.00    -0.333 N 
HETATM   14  C   UNL     1       8.227  20.917  53.589  1.00  0.00     0.245 A 
HETATM   15  H   UNL     1       7.619  19.841  55.202  1.00  0.00     0.168 HD
HETATM   16  O   UNL     1       8.331  19.965  52.825  1.00  0.00    -0.268 OA
HETATM   17  C   UNL     1       8.550  22.300  53.149  1.00  0.00     0.075 A 
HETATM   18  C   UNL     1       8.401  23.323  54.006  1.00  0.00     0.024 A 
ENDBRANCH   8  11
ENDBRANCH   2   7
BRANCH   1  19
HETATM   19  O   UNL     1       7.935  27.575  55.101  1.00  0.00    -0.309 OA
BRANCH  19  20
HETATM   20  C   UNL     1       7.608  28.440  56.113  1.00  0.00     0.076 A 
HETATM   21  C   UNL     1       8.438  28.467  57.234  1.00  0.00     0.037 A 
HETATM   22  C   UNL     1       8.178  29.370  58.265  1.00  0.00     0.003 A 
HETATM   23  C   UNL     1       7.100  30.251  58.163  1.00  0.00     0.000 A 
HETATM   24  C   UNL     1       6.287  30.238  57.026  1.00  0.00     0.003 A 
HETATM   25  C   UNL     1       6.549  29.339  55.992  1.00  0.00     0.037 A 
ENDBRANCH  19  20
ENDBRANCH   1  19
TORSDOF 4
ENDMDL
MODEL 10
REMARK VINA RESULT:      -7.9     10.757     13.615
REMARK  4 active torsions:
REMARK  status: ('A' for Active; 'I' for Inactive)
REMARK    1  A    between atoms: C_4  and  O_5 
REMARK    2  A    between atoms: O_5  and  C_6 
REMARK    3  A    between atoms: C_7  and  N_8 
REMARK       I    between atoms: N_8  and  C_9 
REMARK    4  A    between atoms: C_9  and  C_10 
ROOT
HETATM    1  C   UNL     1       4.724  33.834  65.523  1.00  0.00     0.102 A 
HETATM    2  C   UNL     1       3.735  34.809  65.277  1.00  0.00     0.069 A 
HETATM    3  C   UNL     1       3.642  35.916  66.125  1.00  0.00     0.032 A 
HETATM    4  C   UNL     1       4.483  36.028  67.236  1.00  0.00     0.002 A 
HETATM    5  C   UNL     1       5.422  35.037  67.505  1.00  0.00     0.003 A 
HETATM    6  C   UNL     1       5.543  33.938  66.653  1.00  0.00     0.039 A 
ENDROOT
BRANCH   2   7
HETATM    7  N   UNL     1       2.918  34.636  64.140  1.00  0.00    -0.320 N 
HETATM    8  C   UNL     1       3.007  35.099  62.858  1.00  0.00     0.257 C 
HETATM    9  O   UNL     1       2.333  34.574  61.971  1.00  0.00    -0.267 OA
HETATM   10  H   UNL     1       2.108  34.040  64.282  1.00  0.00     0.169 HD
BRANCH   8  11
HETATM   11  C   UNL     1       3.837  36.294  62.537  1.00  0.00     0.048 A 
HETATM   12  C   UNL     1       3.248  37.446  62.173  1.00  0.00     0.108 A 
HETATM   13  N   UNL     1       4.008  38.540  61.826  1.00  0.00    -0.333 N 
HETATM   14  C   UNL     1       5.381  38.539  61.788  1.00  0.00     0.245 A 
HETATM   15  H   UNL     1       3.559  39.413  61.571  1.00  0.00     0.168 HD
HETATM   16  O   UNL     1       6.040  39.528  61.489  1.00  0.00    -0.268 OA
HETATM   17  C   UNL     1       6.036  37.250  62.130  1.00  0.00     0.075 A 
HETATM   18  C   UNL     1       5.284  36.193  62.477  1.00  0.00     0.024 A 
ENDBRANCH   8  11
ENDBRANCH   2   7
BRANCH   1  19
HETATM   19  O   UNL     1       4.751  32.773  64.632  1.00  0.00    -0.309 OA
BRANCH  19  20
HETATM   20  C   UNL     1       5.758  32.704  63.705  1.00  0.00     0.076 A 
HETATM   21  C   UNL     1       7.070  32.825  64.164  1.00  0.00     0.037 A 
HETATM   22  C   UNL     1       8.131  32.706  63.267  1.00  0.00     0.003 A 
HETATM   23  C   UNL     1       7.876  32.451  61.919  1.00  0.00     0.000 A 
HETATM   24  C   UNL     1       6.562  32.305  61.468  1.00  0.00     0.003 A 
HETATM   25  C   UNL     1       5.500  32.419  62.364  1.00  0.00     0.037 A 
ENDBRANCH  19  20
ENDBRANCH   1  19
TORSDOF 4
ENDMDL
