MODEL 1
REMARK VINA RESULT:     -10.1      0.000      0.000
REMARK  9 active torsions:
REMARK  status: ('A' for Active; 'I' for Inactive)
REMARK    1  A    between atoms: C_2  and  O_3 
REMARK    2  A    between atoms: O_3  and  C_4 
REMARK    3  A    between atoms: C_7  and  N_8 
REMARK       I    between atoms: N_8  and  C_9 
REMARK    4  A    between atoms: C_9  and  C_10 
REMARK    5  A    between atoms: C_11  and  N_12 
REMARK       I    between atoms: N_12  and  C_13 
REMARK    6  A    between atoms: C_13  and  C_14 
REMARK    7  A    between atoms: C_14  and  N_15 
REMARK    8  A    between atoms: N_15  and  C_18 
REMARK    9  A    between atoms: C_18  and  C_19 
ROOT
HETATM    1  C   UNL     1       7.076  25.808  55.051  1.00  0.00     0.073 A 
HETATM    2  C   UNL     1       6.871  25.889  53.676  1.00  0.00     0.093 A 
HETATM    3  S   UNL     1       6.891  24.372  52.920  1.00  0.00    -0.075 SA
HETATM    4  C   UNL     1       7.312  23.582  54.358  1.00  0.00    -0.008 A 
HETATM    5  C   UNL     1       7.419  24.449  55.431  1.00  0.00    -0.026 A 
HETATM    6  C   UNL     1       7.871  23.946  56.777  1.00  0.00     0.041 C 
HETATM    7  C   UNL     1       8.579  22.587  56.677  1.00  0.00     0.009 C 
HETATM    8  C   UNL     1       7.758  21.597  55.827  1.00  0.00    -0.014 C 
HETATM    9  C   UNL     1       8.396  20.210  55.842  1.00  0.00     0.010 C 
HETATM   10  C   UNL     1       7.607  22.110  54.379  1.00  0.00     0.051 C 
ENDROOT
BRANCH   2  11
HETATM   11  N   UNL     1       6.665  27.059  52.953  1.00  0.00    -0.319 N 
HETATM   12  C   UNL     1       5.454  27.633  52.639  1.00  0.00     0.248 C 
HETATM   13  O   UNL     1       4.324  27.282  52.975  1.00  0.00    -0.271 OA
HETATM   14  H   UNL     1       7.531  27.446  52.569  1.00  0.00     0.169 HD
BRANCH  12  15
HETATM   15  C   UNL     1       5.568  28.873  51.749  1.00  0.00     0.335 C 
BRANCH  15  16
HETATM   16  N   UNL     1       5.265  28.512  50.316  1.00  0.00    -0.063 N 
HETATM   17  H   UNL     1       5.938  28.923  49.660  1.00  0.00     0.278 HD
HETATM   18  H   UNL     1       5.377  27.486  50.249  1.00  0.00     0.278 HD
BRANCH  16  19
HETATM   19  C   UNL     1       3.874  28.804  49.873  1.00  0.00     0.271 C 
BRANCH  19  20
HETATM   20  C   UNL     1       3.389  27.755  48.916  1.00  0.00    -0.033 A 
HETATM   21  C   UNL     1       4.166  26.613  48.665  1.00  0.00     0.009 A 
HETATM   22  C   UNL     1       3.733  25.652  47.751  1.00  0.00     0.001 A 
HETATM   23  C   UNL     1       2.529  25.826  47.073  1.00  0.00     0.000 A 
HETATM   24  C   UNL     1       1.754  26.960  47.306  1.00  0.00     0.001 A 
HETATM   25  C   UNL     1       2.181  27.924  48.220  1.00  0.00     0.009 A 
ENDBRANCH  19  20
ENDBRANCH  16  19
ENDBRANCH  15  16
ENDBRANCH  12  15
ENDBRANCH   2  11
BRANCH   1  26
HETATM   26  C   UNL     1       7.002  27.008  55.905  1.00  0.00     0.259 C 
HETATM   27  N   UNL     1       8.199  27.345  56.495  1.00  0.00    -0.323 N 
HETATM   28  H   UNL     1       8.935  26.655  56.438  1.00  0.00     0.169 HD
HETATM   29  O   UNL     1       5.919  27.556  56.101  1.00  0.00    -0.267 OA
BRANCH  27  30
HETATM   30  C   UNL     1       8.529  28.512  57.207  1.00  0.00     0.035 A 
HETATM   31  C   UNL     1       7.718  29.096  58.176  1.00  0.00     0.032 A 
HETATM   32  C   UNL     1       8.104  30.298  58.784  1.00  0.00     0.039 A 
HETATM   33  C   UNL     1       9.297  30.933  58.431  1.00  0.00     0.068 A 
HETATM   34  C   UNL     1      10.119  30.341  57.476  1.00  0.00     0.039 A 
HETATM   35  C   UNL     1       9.735  29.140  56.868  1.00  0.00     0.032 A 
BRANCH  33  36
HETATM   36  O   UNL     1       9.539  32.112  59.078  1.00  0.00    -0.352 OA
BRANCH  36  37
HETATM   37  C   UNL     1       8.821  32.343  60.292  1.00  0.00     0.171 C 
HETATM   38  C   UNL     1       9.711  31.939  61.453  1.00  0.00     0.034 C 
ENDBRANCH  36  37
ENDBRANCH  33  36
ENDBRANCH  27  30
ENDBRANCH   1  26
TORSDOF 9
ENDMDL
MODEL 2
REMARK VINA RESULT:     -10.1      3.141      5.251
REMARK  9 active torsions:
REMARK  status: ('A' for Active; 'I' for Inactive)
REMARK    1  A    between atoms: C_2  and  O_3 
REMARK    2  A    between atoms: O_3  and  C_4 
REMARK    3  A    between atoms: C_7  and  N_8 
REMARK       I    between atoms: N_8  and  C_9 
REMARK    4  A    between atoms: C_9  and  C_10 
REMARK    5  A    between atoms: C_11  and  N_12 
REMARK       I    between atoms: N_12  and  C_13 
REMARK    6  A    between atoms: C_13  and  C_14 
REMARK    7  A    between atoms: C_14  and  N_15 
REMARK    8  A    between atoms: N_15  and  C_18 
REMARK    9  A    between atoms: C_18  and  C_19 
ROOT
HETATM    1  C   UNL     1       6.937  25.665  55.472  1.00  0.00     0.073 A 
HETATM    2  C   UNL     1       5.953  26.055  54.567  1.00  0.00     0.093 A 
HETATM    3  S   UNL     1       5.611  24.859  53.416  1.00  0.00    -0.075 SA
HETATM    4  C   UNL     1       6.848  23.854  53.989  1.00  0.00    -0.008 A 
HETATM    5  C   UNL     1       7.518  24.396  55.071  1.00  0.00    -0.026 A 
HETATM    6  C   UNL     1       8.708  23.690  55.665  1.00  0.00     0.041 C 
HETATM    7  C   UNL     1       9.299  22.646  54.705  1.00  0.00     0.009 C 
HETATM    8  C   UNL     1       8.194  21.740  54.127  1.00  0.00    -0.014 C 
HETATM    9  C   UNL     1       8.796  20.621  53.280  1.00  0.00     0.010 C 
HETATM   10  C   UNL     1       7.184  22.563  53.299  1.00  0.00     0.051 C 
ENDROOT
BRANCH   2  11
HETATM   11  N   UNL     1       5.291  27.278  54.565  1.00  0.00    -0.319 N 
HETATM   12  C   UNL     1       5.472  28.312  53.675  1.00  0.00     0.248 C 
HETATM   13  O   UNL     1       6.189  28.354  52.676  1.00  0.00    -0.271 OA
HETATM   14  H   UNL     1       4.681  27.401  55.377  1.00  0.00     0.169 HD
BRANCH  12  15
HETATM   15  C   UNL     1       4.653  29.563  54.003  1.00  0.00     0.335 C 
BRANCH  15  16
HETATM   16  N   UNL     1       5.395  30.421  54.998  1.00  0.00    -0.063 N 
HETATM   17  H   UNL     1       5.597  29.920  55.870  1.00  0.00     0.278 HD
HETATM   18  H   UNL     1       6.308  30.639  54.563  1.00  0.00     0.278 HD
BRANCH  16  19
HETATM   19  C   UNL     1       4.758  31.733  55.297  1.00  0.00     0.271 C 
BRANCH  19  20
HETATM   20  C   UNL     1       4.503  31.878  56.769  1.00  0.00    -0.033 A 
HETATM   21  C   UNL     1       5.070  32.945  57.484  1.00  0.00     0.009 A 
HETATM   22  C   UNL     1       4.861  33.063  58.858  1.00  0.00     0.001 A 
HETATM   23  C   UNL     1       4.095  32.115  59.532  1.00  0.00     0.000 A 
HETATM   24  C   UNL     1       3.536  31.047  58.836  1.00  0.00     0.001 A 
HETATM   25  C   UNL     1       3.740  30.923  57.460  1.00  0.00     0.009 A 
ENDBRANCH  19  20
ENDBRANCH  16  19
ENDBRANCH  15  16
ENDBRANCH  12  15
ENDBRANCH   2  11
BRANCH   1  26
HETATM   26  C   UNL     1       7.313  26.528  56.609  1.00  0.00     0.259 C 
HETATM   27  N   UNL     1       7.975  27.677  56.239  1.00  0.00    -0.323 N 
HETATM   28  H   UNL     1       8.292  27.721  55.281  1.00  0.00     0.169 HD
HETATM   29  O   UNL     1       7.105  26.150  57.760  1.00  0.00    -0.267 OA
BRANCH  27  30
HETATM   30  C   UNL     1       8.307  28.791  57.031  1.00  0.00     0.035 A 
HETATM   31  C   UNL     1       7.384  29.552  57.743  1.00  0.00     0.032 A 
HETATM   32  C   UNL     1       7.806  30.686  58.450  1.00  0.00     0.039 A 
HETATM   33  C   UNL     1       9.147  31.076  58.453  1.00  0.00     0.068 A 
HETATM   34  C   UNL     1      10.074  30.305  57.758  1.00  0.00     0.039 A 
HETATM   35  C   UNL     1       9.655  29.173  57.050  1.00  0.00     0.032 A 
BRANCH  33  36
HETATM   36  O   UNL     1       9.417  32.215  59.158  1.00  0.00    -0.352 OA
BRANCH  36  37
HETATM   37  C   UNL     1       8.718  32.394  60.391  1.00  0.00     0.171 C 
HETATM   38  C   UNL     1       9.578  31.834  61.509  1.00  0.00     0.034 C 
ENDBRANCH  36  37
ENDBRANCH  33  36
ENDBRANCH  27  30
ENDBRANCH   1  26
TORSDOF 9
ENDMDL
MODEL 3
REMARK VINA RESULT:     -10.0      2.370      8.681
REMARK  9 active torsions:
REMARK  status: ('A' for Active; 'I' for Inactive)
REMARK    1  A    between atoms: C_2  and  O_3 
REMARK    2  A    between atoms: O_3  and  C_4 
REMARK    3  A    between atoms: C_7  and  N_8 
REMARK       I    between atoms: N_8  and  C_9 
REMARK    4  A    between atoms: C_9  and  C_10 
REMARK    5  A    between atoms: C_11  and  N_12 
REMARK       I    between atoms: N_12  and  C_13 
REMARK    6  A    between atoms: C_13  and  C_14 
REMARK    7  A    between atoms: C_14  and  N_15 
REMARK    8  A    between atoms: N_15  and  C_18 
REMARK    9  A    between atoms: C_18  and  C_19 
ROOT
HETATM    1  C   UNL     1       5.279  27.996  52.447  1.00  0.00     0.073 A 
HETATM    2  C   UNL     1       4.708  29.101  53.072  1.00  0.00     0.093 A 
HETATM    3  S   UNL     1       3.380  29.722  52.220  1.00  0.00    -0.075 SA
HETATM    4  C   UNL     1       3.610  28.643  50.935  1.00  0.00    -0.008 A 
HETATM    5  C   UNL     1       4.675  27.785  51.143  1.00  0.00    -0.026 A 
HETATM    6  C   UNL     1       5.091  26.810  50.073  1.00  0.00     0.041 C 
HETATM    7  C   UNL     1       4.535  27.195  48.694  1.00  0.00     0.009 C 
HETATM    8  C   UNL     1       3.028  27.509  48.774  1.00  0.00    -0.014 C 
HETATM    9  C   UNL     1       2.451  27.759  47.383  1.00  0.00     0.010 C 
HETATM   10  C   UNL     1       2.766  28.718  49.696  1.00  0.00     0.051 C 
ENDROOT
BRANCH   2  11
HETATM   11  N   UNL     1       5.139  29.672  54.265  1.00  0.00    -0.319 N 
HETATM   12  C   UNL     1       4.706  29.359  55.534  1.00  0.00     0.248 C 
HETATM   13  O   UNL     1       3.914  28.485  55.885  1.00  0.00    -0.271 OA
HETATM   14  H   UNL     1       5.781  30.456  54.121  1.00  0.00     0.169 HD
BRANCH  12  15
HETATM   15  C   UNL     1       5.312  30.238  56.630  1.00  0.00     0.335 C 
BRANCH  15  16
HETATM   16  N   UNL     1       5.821  29.378  57.761  1.00  0.00    -0.063 N 
HETATM   17  H   UNL     1       6.055  29.930  58.593  1.00  0.00     0.278 HD
HETATM   18  H   UNL     1       5.036  28.760  58.026  1.00  0.00     0.278 HD
BRANCH  16  19
HETATM   19  C   UNL     1       6.953  28.478  57.408  1.00  0.00     0.271 C 
BRANCH  19  20
HETATM   20  C   UNL     1       8.255  29.225  57.430  1.00  0.00    -0.033 A 
HETATM   21  C   UNL     1       9.168  29.086  56.372  1.00  0.00     0.009 A 
HETATM   22  C   UNL     1      10.392  29.754  56.406  1.00  0.00     0.001 A 
HETATM   23  C   UNL     1      10.721  30.556  57.496  1.00  0.00     0.000 A 
HETATM   24  C   UNL     1       9.827  30.692  58.556  1.00  0.00     0.001 A 
HETATM   25  C   UNL     1       8.600  30.028  58.528  1.00  0.00     0.009 A 
ENDBRANCH  19  20
ENDBRANCH  16  19
ENDBRANCH  15  16
ENDBRANCH  12  15
ENDBRANCH   2  11
BRANCH   1  26
HETATM   26  C   UNL     1       6.388  27.252  53.076  1.00  0.00     0.259 C 
HETATM   27  N   UNL     1       6.115  25.919  53.283  1.00  0.00    -0.323 N 
HETATM   28  H   UNL     1       5.153  25.636  53.163  1.00  0.00     0.169 HD
HETATM   29  O   UNL     1       7.399  27.850  53.438  1.00  0.00    -0.267 OA
BRANCH  27  30
HETATM   30  C   UNL     1       6.994  24.895  53.681  1.00  0.00     0.035 A 
HETATM   31  C   UNL     1       7.431  23.868  52.849  1.00  0.00     0.032 A 
HETATM   32  C   UNL     1       8.255  22.855  53.358  1.00  0.00     0.039 A 
HETATM   33  C   UNL     1       8.648  22.851  54.699  1.00  0.00     0.068 A 
HETATM   34  C   UNL     1       8.228  23.888  55.527  1.00  0.00     0.039 A 
HETATM   35  C   UNL     1       7.405  24.900  55.021  1.00  0.00     0.032 A 
BRANCH  33  36
HETATM   36  O   UNL     1       9.426  21.791  55.070  1.00  0.00    -0.352 OA
BRANCH  36  37
HETATM   37  C   UNL     1       8.853  20.489  54.940  1.00  0.00     0.171 C 
HETATM   38  C   UNL     1       7.916  20.263  56.113  1.00  0.00     0.034 C 
ENDBRANCH  36  37
ENDBRANCH  33  36
ENDBRANCH  27  30
ENDBRANCH   1  26
TORSDOF 9
ENDMDL
MODEL 4
REMARK VINA RESULT:     -10.0      1.932      9.325
REMARK  9 active torsions:
REMARK  status: ('A' for Active; 'I' for Inactive)
REMARK    1  A    between atoms: C_2  and  O_3 
REMARK    2  A    between atoms: O_3  and  C_4 
REMARK    3  A    between atoms: C_7  and  N_8 
REMARK       I    between atoms: N_8  and  C_9 
REMARK    4  A    between atoms: C_9  and  C_10 
REMARK    5  A    between atoms: C_11  and  N_12 
REMARK       I    between atoms: N_12  and  C_13 
REMARK    6  A    between atoms: C_13  and  C_14 
REMARK    7  A    between atoms: C_14  and  N_15 
REMARK    8  A    between atoms: N_15  and  C_18 
REMARK    9  A    between atoms: C_18  and  C_19 
ROOT
HETATM    1  C   UNL     1       7.442  25.533  54.725  1.00  0.00     0.073 A 
HETATM    2  C   UNL     1       7.442  25.872  56.075  1.00  0.00     0.093 A 
HETATM    3  S   UNL     1       8.041  24.630  57.062  1.00  0.00    -0.075 SA
HETATM    4  C   UNL     1       8.181  23.563  55.755  1.00  0.00    -0.008 A 
HETATM    5  C   UNL     1       7.802  24.136  54.555  1.00  0.00    -0.026 A 
HETATM    6  C   UNL     1       7.775  23.317  53.291  1.00  0.00     0.041 C 
HETATM    7  C   UNL     1       7.762  21.808  53.582  1.00  0.00     0.009 C 
HETATM    8  C   UNL     1       8.851  21.434  54.606  1.00  0.00    -0.014 C 
HETATM    9  C   UNL     1       8.925  19.920  54.792  1.00  0.00     0.010 C 
HETATM   10  C   UNL     1       8.598  22.135  55.958  1.00  0.00     0.051 C 
ENDROOT
BRANCH   2  11
HETATM   11  N   UNL     1       7.012  27.082  56.609  1.00  0.00    -0.319 N 
HETATM   12  C   UNL     1       7.801  28.077  57.141  1.00  0.00     0.248 C 
HETATM   13  O   UNL     1       9.028  28.140  57.199  1.00  0.00    -0.271 OA
HETATM   14  H   UNL     1       5.992  27.152  56.663  1.00  0.00     0.169 HD
BRANCH  12  15
HETATM   15  C   UNL     1       7.009  29.246  57.731  1.00  0.00     0.335 C 
BRANCH  15  16
HETATM   16  N   UNL     1       7.677  29.740  58.991  1.00  0.00    -0.063 N 
HETATM   17  H   UNL     1       7.170  29.456  59.836  1.00  0.00     0.278 HD
HETATM   18  H   UNL     1       8.599  29.273  59.028  1.00  0.00     0.278 HD
BRANCH  16  19
HETATM   19  C   UNL     1       7.954  31.202  59.026  1.00  0.00     0.271 C 
BRANCH  19  20
HETATM   20  C   UNL     1       7.784  31.743  60.416  1.00  0.00    -0.033 A 
HETATM   21  C   UNL     1       6.709  32.595  60.717  1.00  0.00     0.009 A 
HETATM   22  C   UNL     1       6.568  33.125  62.000  1.00  0.00     0.001 A 
HETATM   23  C   UNL     1       7.500  32.819  62.989  1.00  0.00     0.000 A 
HETATM   24  C   UNL     1       8.575  31.983  62.699  1.00  0.00     0.001 A 
HETATM   25  C   UNL     1       8.722  31.448  61.418  1.00  0.00     0.009 A 
ENDBRANCH  19  20
ENDBRANCH  16  19
ENDBRANCH  15  16
ENDBRANCH  12  15
ENDBRANCH   2  11
BRANCH   1  26
HETATM   26  C   UNL     1       7.047  26.511  53.693  1.00  0.00     0.259 C 
HETATM   27  N   UNL     1       6.032  26.072  52.873  1.00  0.00    -0.323 N 
HETATM   28  H   UNL     1       5.798  25.092  52.936  1.00  0.00     0.169 HD
HETATM   29  O   UNL     1       7.671  27.564  53.575  1.00  0.00    -0.267 OA
BRANCH  27  30
HETATM   30  C   UNL     1       5.295  26.802  51.922  1.00  0.00     0.035 A 
HETATM   31  C   UNL     1       4.536  27.931  52.215  1.00  0.00     0.032 A 
HETATM   32  C   UNL     1       3.782  28.551  51.209  1.00  0.00     0.039 A 
HETATM   33  C   UNL     1       3.774  28.052  49.905  1.00  0.00     0.068 A 
HETATM   34  C   UNL     1       4.548  26.935  49.605  1.00  0.00     0.039 A 
HETATM   35  C   UNL     1       5.301  26.314  50.608  1.00  0.00     0.032 A 
BRANCH  33  36
HETATM   36  O   UNL     1       2.974  28.733  49.030  1.00  0.00    -0.352 OA
BRANCH  36  37
HETATM   37  C   UNL     1       1.568  28.498  49.120  1.00  0.00     0.171 C 
HETATM   38  C   UNL     1       1.199  27.430  48.107  1.00  0.00     0.034 C 
ENDBRANCH  36  37
ENDBRANCH  33  36
ENDBRANCH  27  30
ENDBRANCH   1  26
TORSDOF 9
ENDMDL
MODEL 5
REMARK VINA RESULT:      -9.9      1.501      1.682
REMARK  9 active torsions:
REMARK  status: ('A' for Active; 'I' for Inactive)
REMARK    1  A    between atoms: C_2  and  O_3 
REMARK    2  A    between atoms: O_3  and  C_4 
REMARK    3  A    between atoms: C_7  and  N_8 
REMARK       I    between atoms: N_8  and  C_9 
REMARK    4  A    between atoms: C_9  and  C_10 
REMARK    5  A    between atoms: C_11  and  N_12 
REMARK       I    between atoms: N_12  and  C_13 
REMARK    6  A    between atoms: C_13  and  C_14 
REMARK    7  A    between atoms: C_14  and  N_15 
REMARK    8  A    between atoms: N_15  and  C_18 
REMARK    9  A    between atoms: C_18  and  C_19 
ROOT
HETATM    1  C   UNL     1       5.837  25.891  54.947  1.00  0.00     0.073 A 
HETATM    2  C   UNL     1       5.074  26.052  53.793  1.00  0.00     0.093 A 
HETATM    3  S   UNL     1       5.276  24.779  52.692  1.00  0.00    -0.075 SA
HETATM    4  C   UNL     1       6.480  24.057  53.639  1.00  0.00    -0.008 A 
HETATM    5  C   UNL     1       6.728  24.752  54.809  1.00  0.00    -0.026 A 
HETATM    6  C   UNL     1       7.826  24.314  55.741  1.00  0.00     0.041 C 
HETATM    7  C   UNL     1       8.832  23.381  55.049  1.00  0.00     0.009 C 
HETATM    8  C   UNL     1       8.107  22.258  54.283  1.00  0.00    -0.014 C 
HETATM    9  C   UNL     1       9.108  21.257  53.709  1.00  0.00     0.010 C 
HETATM   10  C   UNL     1       7.219  22.840  53.163  1.00  0.00     0.051 C 
ENDROOT
BRANCH   2  11
HETATM   11  N   UNL     1       4.222  27.118  53.525  1.00  0.00    -0.319 N 
HETATM   12  C   UNL     1       4.522  28.253  52.806  1.00  0.00     0.248 C 
HETATM   13  O   UNL     1       5.558  28.534  52.205  1.00  0.00    -0.271 OA
HETATM   14  H   UNL     1       3.322  27.038  54.004  1.00  0.00     0.169 HD
BRANCH  12  15
HETATM   15  C   UNL     1       3.390  29.282  52.772  1.00  0.00     0.335 C 
BRANCH  15  16
HETATM   16  N   UNL     1       2.362  28.886  51.741  1.00  0.00    -0.063 N 
HETATM   17  H   UNL     1       2.182  27.876  51.739  1.00  0.00     0.278 HD
HETATM   18  H   UNL     1       1.479  29.343  52.028  1.00  0.00     0.278 HD
BRANCH  16  19
HETATM   19  C   UNL     1       2.640  29.361  50.358  1.00  0.00     0.271 C 
BRANCH  19  20
HETATM   20  C   UNL     1       2.656  28.211  49.394  1.00  0.00    -0.033 A 
HETATM   21  C   UNL     1       3.828  27.459  49.209  1.00  0.00     0.009 A 
HETATM   22  C   UNL     1       3.855  26.410  48.290  1.00  0.00     0.001 A 
HETATM   23  C   UNL     1       2.720  26.108  47.541  1.00  0.00     0.000 A 
HETATM   24  C   UNL     1       1.555  26.853  47.708  1.00  0.00     0.001 A 
HETATM   25  C   UNL     1       1.521  27.903  48.627  1.00  0.00     0.009 A 
ENDBRANCH  19  20
ENDBRANCH  16  19
ENDBRANCH  15  16
ENDBRANCH  12  15
ENDBRANCH   2  11
BRANCH   1  26
HETATM   26  C   UNL     1       5.732  26.843  56.069  1.00  0.00     0.259 C 
HETATM   27  N   UNL     1       6.805  27.700  56.172  1.00  0.00    -0.323 N 
HETATM   28  H   UNL     1       7.612  27.475  55.608  1.00  0.00     0.169 HD
HETATM   29  O   UNL     1       4.790  26.763  56.856  1.00  0.00    -0.267 OA
BRANCH  27  30
HETATM   30  C   UNL     1       6.946  28.834  56.994  1.00  0.00     0.035 A 
HETATM   31  C   UNL     1       6.093  29.933  56.968  1.00  0.00     0.032 A 
HETATM   32  C   UNL     1       6.356  31.045  57.779  1.00  0.00     0.039 A 
HETATM   33  C   UNL     1       7.472  31.076  58.619  1.00  0.00     0.068 A 
HETATM   34  C   UNL     1       8.315  29.969  58.661  1.00  0.00     0.039 A 
HETATM   35  C   UNL     1       8.054  28.858  57.851  1.00  0.00     0.032 A 
BRANCH  33  36
HETATM   36  O   UNL     1       7.627  32.231  59.333  1.00  0.00    -0.352 OA
BRANCH  36  37
HETATM   37  C   UNL     1       8.764  32.313  60.194  1.00  0.00     0.171 C 
HETATM   38  C   UNL     1       8.282  32.205  61.629  1.00  0.00     0.034 C 
ENDBRANCH  36  37
ENDBRANCH  33  36
ENDBRANCH  27  30
ENDBRANCH   1  26
TORSDOF 9
ENDMDL
MODEL 6
REMARK VINA RESULT:      -9.9      3.589      7.596
REMARK  9 active torsions:
REMARK  status: ('A' for Active; 'I' for Inactive)
REMARK    1  A    between atoms: C_2  and  O_3 
REMARK    2  A    between atoms: O_3  and  C_4 
REMARK    3  A    between atoms: C_7  and  N_8 
REMARK       I    between atoms: N_8  and  C_9 
REMARK    4  A    between atoms: C_9  and  C_10 
REMARK    5  A    between atoms: C_11  and  N_12 
REMARK       I    between atoms: N_12  and  C_13 
REMARK    6  A    between atoms: C_13  and  C_14 
REMARK    7  A    between atoms: C_14  and  N_15 
REMARK    8  A    between atoms: N_15  and  C_18 
REMARK    9  A    between atoms: C_18  and  C_19 
ROOT
HETATM    1  C   UNL     1       7.156  30.354  58.133  1.00  0.00     0.073 A 
HETATM    2  C   UNL     1       6.142  31.147  57.603  1.00  0.00     0.093 A 
HETATM    3  S   UNL     1       5.834  32.527  58.539  1.00  0.00    -0.075 SA
HETATM    4  C   UNL     1       6.927  32.044  59.739  1.00  0.00    -0.008 A 
HETATM    5  C   UNL     1       7.555  30.849  59.439  1.00  0.00    -0.026 A 
HETATM    6  C   UNL     1       8.497  30.212  60.425  1.00  0.00     0.041 C 
HETATM    7  C   UNL     1       8.308  30.766  61.846  1.00  0.00     0.009 C 
HETATM    8  C   UNL     1       8.279  32.307  61.837  1.00  0.00    -0.014 C 
HETATM    9  C   UNL     1       8.226  32.857  63.260  1.00  0.00     0.010 C 
HETATM   10  C   UNL     1       7.086  32.830  61.008  1.00  0.00     0.051 C 
ENDROOT
BRANCH   2  11
HETATM   11  N   UNL     1       5.429  30.884  56.439  1.00  0.00    -0.319 N 
HETATM   12  C   UNL     1       4.560  29.839  56.222  1.00  0.00     0.248 C 
HETATM   13  O   UNL     1       4.183  28.972  57.009  1.00  0.00    -0.271 OA
HETATM   14  H   UNL     1       5.677  31.513  55.670  1.00  0.00     0.169 HD
BRANCH  12  15
HETATM   15  C   UNL     1       4.007  29.779  54.796  1.00  0.00     0.335 C 
BRANCH  15  16
HETATM   16  N   UNL     1       4.460  28.510  54.117  1.00  0.00    -0.063 N 
HETATM   17  H   UNL     1       3.994  27.679  54.497  1.00  0.00     0.278 HD
HETATM   18  H   UNL     1       4.161  28.591  53.130  1.00  0.00     0.278 HD
BRANCH  16  19
HETATM   19  C   UNL     1       5.934  28.303  54.086  1.00  0.00     0.271 C 
BRANCH  19  20
HETATM   20  C   UNL     1       6.270  26.960  53.507  1.00  0.00    -0.033 A 
HETATM   21  C   UNL     1       5.247  26.056  53.175  1.00  0.00     0.009 A 
HETATM   22  C   UNL     1       5.558  24.794  52.667  1.00  0.00     0.001 A 
HETATM   23  C   UNL     1       6.888  24.419  52.496  1.00  0.00     0.000 A 
HETATM   24  C   UNL     1       7.911  25.303  52.831  1.00  0.00     0.001 A 
HETATM   25  C   UNL     1       7.607  26.567  53.338  1.00  0.00     0.009 A 
ENDBRANCH  19  20
ENDBRANCH  16  19
ENDBRANCH  15  16
ENDBRANCH  12  15
ENDBRANCH   2  11
BRANCH   1  26
HETATM   26  C   UNL     1       7.639  29.156  57.419  1.00  0.00     0.259 C 
HETATM   27  N   UNL     1       7.175  27.972  57.945  1.00  0.00    -0.323 N 
HETATM   28  H   UNL     1       6.723  28.030  58.846  1.00  0.00     0.169 HD
HETATM   29  O   UNL     1       8.451  29.274  56.503  1.00  0.00    -0.267 OA
BRANCH  27  30
HETATM   30  C   UNL     1       7.282  26.674  57.413  1.00  0.00     0.035 A 
HETATM   31  C   UNL     1       8.488  26.020  57.175  1.00  0.00     0.032 A 
HETATM   32  C   UNL     1       8.492  24.752  56.579  1.00  0.00     0.039 A 
HETATM   33  C   UNL     1       7.300  24.125  56.210  1.00  0.00     0.068 A 
HETATM   34  C   UNL     1       6.092  24.769  56.465  1.00  0.00     0.039 A 
HETATM   35  C   UNL     1       6.085  26.036  57.060  1.00  0.00     0.032 A 
BRANCH  33  36
HETATM   36  O   UNL     1       7.448  22.905  55.612  1.00  0.00    -0.352 OA
BRANCH  36  37
HETATM   37  C   UNL     1       8.419  22.021  56.176  1.00  0.00     0.171 C 
HETATM   38  C   UNL     1       7.875  20.606  56.099  1.00  0.00     0.034 C 
ENDBRANCH  36  37
ENDBRANCH  33  36
ENDBRANCH  27  30
ENDBRANCH   1  26
TORSDOF 9
ENDMDL
MODEL 7
REMARK VINA RESULT:      -9.5      2.512      6.930
REMARK  9 active torsions:
REMARK  status: ('A' for Active; 'I' for Inactive)
REMARK    1  A    between atoms: C_2  and  O_3 
REMARK    2  A    between atoms: O_3  and  C_4 
REMARK    3  A    between atoms: C_7  and  N_8 
REMARK       I    between atoms: N_8  and  C_9 
REMARK    4  A    between atoms: C_9  and  C_10 
REMARK    5  A    between atoms: C_11  and  N_12 
REMARK       I    between atoms: N_12  and  C_13 
REMARK    6  A    between atoms: C_13  and  C_14 
REMARK    7  A    between atoms: C_14  and  N_15 
REMARK    8  A    between atoms: N_15  and  C_18 
REMARK    9  A    between atoms: C_18  and  C_19 
ROOT
HETATM    1  C   UNL     1       7.101  29.825  56.856  1.00  0.00     0.073 A 
HETATM    2  C   UNL     1       5.935  30.377  56.331  1.00  0.00     0.093 A 
HETATM    3  S   UNL     1       5.391  31.718  57.213  1.00  0.00    -0.075 SA
HETATM    4  C   UNL     1       6.593  31.521  58.390  1.00  0.00    -0.008 A 
HETATM    5  C   UNL     1       7.434  30.457  58.120  1.00  0.00    -0.026 A 
HETATM    6  C   UNL     1       8.512  30.068  59.097  1.00  0.00     0.041 C 
HETATM    7  C   UNL     1       8.260  30.650  60.497  1.00  0.00     0.009 C 
HETATM    8  C   UNL     1       7.929  32.153  60.418  1.00  0.00    -0.014 C 
HETATM    9  C   UNL     1       7.811  32.757  61.816  1.00  0.00     0.010 C 
HETATM   10  C   UNL     1       6.633  32.389  59.614  1.00  0.00     0.051 C 
ENDROOT
BRANCH   2  11
HETATM   11  N   UNL     1       5.254  29.918  55.209  1.00  0.00    -0.319 N 
HETATM   12  C   UNL     1       4.523  28.757  55.105  1.00  0.00     0.248 C 
HETATM   13  O   UNL     1       4.265  27.927  55.976  1.00  0.00    -0.271 OA
HETATM   14  H   UNL     1       5.415  30.499  54.381  1.00  0.00     0.169 HD
BRANCH  12  15
HETATM   15  C   UNL     1       3.972  28.495  53.701  1.00  0.00     0.335 C 
BRANCH  15  16
HETATM   16  N   UNL     1       5.100  28.165  52.755  1.00  0.00    -0.063 N 
HETATM   17  H   UNL     1       5.337  28.953  52.142  1.00  0.00     0.278 HD
HETATM   18  H   UNL     1       5.930  27.993  53.348  1.00  0.00     0.278 HD
BRANCH  16  19
HETATM   19  C   UNL     1       4.906  26.929  51.949  1.00  0.00     0.271 C 
BRANCH  19  20
HETATM   20  C   UNL     1       4.987  27.232  50.481  1.00  0.00    -0.033 A 
HETATM   21  C   UNL     1       5.405  28.499  50.043  1.00  0.00     0.009 A 
HETATM   22  C   UNL     1       5.450  28.794  48.680  1.00  0.00     0.001 A 
HETATM   23  C   UNL     1       5.069  27.835  47.745  1.00  0.00     0.000 A 
HETATM   24  C   UNL     1       4.643  26.579  48.168  1.00  0.00     0.001 A 
HETATM   25  C   UNL     1       4.597  26.276  49.530  1.00  0.00     0.009 A 
ENDBRANCH  19  20
ENDBRANCH  16  19
ENDBRANCH  15  16
ENDBRANCH  12  15
ENDBRANCH   2  11
BRANCH   1  26
HETATM   26  C   UNL     1       7.788  28.708  56.179  1.00  0.00     0.259 C 
HETATM   27  N   UNL     1       7.380  27.465  56.607  1.00  0.00    -0.323 N 
HETATM   28  H   UNL     1       6.812  27.444  57.442  1.00  0.00     0.169 HD
HETATM   29  O   UNL     1       8.696  28.939  55.382  1.00  0.00    -0.267 OA
BRANCH  27  30
HETATM   30  C   UNL     1       7.683  26.205  56.058  1.00  0.00     0.035 A 
HETATM   31  C   UNL     1       7.290  25.787  54.790  1.00  0.00     0.032 A 
HETATM   32  C   UNL     1       7.583  24.486  54.357  1.00  0.00     0.039 A 
HETATM   33  C   UNL     1       8.265  23.589  55.183  1.00  0.00     0.068 A 
HETATM   34  C   UNL     1       8.676  24.012  56.444  1.00  0.00     0.039 A 
HETATM   35  C   UNL     1       8.383  25.311  56.878  1.00  0.00     0.032 A 
BRANCH  33  36
HETATM   36  O   UNL     1       8.460  22.346  54.650  1.00  0.00    -0.352 OA
BRANCH  36  37
HETATM   37  C   UNL     1       8.020  22.141  53.306  1.00  0.00     0.171 C 
HETATM   38  C   UNL     1       8.287  20.694  52.934  1.00  0.00     0.034 C 
ENDBRANCH  36  37
ENDBRANCH  33  36
ENDBRANCH  27  30
ENDBRANCH   1  26
TORSDOF 9
ENDMDL
MODEL 8
REMARK VINA RESULT:      -9.4      2.010      9.208
REMARK  9 active torsions:
REMARK  status: ('A' for Active; 'I' for Inactive)
REMARK    1  A    between atoms: C_2  and  O_3 
REMARK    2  A    between atoms: O_3  and  C_4 
REMARK    3  A    between atoms: C_7  and  N_8 
REMARK       I    between atoms: N_8  and  C_9 
REMARK    4  A    between atoms: C_9  and  C_10 
REMARK    5  A    between atoms: C_11  and  N_12 
REMARK       I    between atoms: N_12  and  C_13 
REMARK    6  A    between atoms: C_13  and  C_14 
REMARK    7  A    between atoms: C_14  and  N_15 
REMARK    8  A    between atoms: N_15  and  C_18 
REMARK    9  A    between atoms: C_18  and  C_19 
ROOT
HETATM    1  C   UNL     1       6.423  26.116  55.104  1.00  0.00     0.073 A 
HETATM    2  C   UNL     1       6.571  26.697  56.361  1.00  0.00     0.093 A 
HETATM    3  S   UNL     1       7.639  25.837  57.358  1.00  0.00    -0.075 SA
HETATM    4  C   UNL     1       7.823  24.600  56.215  1.00  0.00    -0.008 A 
HETATM    5  C   UNL     1       7.101  24.832  55.058  1.00  0.00    -0.026 A 
HETATM    6  C   UNL     1       7.069  23.803  53.959  1.00  0.00     0.041 C 
HETATM    7  C   UNL     1       7.504  22.415  54.455  1.00  0.00     0.009 C 
HETATM    8  C   UNL     1       8.815  22.503  55.260  1.00  0.00    -0.014 C 
HETATM    9  C   UNL     1       9.316  21.110  55.635  1.00  0.00     0.010 C 
HETATM   10  C   UNL     1       8.629  23.371  56.522  1.00  0.00     0.051 C 
ENDROOT
BRANCH   2  11
HETATM   11  N   UNL     1       5.939  27.855  56.799  1.00  0.00    -0.319 N 
HETATM   12  C   UNL     1       6.462  29.128  56.810  1.00  0.00     0.248 C 
HETATM   13  O   UNL     1       7.548  29.519  56.384  1.00  0.00    -0.271 OA
HETATM   14  H   UNL     1       5.026  27.672  57.225  1.00  0.00     0.169 HD
BRANCH  12  15
HETATM   15  C   UNL     1       5.540  30.172  57.444  1.00  0.00     0.335 C 
BRANCH  15  16
HETATM   16  N   UNL     1       6.332  31.399  57.825  1.00  0.00    -0.063 N 
HETATM   17  H   UNL     1       7.341  31.263  57.705  1.00  0.00     0.278 HD
HETATM   18  H   UNL     1       6.051  32.138  57.158  1.00  0.00     0.278 HD
BRANCH  16  19
HETATM   19  C   UNL     1       6.045  31.938  59.183  1.00  0.00     0.271 C 
BRANCH  19  20
HETATM   20  C   UNL     1       7.280  31.920  60.034  1.00  0.00    -0.033 A 
HETATM   21  C   UNL     1       7.177  31.997  61.433  1.00  0.00     0.009 A 
HETATM   22  C   UNL     1       8.326  32.013  62.225  1.00  0.00     0.001 A 
HETATM   23  C   UNL     1       9.584  31.963  61.632  1.00  0.00     0.000 A 
HETATM   24  C   UNL     1       9.699  31.897  60.245  1.00  0.00     0.001 A 
HETATM   25  C   UNL     1       8.554  31.878  59.447  1.00  0.00     0.009 A 
ENDBRANCH  19  20
ENDBRANCH  16  19
ENDBRANCH  15  16
ENDBRANCH  12  15
ENDBRANCH   2  11
BRANCH   1  26
HETATM   26  C   UNL     1       5.610  26.762  54.056  1.00  0.00     0.259 C 
HETATM   27  N   UNL     1       6.169  26.696  52.800  1.00  0.00    -0.323 N 
HETATM   28  H   UNL     1       7.131  26.392  52.755  1.00  0.00     0.169 HD
HETATM   29  O   UNL     1       4.582  27.363  54.361  1.00  0.00    -0.267 OA
BRANCH  27  30
HETATM   30  C   UNL     1       5.591  27.036  51.563  1.00  0.00     0.035 A 
HETATM   31  C   UNL     1       5.097  26.112  50.647  1.00  0.00     0.032 A 
HETATM   32  C   UNL     1       4.600  26.546  49.411  1.00  0.00     0.039 A 
HETATM   33  C   UNL     1       4.595  27.902  49.073  1.00  0.00     0.068 A 
HETATM   34  C   UNL     1       5.070  28.829  49.995  1.00  0.00     0.039 A 
HETATM   35  C   UNL     1       5.567  28.397  51.230  1.00  0.00     0.032 A 
BRANCH  33  36
HETATM   36  O   UNL     1       4.110  28.185  47.826  1.00  0.00    -0.352 OA
BRANCH  36  37
HETATM   37  C   UNL     1       3.217  27.232  47.246  1.00  0.00     0.171 C 
HETATM   38  C   UNL     1       1.830  27.845  47.204  1.00  0.00     0.034 C 
ENDBRANCH  36  37
ENDBRANCH  33  36
ENDBRANCH  27  30
ENDBRANCH   1  26
TORSDOF 9
ENDMDL
MODEL 9
REMARK VINA RESULT:      -9.0      3.612      8.028
REMARK  9 active torsions:
REMARK  status: ('A' for Active; 'I' for Inactive)
REMARK    1  A    between atoms: C_2  and  O_3 
REMARK    2  A    between atoms: O_3  and  C_4 
REMARK    3  A    between atoms: C_7  and  N_8 
REMARK       I    between atoms: N_8  and  C_9 
REMARK    4  A    between atoms: C_9  and  C_10 
REMARK    5  A    between atoms: C_11  and  N_12 
REMARK       I    between atoms: N_12  and  C_13 
REMARK    6  A    between atoms: C_13  and  C_14 
REMARK    7  A    between atoms: C_14  and  N_15 
REMARK    8  A    between atoms: N_15  and  C_18 
REMARK    9  A    between atoms: C_18  and  C_19 
ROOT
HETATM    1  C   UNL     1       6.827  31.589  59.288  1.00  0.00     0.073 A 
HETATM    2  C   UNL     1       5.657  32.223  58.878  1.00  0.00     0.093 A 
HETATM    3  S   UNL     1       5.076  33.328  60.025  1.00  0.00    -0.075 SA
HETATM    4  C   UNL     1       6.266  32.896  61.150  1.00  0.00    -0.008 A 
HETATM    5  C   UNL     1       7.132  31.932  60.666  1.00  0.00    -0.026 A 
HETATM    6  C   UNL     1       8.206  31.356  61.551  1.00  0.00     0.041 C 
HETATM    7  C   UNL     1       7.924  31.611  63.040  1.00  0.00     0.009 C 
HETATM    8  C   UNL     1       7.564  33.089  63.289  1.00  0.00    -0.014 C 
HETATM    9  C   UNL     1       7.417  33.368  64.783  1.00  0.00     0.010 C 
HETATM   10  C   UNL     1       6.274  33.474  62.536  1.00  0.00     0.051 C 
ENDROOT
BRANCH   2  11
HETATM   11  N   UNL     1       4.999  32.012  57.672  1.00  0.00    -0.319 N 
HETATM   12  C   UNL     1       4.880  32.904  56.630  1.00  0.00     0.248 C 
HETATM   13  O   UNL     1       5.372  34.025  56.514  1.00  0.00    -0.271 OA
HETATM   14  H   UNL     1       4.499  31.119  57.643  1.00  0.00     0.169 HD
BRANCH  12  15
HETATM   15  C   UNL     1       4.010  32.396  55.477  1.00  0.00     0.335 C 
BRANCH  15  16
HETATM   16  N   UNL     1       4.677  31.222  54.803  1.00  0.00    -0.063 N 
HETATM   17  H   UNL     1       5.022  31.456  53.866  1.00  0.00     0.278 HD
HETATM   18  H   UNL     1       5.508  30.997  55.377  1.00  0.00     0.278 HD
BRANCH  16  19
HETATM   19  C   UNL     1       3.861  29.978  54.753  1.00  0.00     0.271 C 
BRANCH  19  20
HETATM   20  C   UNL     1       4.333  29.077  53.650  1.00  0.00    -0.033 A 
HETATM   21  C   UNL     1       4.201  27.683  53.769  1.00  0.00     0.009 A 
HETATM   22  C   UNL     1       4.668  26.842  52.759  1.00  0.00     0.001 A 
HETATM   23  C   UNL     1       5.278  27.380  51.628  1.00  0.00     0.000 A 
HETATM   24  C   UNL     1       5.424  28.760  51.504  1.00  0.00     0.001 A 
HETATM   25  C   UNL     1       4.957  29.607  52.510  1.00  0.00     0.009 A 
ENDBRANCH  19  20
ENDBRANCH  16  19
ENDBRANCH  15  16
ENDBRANCH  12  15
ENDBRANCH   2  11
BRANCH   1  26
HETATM   26  C   UNL     1       7.545  30.660  58.394  1.00  0.00     0.259 C 
HETATM   27  N   UNL     1       6.791  29.580  57.996  1.00  0.00    -0.323 N 
HETATM   28  H   UNL     1       5.920  29.437  58.488  1.00  0.00     0.169 HD
HETATM   29  O   UNL     1       8.734  30.847  58.141  1.00  0.00    -0.267 OA
BRANCH  27  30
HETATM   30  C   UNL     1       7.089  28.615  57.016  1.00  0.00     0.035 A 
HETATM   31  C   UNL     1       7.418  28.912  55.696  1.00  0.00     0.032 A 
HETATM   32  C   UNL     1       7.633  27.878  54.776  1.00  0.00     0.039 A 
HETATM   33  C   UNL     1       7.519  26.539  55.158  1.00  0.00     0.068 A 
HETATM   34  C   UNL     1       7.210  26.239  56.482  1.00  0.00     0.039 A 
HETATM   35  C   UNL     1       6.994  27.272  57.402  1.00  0.00     0.032 A 
BRANCH  33  36
HETATM   36  O   UNL     1       7.726  25.632  54.157  1.00  0.00    -0.352 OA
BRANCH  36  37
HETATM   37  C   UNL     1       7.039  24.383  54.262  1.00  0.00     0.171 C 
HETATM   38  C   UNL     1       7.365  23.557  53.031  1.00  0.00     0.034 C 
ENDBRANCH  36  37
ENDBRANCH  33  36
ENDBRANCH  27  30
ENDBRANCH   1  26
TORSDOF 9
ENDMDL
MODEL 10
REMARK VINA RESULT:      -8.9      3.155      8.607
REMARK  9 active torsions:
REMARK  status: ('A' for Active; 'I' for Inactive)
REMARK    1  A    between atoms: C_2  and  O_3 
REMARK    2  A    between atoms: O_3  and  C_4 
REMARK    3  A    between atoms: C_7  and  N_8 
REMARK       I    between atoms: N_8  and  C_9 
REMARK    4  A    between atoms: C_9  and  C_10 
REMARK    5  A    between atoms: C_11  and  N_12 
REMARK       I    between atoms: N_12  and  C_13 
REMARK    6  A    between atoms: C_13  and  C_14 
REMARK    7  A    between atoms: C_14  and  N_15 
REMARK    8  A    between atoms: N_15  and  C_18 
REMARK    9  A    between atoms: C_18  and  C_19 
ROOT
HETATM    1  C   UNL     1       3.751  28.130  50.536  1.00  0.00     0.073 A 
HETATM    2  C   UNL     1       3.204  29.245  51.164  1.00  0.00     0.093 A 
HETATM    3  S   UNL     1       1.728  29.723  50.479  1.00  0.00    -0.075 SA
HETATM    4  C   UNL     1       1.842  28.566  49.249  1.00  0.00    -0.008 A 
HETATM    5  C   UNL     1       2.982  27.788  49.352  1.00  0.00    -0.026 A 
HETATM    6  C   UNL     1       3.304  26.760  48.300  1.00  0.00     0.041 C 
HETATM    7  C   UNL     1       2.530  27.008  46.995  1.00  0.00     0.009 C 
HETATM    8  C   UNL     1       1.033  27.241  47.277  1.00  0.00    -0.014 C 
HETATM    9  C   UNL     1       0.246  27.353  45.973  1.00  0.00     0.010 C 
HETATM   10  C   UNL     1       0.826  28.500  48.146  1.00  0.00     0.051 C 
ENDROOT
BRANCH   2  11
HETATM   11  N   UNL     1       3.762  29.927  52.239  1.00  0.00    -0.319 N 
HETATM   12  C   UNL     1       3.849  29.487  53.541  1.00  0.00     0.248 C 
HETATM   13  O   UNL     1       3.521  28.399  54.011  1.00  0.00    -0.271 OA
HETATM   14  H   UNL     1       4.046  30.881  52.000  1.00  0.00     0.169 HD
BRANCH  12  15
HETATM   15  C   UNL     1       4.438  30.519  54.505  1.00  0.00     0.335 C 
BRANCH  15  16
HETATM   16  N   UNL     1       5.693  29.975  55.143  1.00  0.00    -0.063 N 
HETATM   17  H   UNL     1       6.086  29.187  54.617  1.00  0.00     0.278 HD
HETATM   18  H   UNL     1       6.390  30.738  55.098  1.00  0.00     0.278 HD
BRANCH  16  19
HETATM   19  C   UNL     1       5.565  29.617  56.582  1.00  0.00     0.271 C 
BRANCH  19  20
HETATM   20  C   UNL     1       6.003  28.202  56.820  1.00  0.00    -0.033 A 
HETATM   21  C   UNL     1       5.064  27.158  56.803  1.00  0.00     0.009 A 
HETATM   22  C   UNL     1       5.464  25.845  57.056  1.00  0.00     0.001 A 
HETATM   23  C   UNL     1       6.798  25.564  57.337  1.00  0.00     0.000 A 
HETATM   24  C   UNL     1       7.737  26.592  57.368  1.00  0.00     0.001 A 
HETATM   25  C   UNL     1       7.344  27.907  57.114  1.00  0.00     0.009 A 
ENDBRANCH  19  20
ENDBRANCH  16  19
ENDBRANCH  15  16
ENDBRANCH  12  15
ENDBRANCH   2  11
BRANCH   1  26
HETATM   26  C   UNL     1       4.986  27.500  51.040  1.00  0.00     0.259 C 
HETATM   27  N   UNL     1       4.762  26.442  51.892  1.00  0.00    -0.323 N 
HETATM   28  H   UNL     1       3.814  26.327  52.222  1.00  0.00     0.169 HD
HETATM   29  O   UNL     1       6.081  27.984  50.758  1.00  0.00    -0.267 OA
BRANCH  27  30
HETATM   30  C   UNL     1       5.688  25.513  52.401  1.00  0.00     0.035 A 
HETATM   31  C   UNL     1       5.520  24.807  53.588  1.00  0.00     0.032 A 
HETATM   32  C   UNL     1       6.532  23.952  54.046  1.00  0.00     0.039 A 
HETATM   33  C   UNL     1       7.721  23.796  53.330  1.00  0.00     0.068 A 
HETATM   34  C   UNL     1       7.883  24.486  52.133  1.00  0.00     0.039 A 
HETATM   35  C   UNL     1       6.874  25.341  51.674  1.00  0.00     0.032 A 
BRANCH  33  36
HETATM   36  O   UNL     1       8.635  22.956  53.903  1.00  0.00    -0.352 OA
BRANCH  36  37
HETATM   37  C   UNL     1       8.858  23.102  55.307  1.00  0.00     0.171 C 
HETATM   38  C   UNL     1       8.696  21.741  55.957  1.00  0.00     0.034 C 
ENDBRANCH  36  37
ENDBRANCH  33  36
ENDBRANCH  27  30
ENDBRANCH   1  26
TORSDOF 9
ENDMDL
