MODEL 1
REMARK VINA RESULT:      -8.5      0.000      0.000
REMARK  8 active torsions:
REMARK  status: ('A' for Active; 'I' for Inactive)
REMARK    1  A    between atoms: C_2  and  C_3 
REMARK    2  A    between atoms: C_3  and  N_4 
REMARK    3  A    between atoms: N_4  and  C_5 
REMARK    4  A    between atoms: C_7  and  N_8 
REMARK    5  A    between atoms: N_8  and  C_9 
REMARK    6  A    between atoms: C_9  and  C_10 
REMARK    7  A    between atoms: C_10  and  C_11 
REMARK    8  A    between atoms: C_12  and  O_13 
ROOT
HETATM    1  C   UNL     1       7.973  24.043  54.123  1.00  0.00     0.119 A 
HETATM    2  N   UNL     1       7.851  25.041  55.021  1.00  0.00    -0.207 NA
HETATM    3  C   UNL     1       7.852  24.714  56.318  1.00  0.00     0.181 A 
HETATM    4  N   UNL     1       7.942  23.462  56.755  1.00  0.00    -0.330 N 
HETATM    5  H   UNL     1       7.855  23.315  57.750  1.00  0.00     0.168 HD
HETATM    6  C   UNL     1       8.097  22.440  55.908  1.00  0.00     0.048 A 
HETATM    7  C   UNL     1       8.130  22.699  54.524  1.00  0.00     0.031 A 
HETATM    8  C   UNL     1       8.227  21.132  56.399  1.00  0.00     0.030 A 
HETATM    9  C   UNL     1       8.407  20.068  55.517  1.00  0.00     0.002 A 
HETATM   10  C   UNL     1       8.459  20.303  54.146  1.00  0.00     0.001 A 
HETATM   11  C   UNL     1       8.322  21.602  53.651  1.00  0.00     0.017 A 
ENDROOT
BRANCH   3  12
HETATM   12  N   UNL     1       7.662  25.729  57.238  1.00  0.00    -0.262 NA
HETATM   13  H   UNL     1       6.963  25.376  57.901  1.00  0.00     0.130 HD
BRANCH  12  14
HETATM   14  C   UNL     1       7.313  27.061  56.730  1.00  0.00     0.100 C 
BRANCH  14  15
HETATM   15  C   UNL     1       7.472  28.156  57.793  1.00  0.00     0.056 C 
BRANCH  15  16
HETATM   16  C   UNL     1       8.661  29.095  57.707  1.00  0.00    -0.024 A 
HETATM   17  C   UNL     1       8.648  30.268  58.497  1.00  0.00     0.074 A 
HETATM   18  C   UNL     1       9.731  31.153  58.458  1.00  0.00     0.037 A 
HETATM   19  C   UNL     1      10.824  30.891  57.634  1.00  0.00     0.003 A 
HETATM   20  C   UNL     1      10.842  29.749  56.843  1.00  0.00     0.001 A 
HETATM   21  C   UNL     1       9.768  28.857  56.876  1.00  0.00     0.010 A 
BRANCH  17  22
HETATM   22  O   UNL     1       7.531  30.446  59.275  1.00  0.00    -0.355 OA
HETATM   23  C   UNL     1       7.054  31.778  59.432  1.00  0.00     0.210 C 
ENDBRANCH  17  22
ENDBRANCH  15  16
ENDBRANCH  14  15
ENDBRANCH  12  14
ENDBRANCH   3  12
BRANCH   1  24
HETATM   24  N   UNL     1       7.989  24.356  52.757  1.00  0.00    -0.277 NA
HETATM   25  H   UNL     1       7.853  23.519  52.193  1.00  0.00     0.129 HD
BRANCH  24  26
HETATM   26  C   UNL     1       7.109  25.441  52.317  1.00  0.00     0.093 C 
BRANCH  26  27
HETATM   27  C   UNL     1       5.678  24.922  52.158  1.00  0.00     0.010 C 
HETATM   28  C   UNL     1       4.728  25.473  53.212  1.00  0.00     0.006 C 
ENDBRANCH  26  27
ENDBRANCH  24  26
ENDBRANCH   1  24
TORSDOF 8
ENDMDL
MODEL 2
REMARK VINA RESULT:      -8.3      2.885      7.924
REMARK  8 active torsions:
REMARK  status: ('A' for Active; 'I' for Inactive)
REMARK    1  A    between atoms: C_2  and  C_3 
REMARK    2  A    between atoms: C_3  and  N_4 
REMARK    3  A    between atoms: N_4  and  C_5 
REMARK    4  A    between atoms: C_7  and  N_8 
REMARK    5  A    between atoms: N_8  and  C_9 
REMARK    6  A    between atoms: C_9  and  C_10 
REMARK    7  A    between atoms: C_10  and  C_11 
REMARK    8  A    between atoms: C_12  and  O_13 
ROOT
HETATM    1  C   UNL     1       6.433  28.123  56.646  1.00  0.00     0.119 A 
HETATM    2  N   UNL     1       6.302  26.847  56.233  1.00  0.00    -0.207 NA
HETATM    3  C   UNL     1       5.396  26.591  55.281  1.00  0.00     0.181 A 
HETATM    4  N   UNL     1       4.612  27.524  54.751  1.00  0.00    -0.330 N 
HETATM    5  H   UNL     1       3.908  27.215  54.096  1.00  0.00     0.168 HD
HETATM    6  C   UNL     1       4.724  28.807  55.103  1.00  0.00     0.048 A 
HETATM    7  C   UNL     1       5.670  29.168  56.081  1.00  0.00     0.031 A 
HETATM    8  C   UNL     1       3.909  29.777  54.498  1.00  0.00     0.030 A 
HETATM    9  C   UNL     1       4.038  31.119  54.851  1.00  0.00     0.002 A 
HETATM   10  C   UNL     1       4.978  31.499  55.805  1.00  0.00     0.001 A 
HETATM   11  C   UNL     1       5.787  30.538  56.415  1.00  0.00     0.017 A 
ENDROOT
BRANCH   3  12
HETATM   12  N   UNL     1       5.215  25.273  54.902  1.00  0.00    -0.262 NA
HETATM   13  H   UNL     1       5.603  24.709  55.665  1.00  0.00     0.130 HD
BRANCH  12  14
HETATM   14  C   UNL     1       5.735  24.857  53.593  1.00  0.00     0.100 C 
BRANCH  14  15
HETATM   15  C   UNL     1       7.211  24.443  53.651  1.00  0.00     0.056 C 
BRANCH  15  16
HETATM   16  C   UNL     1       7.556  22.993  53.935  1.00  0.00    -0.024 A 
HETATM   17  C   UNL     1       7.610  22.568  55.282  1.00  0.00     0.074 A 
HETATM   18  C   UNL     1       7.910  21.236  55.587  1.00  0.00     0.037 A 
HETATM   19  C   UNL     1       8.169  20.322  54.567  1.00  0.00     0.003 A 
HETATM   20  C   UNL     1       8.133  20.732  53.240  1.00  0.00     0.001 A 
HETATM   21  C   UNL     1       7.831  22.058  52.924  1.00  0.00     0.010 A 
BRANCH  17  22
HETATM   22  O   UNL     1       7.344  23.535  56.220  1.00  0.00    -0.355 OA
HETATM   23  C   UNL     1       8.422  23.940  57.058  1.00  0.00     0.210 C 
ENDBRANCH  17  22
ENDBRANCH  15  16
ENDBRANCH  14  15
ENDBRANCH  12  14
ENDBRANCH   3  12
BRANCH   1  24
HETATM   24  N   UNL     1       7.383  28.424  57.632  1.00  0.00    -0.277 NA
HETATM   25  H   UNL     1       7.175  27.928  58.497  1.00  0.00     0.129 HD
BRANCH  24  26
HETATM   26  C   UNL     1       8.791  28.273  57.260  1.00  0.00     0.093 C 
BRANCH  26  27
HETATM   27  C   UNL     1       9.421  29.649  57.029  1.00  0.00     0.010 C 
HETATM   28  C   UNL     1      10.931  29.586  56.851  1.00  0.00     0.006 C 
ENDBRANCH  26  27
ENDBRANCH  24  26
ENDBRANCH   1  24
TORSDOF 8
ENDMDL
MODEL 3
REMARK VINA RESULT:      -8.3      2.416      7.636
REMARK  8 active torsions:
REMARK  status: ('A' for Active; 'I' for Inactive)
REMARK    1  A    between atoms: C_2  and  C_3 
REMARK    2  A    between atoms: C_3  and  N_4 
REMARK    3  A    between atoms: N_4  and  C_5 
REMARK    4  A    between atoms: C_7  and  N_8 
REMARK    5  A    between atoms: N_8  and  C_9 
REMARK    6  A    between atoms: C_9  and  C_10 
REMARK    7  A    between atoms: C_10  and  C_11 
REMARK    8  A    between atoms: C_12  and  O_13 
ROOT
HETATM    1  C   UNL     1       7.249  28.459  57.784  1.00  0.00     0.119 A 
HETATM    2  N   UNL     1       7.891  27.346  58.190  1.00  0.00    -0.207 NA
HETATM    3  C   UNL     1       7.614  26.201  57.554  1.00  0.00     0.181 A 
HETATM    4  N   UNL     1       6.726  26.110  56.570  1.00  0.00    -0.330 N 
HETATM    5  H   UNL     1       6.534  25.186  56.208  1.00  0.00     0.168 HD
HETATM    6  C   UNL     1       6.087  27.188  56.109  1.00  0.00     0.048 A 
HETATM    7  C   UNL     1       6.337  28.439  56.706  1.00  0.00     0.031 A 
HETATM    8  C   UNL     1       5.183  27.068  55.042  1.00  0.00     0.030 A 
HETATM    9  C   UNL     1       4.528  28.196  54.549  1.00  0.00     0.002 A 
HETATM   10  C   UNL     1       4.773  29.444  55.115  1.00  0.00     0.001 A 
HETATM   11  C   UNL     1       5.667  29.568  56.180  1.00  0.00     0.017 A 
ENDROOT
BRANCH   3  12
HETATM   12  N   UNL     1       8.224  25.047  58.011  1.00  0.00    -0.262 NA
HETATM   13  H   UNL     1       8.959  25.358  58.656  1.00  0.00     0.130 HD
BRANCH  12  14
HETATM   14  C   UNL     1       8.734  24.097  57.014  1.00  0.00     0.100 C 
BRANCH  14  15
HETATM   15  C   UNL     1       7.691  23.043  56.620  1.00  0.00     0.056 C 
BRANCH  15  16
HETATM   16  C   UNL     1       7.946  22.179  55.398  1.00  0.00    -0.024 A 
HETATM   17  C   UNL     1       7.602  22.696  54.128  1.00  0.00     0.074 A 
HETATM   18  C   UNL     1       7.834  21.939  52.975  1.00  0.00     0.037 A 
HETATM   19  C   UNL     1       8.394  20.666  53.070  1.00  0.00     0.003 A 
HETATM   20  C   UNL     1       8.722  20.142  54.315  1.00  0.00     0.001 A 
HETATM   21  C   UNL     1       8.499  20.890  55.472  1.00  0.00     0.010 A 
BRANCH  17  22
HETATM   22  O   UNL     1       7.054  23.955  54.130  1.00  0.00    -0.355 OA
HETATM   23  C   UNL     1       6.265  24.321  53.003  1.00  0.00     0.210 C 
ENDBRANCH  17  22
ENDBRANCH  15  16
ENDBRANCH  14  15
ENDBRANCH  12  14
ENDBRANCH   3  12
BRANCH   1  24
HETATM   24  N   UNL     1       7.528  29.676  58.422  1.00  0.00    -0.277 NA
HETATM   25  H   UNL     1       7.043  29.734  59.316  1.00  0.00     0.129 HD
BRANCH  24  26
HETATM   26  C   UNL     1       8.939  30.042  58.557  1.00  0.00     0.093 C 
BRANCH  26  27
HETATM   27  C   UNL     1       9.614  30.040  57.184  1.00  0.00     0.010 C 
HETATM   28  C   UNL     1      11.128  29.906  57.269  1.00  0.00     0.006 C 
ENDBRANCH  26  27
ENDBRANCH  24  26
ENDBRANCH   1  24
TORSDOF 8
ENDMDL
MODEL 4
REMARK VINA RESULT:      -8.3      1.334      1.973
REMARK  8 active torsions:
REMARK  status: ('A' for Active; 'I' for Inactive)
REMARK    1  A    between atoms: C_2  and  C_3 
REMARK    2  A    between atoms: C_3  and  N_4 
REMARK    3  A    between atoms: N_4  and  C_5 
REMARK    4  A    between atoms: C_7  and  N_8 
REMARK    5  A    between atoms: N_8  and  C_9 
REMARK    6  A    between atoms: C_9  and  C_10 
REMARK    7  A    between atoms: C_10  and  C_11 
REMARK    8  A    between atoms: C_12  and  O_13 
ROOT
HETATM    1  C   UNL     1       7.987  24.120  54.719  1.00  0.00     0.119 A 
HETATM    2  N   UNL     1       7.971  25.067  55.677  1.00  0.00    -0.207 NA
HETATM    3  C   UNL     1       8.088  24.668  56.949  1.00  0.00     0.181 A 
HETATM    4  N   UNL     1       8.192  23.392  57.307  1.00  0.00    -0.330 N 
HETATM    5  H   UNL     1       8.197  23.191  58.297  1.00  0.00     0.168 HD
HETATM    6  C   UNL     1       8.245  22.418  56.395  1.00  0.00     0.048 A 
HETATM    7  C   UNL     1       8.154  22.752  55.030  1.00  0.00     0.031 A 
HETATM    8  C   UNL     1       8.394  21.082  56.800  1.00  0.00     0.030 A 
HETATM    9  C   UNL     1       8.468  20.066  55.848  1.00  0.00     0.002 A 
HETATM   10  C   UNL     1       8.395  20.377  54.493  1.00  0.00     0.001 A 
HETATM   11  C   UNL     1       8.240  21.703  54.085  1.00  0.00     0.017 A 
ENDROOT
BRANCH   3  12
HETATM   12  N   UNL     1       8.007  25.633  57.937  1.00  0.00    -0.262 NA
HETATM   13  H   UNL     1       7.711  25.138  58.785  1.00  0.00     0.130 HD
BRANCH  12  14
HETATM   14  C   UNL     1       7.179  26.817  57.675  1.00  0.00     0.100 C 
BRANCH  14  15
HETATM   15  C   UNL     1       7.989  28.120  57.710  1.00  0.00     0.056 C 
BRANCH  15  16
HETATM   16  C   UNL     1       7.252  29.439  57.854  1.00  0.00    -0.024 A 
HETATM   17  C   UNL     1       7.694  30.350  58.841  1.00  0.00     0.074 A 
HETATM   18  C   UNL     1       7.051  31.582  58.997  1.00  0.00     0.037 A 
HETATM   19  C   UNL     1       5.965  31.917  58.190  1.00  0.00     0.003 A 
HETATM   20  C   UNL     1       5.513  31.023  57.227  1.00  0.00     0.001 A 
HETATM   21  C   UNL     1       6.149  29.792  57.059  1.00  0.00     0.010 A 
BRANCH  17  22
HETATM   22  O   UNL     1       8.767  29.936  59.591  1.00  0.00    -0.355 OA
HETATM   23  C   UNL     1       8.981  30.594  60.835  1.00  0.00     0.210 C 
ENDBRANCH  17  22
ENDBRANCH  15  16
ENDBRANCH  14  15
ENDBRANCH  12  14
ENDBRANCH   3  12
BRANCH   1  24
HETATM   24  N   UNL     1       7.881  24.508  53.377  1.00  0.00    -0.277 NA
HETATM   25  H   UNL     1       7.351  23.821  52.843  1.00  0.00     0.129 HD
BRANCH  24  26
HETATM   26  C   UNL     1       7.401  25.867  53.118  1.00  0.00     0.093 C 
BRANCH  26  27
HETATM   27  C   UNL     1       6.293  25.838  52.063  1.00  0.00     0.010 C 
HETATM   28  C   UNL     1       5.160  24.886  52.419  1.00  0.00     0.006 C 
ENDBRANCH  26  27
ENDBRANCH  24  26
ENDBRANCH   1  24
TORSDOF 8
ENDMDL
MODEL 5
REMARK VINA RESULT:      -8.2      1.662      2.499
REMARK  8 active torsions:
REMARK  status: ('A' for Active; 'I' for Inactive)
REMARK    1  A    between atoms: C_2  and  C_3 
REMARK    2  A    between atoms: C_3  and  N_4 
REMARK    3  A    between atoms: N_4  and  C_5 
REMARK    4  A    between atoms: C_7  and  N_8 
REMARK    5  A    between atoms: N_8  and  C_9 
REMARK    6  A    between atoms: C_9  and  C_10 
REMARK    7  A    between atoms: C_10  and  C_11 
REMARK    8  A    between atoms: C_12  and  O_13 
ROOT
HETATM    1  C   UNL     1       6.865  23.928  53.923  1.00  0.00     0.119 A 
HETATM    2  N   UNL     1       6.636  24.730  54.981  1.00  0.00    -0.207 NA
HETATM    3  C   UNL     1       6.991  24.281  56.190  1.00  0.00     0.181 A 
HETATM    4  N   UNL     1       7.529  23.083  56.395  1.00  0.00    -0.330 N 
HETATM    5  H   UNL     1       7.689  22.808  57.354  1.00  0.00     0.168 HD
HETATM    6  C   UNL     1       7.806  22.264  55.377  1.00  0.00     0.048 A 
HETATM    7  C   UNL     1       7.487  22.669  54.067  1.00  0.00     0.031 A 
HETATM    8  C   UNL     1       8.410  21.020  55.619  1.00  0.00     0.030 A 
HETATM    9  C   UNL     1       8.716  20.172  54.556  1.00  0.00     0.002 A 
HETATM   10  C   UNL     1       8.423  20.560  53.251  1.00  0.00     0.001 A 
HETATM   11  C   UNL     1       7.816  21.793  53.005  1.00  0.00     0.017 A 
ENDROOT
BRANCH   3  12
HETATM   12  N   UNL     1       6.698  25.075  57.284  1.00  0.00    -0.262 NA
HETATM   13  H   UNL     1       5.938  25.695  56.982  1.00  0.00     0.130 HD
BRANCH  12  14
HETATM   14  C   UNL     1       7.799  25.821  57.907  1.00  0.00     0.100 C 
BRANCH  14  15
HETATM   15  C   UNL     1       8.178  27.080  57.115  1.00  0.00     0.056 C 
BRANCH  15  16
HETATM   16  C   UNL     1       7.575  28.412  57.520  1.00  0.00    -0.024 A 
HETATM   17  C   UNL     1       6.281  28.734  57.049  1.00  0.00     0.074 A 
HETATM   18  C   UNL     1       5.683  29.946  57.412  1.00  0.00     0.037 A 
HETATM   19  C   UNL     1       6.362  30.848  58.230  1.00  0.00     0.003 A 
HETATM   20  C   UNL     1       7.640  30.549  58.686  1.00  0.00     0.001 A 
HETATM   21  C   UNL     1       8.245  29.341  58.334  1.00  0.00     0.010 A 
BRANCH  17  22
HETATM   22  O   UNL     1       5.690  27.789  56.248  1.00  0.00    -0.355 OA
HETATM   23  C   UNL     1       5.368  28.176  54.917  1.00  0.00     0.210 C 
ENDBRANCH  17  22
ENDBRANCH  15  16
ENDBRANCH  14  15
ENDBRANCH  12  14
ENDBRANCH   3  12
BRANCH   1  24
HETATM   24  N   UNL     1       6.517  24.377  52.641  1.00  0.00    -0.277 NA
HETATM   25  H   UNL     1       6.563  23.615  51.967  1.00  0.00     0.129 HD
BRANCH  24  26
HETATM   26  C   UNL     1       5.260  25.118  52.520  1.00  0.00     0.093 C 
BRANCH  26  27
HETATM   27  C   UNL     1       5.158  25.751  51.130  1.00  0.00     0.010 C 
HETATM   28  C   UNL     1       5.095  27.271  51.175  1.00  0.00     0.006 C 
ENDBRANCH  26  27
ENDBRANCH  24  26
ENDBRANCH   1  24
TORSDOF 8
ENDMDL
MODEL 6
REMARK VINA RESULT:      -8.1      3.773      7.297
REMARK  8 active torsions:
REMARK  status: ('A' for Active; 'I' for Inactive)
REMARK    1  A    between atoms: C_2  and  C_3 
REMARK    2  A    between atoms: C_3  and  N_4 
REMARK    3  A    between atoms: N_4  and  C_5 
REMARK    4  A    between atoms: C_7  and  N_8 
REMARK    5  A    between atoms: N_8  and  C_9 
REMARK    6  A    between atoms: C_9  and  C_10 
REMARK    7  A    between atoms: C_10  and  C_11 
REMARK    8  A    between atoms: C_12  and  O_13 
ROOT
HETATM    1  C   UNL     1       7.091  23.891  54.966  1.00  0.00     0.119 A 
HETATM    2  N   UNL     1       6.935  24.756  53.945  1.00  0.00    -0.207 NA
HETATM    3  C   UNL     1       7.305  24.351  52.725  1.00  0.00     0.181 A 
HETATM    4  N   UNL     1       7.837  23.158  52.482  1.00  0.00    -0.330 N 
HETATM    5  H   UNL     1       8.154  22.979  51.539  1.00  0.00     0.168 HD
HETATM    6  C   UNL     1       7.982  22.252  53.452  1.00  0.00     0.048 A 
HETATM    7  C   UNL     1       7.595  22.587  54.764  1.00  0.00     0.031 A 
HETATM    8  C   UNL     1       8.510  20.985  53.160  1.00  0.00     0.030 A 
HETATM    9  C   UNL     1       8.646  20.033  54.168  1.00  0.00     0.002 A 
HETATM   10  C   UNL     1       8.255  20.339  55.469  1.00  0.00     0.001 A 
HETATM   11  C   UNL     1       7.735  21.600  55.767  1.00  0.00     0.017 A 
ENDROOT
BRANCH   3  12
HETATM   12  N   UNL     1       7.206  25.261  51.687  1.00  0.00    -0.262 NA
HETATM   13  H   UNL     1       8.162  25.591  51.515  1.00  0.00     0.130 HD
BRANCH  12  14
HETATM   14  C   UNL     1       6.260  26.374  51.836  1.00  0.00     0.100 C 
BRANCH  14  15
HETATM   15  C   UNL     1       5.024  26.218  50.939  1.00  0.00     0.056 C 
BRANCH  15  16
HETATM   16  C   UNL     1       4.858  27.147  49.750  1.00  0.00    -0.024 A 
HETATM   17  C   UNL     1       4.130  26.682  48.632  1.00  0.00     0.074 A 
HETATM   18  C   UNL     1       3.941  27.511  47.522  1.00  0.00     0.037 A 
HETATM   19  C   UNL     1       4.479  28.797  47.505  1.00  0.00     0.003 A 
HETATM   20  C   UNL     1       5.210  29.260  48.593  1.00  0.00     0.001 A 
HETATM   21  C   UNL     1       5.401  28.442  49.708  1.00  0.00     0.010 A 
BRANCH  17  22
HETATM   22  O   UNL     1       3.639  25.403  48.735  1.00  0.00    -0.355 OA
HETATM   23  C   UNL     1       2.894  24.903  47.630  1.00  0.00     0.210 C 
ENDBRANCH  17  22
ENDBRANCH  15  16
ENDBRANCH  14  15
ENDBRANCH  12  14
ENDBRANCH   3  12
BRANCH   1  24
HETATM   24  N   UNL     1       6.700  24.281  56.254  1.00  0.00    -0.277 NA
HETATM   25  H   UNL     1       7.102  23.663  56.957  1.00  0.00     0.129 HD
BRANCH  24  26
HETATM   26  C   UNL     1       6.900  25.687  56.608  1.00  0.00     0.093 C 
BRANCH  26  27
HETATM   27  C   UNL     1       8.266  25.871  57.273  1.00  0.00     0.010 C 
HETATM   28  C   UNL     1       8.878  24.557  57.739  1.00  0.00     0.006 C 
ENDBRANCH  26  27
ENDBRANCH  24  26
ENDBRANCH   1  24
TORSDOF 8
ENDMDL
MODEL 7
REMARK VINA RESULT:      -8.0      3.823      7.604
REMARK  8 active torsions:
REMARK  status: ('A' for Active; 'I' for Inactive)
REMARK    1  A    between atoms: C_2  and  C_3 
REMARK    2  A    between atoms: C_3  and  N_4 
REMARK    3  A    between atoms: N_4  and  C_5 
REMARK    4  A    between atoms: C_7  and  N_8 
REMARK    5  A    between atoms: N_8  and  C_9 
REMARK    6  A    between atoms: C_9  and  C_10 
REMARK    7  A    between atoms: C_10  and  C_11 
REMARK    8  A    between atoms: C_12  and  O_13 
ROOT
HETATM    1  C   UNL     1       7.505  23.586  53.863  1.00  0.00     0.119 A 
HETATM    2  N   UNL     1       6.518  23.996  53.042  1.00  0.00    -0.207 NA
HETATM    3  C   UNL     1       5.702  24.961  53.483  1.00  0.00     0.181 A 
HETATM    4  N   UNL     1       5.805  25.508  54.690  1.00  0.00    -0.330 N 
HETATM    5  H   UNL     1       5.092  26.174  54.955  1.00  0.00     0.168 HD
HETATM    6  C   UNL     1       6.784  25.161  55.529  1.00  0.00     0.048 A 
HETATM    7  C   UNL     1       7.703  24.169  55.134  1.00  0.00     0.031 A 
HETATM    8  C   UNL     1       6.892  25.783  56.782  1.00  0.00     0.030 A 
HETATM    9  C   UNL     1       7.924  25.434  57.651  1.00  0.00     0.002 A 
HETATM   10  C   UNL     1       8.852  24.467  57.274  1.00  0.00     0.001 A 
HETATM   11  C   UNL     1       8.746  23.839  56.031  1.00  0.00     0.017 A 
ENDROOT
BRANCH   3  12
HETATM   12  N   UNL     1       4.650  25.337  52.668  1.00  0.00    -0.262 NA
HETATM   13  H   UNL     1       4.513  24.559  52.014  1.00  0.00     0.130 HD
BRANCH  12  14
HETATM   14  C   UNL     1       4.746  26.627  51.973  1.00  0.00     0.100 C 
BRANCH  14  15
HETATM   15  C   UNL     1       5.401  26.503  50.591  1.00  0.00     0.056 C 
BRANCH  15  16
HETATM   16  C   UNL     1       4.518  26.517  49.357  1.00  0.00    -0.024 A 
HETATM   17  C   UNL     1       4.453  27.704  48.591  1.00  0.00     0.074 A 
HETATM   18  C   UNL     1       3.663  27.753  47.438  1.00  0.00     0.037 A 
HETATM   19  C   UNL     1       2.926  26.638  47.041  1.00  0.00     0.003 A 
HETATM   20  C   UNL     1       2.971  25.471  47.794  1.00  0.00     0.001 A 
HETATM   21  C   UNL     1       3.759  25.409  48.945  1.00  0.00     0.010 A 
BRANCH  17  22
HETATM   22  O   UNL     1       5.209  28.751  49.057  1.00  0.00    -0.355 OA
HETATM   23  C   UNL     1       4.826  30.060  48.648  1.00  0.00     0.210 C 
ENDBRANCH  17  22
ENDBRANCH  15  16
ENDBRANCH  14  15
ENDBRANCH  12  14
ENDBRANCH   3  12
BRANCH   1  24
HETATM   24  N   UNL     1       8.384  22.587  53.424  1.00  0.00    -0.277 NA
HETATM   25  H   UNL     1       9.224  22.567  54.000  1.00  0.00     0.129 HD
BRANCH  24  26
HETATM   26  C   UNL     1       7.825  21.245  53.252  1.00  0.00     0.093 C 
BRANCH  26  27
HETATM   27  C   UNL     1       8.476  20.276  54.242  1.00  0.00     0.010 C 
HETATM   28  C   UNL     1       7.852  20.338  55.629  1.00  0.00     0.006 C 
ENDBRANCH  26  27
ENDBRANCH  24  26
ENDBRANCH   1  24
TORSDOF 8
ENDMDL
MODEL 8
REMARK VINA RESULT:      -8.0      1.871      2.760
REMARK  8 active torsions:
REMARK  status: ('A' for Active; 'I' for Inactive)
REMARK    1  A    between atoms: C_2  and  C_3 
REMARK    2  A    between atoms: C_3  and  N_4 
REMARK    3  A    between atoms: N_4  and  C_5 
REMARK    4  A    between atoms: C_7  and  N_8 
REMARK    5  A    between atoms: N_8  and  C_9 
REMARK    6  A    between atoms: C_9  and  C_10 
REMARK    7  A    between atoms: C_10  and  C_11 
REMARK    8  A    between atoms: C_12  and  O_13 
ROOT
HETATM    1  C   UNL     1       7.868  24.474  53.942  1.00  0.00     0.119 A 
HETATM    2  N   UNL     1       7.904  25.286  55.017  1.00  0.00    -0.207 NA
HETATM    3  C   UNL     1       7.962  24.716  56.225  1.00  0.00     0.181 A 
HETATM    4  N   UNL     1       7.959  23.400  56.412  1.00  0.00    -0.330 N 
HETATM    5  H   UNL     1       7.927  23.071  57.367  1.00  0.00     0.168 HD
HETATM    6  C   UNL     1       7.958  22.552  55.380  1.00  0.00     0.048 A 
HETATM    7  C   UNL     1       7.922  23.069  54.071  1.00  0.00     0.031 A 
HETATM    8  C   UNL     1       7.994  21.168  55.606  1.00  0.00     0.030 A 
HETATM    9  C   UNL     1       8.011  20.282  54.530  1.00  0.00     0.002 A 
HETATM   10  C   UNL     1       7.991  20.773  53.227  1.00  0.00     0.001 A 
HETATM   11  C   UNL     1       7.948  22.149  52.996  1.00  0.00     0.017 A 
ENDROOT
BRANCH   3  12
HETATM   12  N   UNL     1       7.934  25.546  57.331  1.00  0.00    -0.262 NA
HETATM   13  H   UNL     1       7.032  25.371  57.787  1.00  0.00     0.130 HD
BRANCH  12  14
HETATM   14  C   UNL     1       8.174  26.979  57.121  1.00  0.00     0.100 C 
BRANCH  14  15
HETATM   15  C   UNL     1       7.011  27.849  57.616  1.00  0.00     0.056 C 
BRANCH  15  16
HETATM   16  C   UNL     1       6.037  28.419  56.602  1.00  0.00    -0.024 A 
HETATM   17  C   UNL     1       5.754  29.804  56.647  1.00  0.00     0.074 A 
HETATM   18  C   UNL     1       4.874  30.372  55.721  1.00  0.00     0.037 A 
HETATM   19  C   UNL     1       4.259  29.576  54.755  1.00  0.00     0.003 A 
HETATM   20  C   UNL     1       4.517  28.211  54.711  1.00  0.00     0.001 A 
HETATM   21  C   UNL     1       5.398  27.634  55.627  1.00  0.00     0.010 A 
BRANCH  17  22
HETATM   22  O   UNL     1       6.402  30.508  57.632  1.00  0.00    -0.355 OA
HETATM   23  C   UNL     1       5.907  31.809  57.931  1.00  0.00     0.210 C 
ENDBRANCH  17  22
ENDBRANCH  15  16
ENDBRANCH  14  15
ENDBRANCH  12  14
ENDBRANCH   3  12
BRANCH   1  24
HETATM   24  N   UNL     1       7.822  25.043  52.661  1.00  0.00    -0.277 NA
HETATM   25  H   UNL     1       7.751  24.319  51.948  1.00  0.00     0.129 HD
BRANCH  24  26
HETATM   26  C   UNL     1       6.834  26.101  52.444  1.00  0.00     0.093 C 
BRANCH  26  27
HETATM   27  C   UNL     1       5.561  25.511  51.832  1.00  0.00     0.010 C 
HETATM   28  C   UNL     1       4.621  24.922  52.875  1.00  0.00     0.006 C 
ENDBRANCH  26  27
ENDBRANCH  24  26
ENDBRANCH   1  24
TORSDOF 8
ENDMDL
MODEL 9
REMARK VINA RESULT:      -7.9      3.141      6.502
REMARK  8 active torsions:
REMARK  status: ('A' for Active; 'I' for Inactive)
REMARK    1  A    between atoms: C_2  and  C_3 
REMARK    2  A    between atoms: C_3  and  N_4 
REMARK    3  A    between atoms: N_4  and  C_5 
REMARK    4  A    between atoms: C_7  and  N_8 
REMARK    5  A    between atoms: N_8  and  C_9 
REMARK    6  A    between atoms: C_9  and  C_10 
REMARK    7  A    between atoms: C_10  and  C_11 
REMARK    8  A    between atoms: C_12  and  O_13 
ROOT
HETATM    1  C   UNL     1       7.330  23.884  55.260  1.00  0.00     0.119 A 
HETATM    2  N   UNL     1       7.043  24.772  54.288  1.00  0.00    -0.207 NA
HETATM    3  C   UNL     1       7.227  24.387  53.020  1.00  0.00     0.181 A 
HETATM    4  N   UNL     1       7.698  23.192  52.681  1.00  0.00    -0.330 N 
HETATM    5  H   UNL     1       7.873  23.027  51.700  1.00  0.00     0.168 HD
HETATM    6  C   UNL     1       7.966  22.264  53.604  1.00  0.00     0.048 A 
HETATM    7  C   UNL     1       7.777  22.578  54.964  1.00  0.00     0.031 A 
HETATM    8  C   UNL     1       8.426  20.996  53.215  1.00  0.00     0.030 A 
HETATM    9  C   UNL     1       8.689  20.022  54.177  1.00  0.00     0.002 A 
HETATM   10  C   UNL     1       8.494  20.307  55.525  1.00  0.00     0.001 A 
HETATM   11  C   UNL     1       8.044  21.568  55.918  1.00  0.00     0.017 A 
ENDROOT
BRANCH   3  12
HETATM   12  N   UNL     1       6.995  25.319  52.024  1.00  0.00    -0.262 NA
HETATM   13  H   UNL     1       7.871  25.383  51.494  1.00  0.00     0.130 HD
BRANCH  12  14
HETATM   14  C   UNL     1       6.497  26.641  52.422  1.00  0.00     0.100 C 
BRANCH  14  15
HETATM   15  C   UNL     1       5.131  26.966  51.802  1.00  0.00     0.056 C 
BRANCH  15  16
HETATM   16  C   UNL     1       5.039  27.185  50.303  1.00  0.00    -0.024 A 
HETATM   17  C   UNL     1       5.451  28.432  49.780  1.00  0.00     0.074 A 
HETATM   18  C   UNL     1       5.396  28.669  48.403  1.00  0.00     0.037 A 
HETATM   19  C   UNL     1       4.925  27.683  47.538  1.00  0.00     0.003 A 
HETATM   20  C   UNL     1       4.504  26.459  48.042  1.00  0.00     0.001 A 
HETATM   21  C   UNL     1       4.558  26.209  49.414  1.00  0.00     0.010 A 
BRANCH  17  22
HETATM   22  O   UNL     1       5.897  29.344  50.705  1.00  0.00    -0.355 OA
HETATM   23  C   UNL     1       5.240  30.605  50.742  1.00  0.00     0.210 C 
ENDBRANCH  17  22
ENDBRANCH  15  16
ENDBRANCH  14  15
ENDBRANCH  12  14
ENDBRANCH   3  12
BRANCH   1  24
HETATM   24  N   UNL     1       7.134  24.253  56.598  1.00  0.00    -0.277 NA
HETATM   25  H   UNL     1       6.939  23.436  57.173  1.00  0.00     0.129 HD
BRANCH  24  26
HETATM   26  C   UNL     1       8.163  25.098  57.207  1.00  0.00     0.093 C 
BRANCH  26  27
HETATM   27  C   UNL     1       7.549  26.424  57.662  1.00  0.00     0.010 C 
HETATM   28  C   UNL     1       7.656  27.518  56.609  1.00  0.00     0.006 C 
ENDBRANCH  26  27
ENDBRANCH  24  26
ENDBRANCH   1  24
TORSDOF 8
ENDMDL
MODEL 10
REMARK VINA RESULT:      -7.9      2.540      7.859
REMARK  8 active torsions:
REMARK  status: ('A' for Active; 'I' for Inactive)
REMARK    1  A    between atoms: C_2  and  C_3 
REMARK    2  A    between atoms: C_3  and  N_4 
REMARK    3  A    between atoms: N_4  and  C_5 
REMARK    4  A    between atoms: C_7  and  N_8 
REMARK    5  A    between atoms: N_8  and  C_9 
REMARK    6  A    between atoms: C_9  and  C_10 
REMARK    7  A    between atoms: C_10  and  C_11 
REMARK    8  A    between atoms: C_12  and  O_13 
ROOT
HETATM    1  C   UNL     1       6.786  29.928  57.399  1.00  0.00     0.119 A 
HETATM    2  N   UNL     1       6.138  29.244  56.436  1.00  0.00    -0.207 NA
HETATM    3  C   UNL     1       6.874  28.676  55.473  1.00  0.00     0.181 A 
HETATM    4  N   UNL     1       8.197  28.778  55.411  1.00  0.00    -0.330 N 
HETATM    5  H   UNL     1       8.652  28.378  54.602  1.00  0.00     0.168 HD
HETATM    6  C   UNL     1       8.890  29.417  56.358  1.00  0.00     0.048 A 
HETATM    7  C   UNL     1       8.194  30.023  57.422  1.00  0.00     0.031 A 
HETATM    8  C   UNL     1      10.290  29.475  56.287  1.00  0.00     0.030 A 
HETATM    9  C   UNL     1      11.015  30.126  57.284  1.00  0.00     0.002 A 
HETATM   10  C   UNL     1      10.348  30.719  58.352  1.00  0.00     0.001 A 
HETATM   11  C   UNL     1       8.955  30.670  58.424  1.00  0.00     0.017 A 
ENDROOT
BRANCH   3  12
HETATM   12  N   UNL     1       6.206  28.029  54.450  1.00  0.00    -0.262 NA
HETATM   13  H   UNL     1       5.492  27.450  54.906  1.00  0.00     0.130 HD
BRANCH  12  14
HETATM   14  C   UNL     1       7.004  27.258  53.487  1.00  0.00     0.100 C 
BRANCH  14  15
HETATM   15  C   UNL     1       6.340  25.929  53.103  1.00  0.00     0.056 C 
BRANCH  15  16
HETATM   16  C   UNL     1       6.986  24.630  53.546  1.00  0.00    -0.024 A 
HETATM   17  C   UNL     1       6.743  24.174  54.862  1.00  0.00     0.074 A 
HETATM   18  C   UNL     1       7.308  22.974  55.305  1.00  0.00     0.037 A 
HETATM   19  C   UNL     1       8.124  22.225  54.458  1.00  0.00     0.003 A 
HETATM   20  C   UNL     1       8.382  22.671  53.167  1.00  0.00     0.001 A 
HETATM   21  C   UNL     1       7.820  23.865  52.713  1.00  0.00     0.010 A 
BRANCH  17  22
HETATM   22  O   UNL     1       5.931  24.976  55.626  1.00  0.00    -0.355 OA
HETATM   23  C   UNL     1       6.386  25.299  56.936  1.00  0.00     0.210 C 
ENDBRANCH  17  22
ENDBRANCH  15  16
ENDBRANCH  14  15
ENDBRANCH  12  14
ENDBRANCH   3  12
BRANCH   1  24
HETATM   24  N   UNL     1       6.043  30.522  58.428  1.00  0.00    -0.277 NA
HETATM   25  H   UNL     1       6.616  30.647  59.261  1.00  0.00     0.129 HD
BRANCH  24  26
HETATM   26  C   UNL     1       5.316  31.748  58.096  1.00  0.00     0.093 C 
BRANCH  26  27
HETATM   27  C   UNL     1       5.437  32.755  59.242  1.00  0.00     0.010 C 
HETATM   28  C   UNL     1       6.381  32.290  60.342  1.00  0.00     0.006 C 
ENDBRANCH  26  27
ENDBRANCH  24  26
ENDBRANCH   1  24
TORSDOF 8
ENDMDL
