MODEL 1
REMARK VINA RESULT:      -9.6      0.000      0.000
REMARK  3 active torsions:
REMARK  status: ('A' for Active; 'I' for Inactive)
REMARK    1  A    between atoms: C_7  and  C_8 
REMARK       I    between atoms: C_8  and  N_9 
REMARK    2  A    between atoms: N_9  and  C_10 
REMARK    3  A    between atoms: C_11  and  O_12 
ROOT
HETATM    1  C   UNL     1       7.250  27.069  53.912  1.00  0.00     0.252 C 
HETATM    2  N   UNL     1       7.653  27.638  55.099  1.00  0.00    -0.346 N 
HETATM    3  O   UNL     1       6.720  27.720  53.017  1.00  0.00    -0.268 OA
HETATM    4  H   UNL     1       7.933  27.062  55.878  1.00  0.00     0.163 HD
ENDROOT
BRANCH   1   5
HETATM    5  C   UNL     1       7.477  25.602  53.741  1.00  0.00     0.033 A 
HETATM    6  C   UNL     1       7.497  25.092  52.438  1.00  0.00     0.019 A 
HETATM    7  C   UNL     1       7.748  23.739  52.187  1.00  0.00     0.031 A 
HETATM    8  C   UNL     1       7.983  22.911  53.290  1.00  0.00     0.043 A 
HETATM    9  C   UNL     1       7.972  23.376  54.603  1.00  0.00    -0.001 A 
HETATM   10  N   UNL     1       8.269  21.568  53.337  1.00  0.00    -0.359 N 
HETATM   11  C   UNL     1       8.249  22.257  55.456  1.00  0.00    -0.027 A 
HETATM   12  C   UNL     1       7.721  24.748  54.831  1.00  0.00     0.031 A 
HETATM   13  C   UNL     1       8.327  22.262  56.942  1.00  0.00     0.051 C 
HETATM   14  C   UNL     1       8.437  21.156  54.636  1.00  0.00     0.012 A 
HETATM   15  C   UNL     1       8.769  19.748  54.970  1.00  0.00     0.068 C 
HETATM   16  H   UNL     1       8.353  20.975  52.523  1.00  0.00     0.166 HD
ENDBRANCH   1   5
BRANCH   2  17
HETATM   17  C   UNL     1       7.518  29.062  55.330  1.00  0.00     0.147 C 
HETATM   18  C   UNL     1       6.224  29.449  56.107  1.00  0.00     0.149 C 
HETATM   19  C   UNL     1       6.587  29.440  57.606  1.00  0.00     0.073 C 
HETATM   20  C   UNL     1       8.056  29.743  57.567  1.00  0.00    -0.047 A 
HETATM   21  C   UNL     1       8.582  29.527  56.287  1.00  0.00    -0.027 A 
HETATM   22  C   UNL     1       8.871  30.140  58.613  1.00  0.00     0.008 A 
HETATM   23  C   UNL     1       9.933  29.705  56.030  1.00  0.00     0.010 A 
HETATM   24  C   UNL     1      10.759  30.115  57.076  1.00  0.00     0.001 A 
HETATM   25  C   UNL     1      10.232  30.331  58.359  1.00  0.00     0.001 A 
BRANCH  18  26
HETATM   26  O   UNL     1       5.773  30.766  55.742  1.00  0.00    -0.393 OA
HETATM   27  H   UNL     1       6.070  31.381  56.435  1.00  0.00     0.210 HD
ENDBRANCH  18  26
ENDBRANCH   2  17
TORSDOF 3
ENDMDL
MODEL 2
REMARK VINA RESULT:      -9.4      2.202      7.510
REMARK  3 active torsions:
REMARK  status: ('A' for Active; 'I' for Inactive)
REMARK    1  A    between atoms: C_7  and  C_8 
REMARK       I    between atoms: C_8  and  N_9 
REMARK    2  A    between atoms: N_9  and  C_10 
REMARK    3  A    between atoms: C_11  and  O_12 
ROOT
HETATM    1  C   UNL     1       5.667  26.670  55.977  1.00  0.00     0.252 C 
HETATM    2  N   UNL     1       6.033  26.426  54.672  1.00  0.00    -0.346 N 
HETATM    3  O   UNL     1       4.909  25.932  56.596  1.00  0.00    -0.268 OA
HETATM    4  H   UNL     1       6.521  27.125  54.133  1.00  0.00     0.163 HD
ENDROOT
BRANCH   1   5
HETATM    5  C   UNL     1       6.229  27.890  56.630  1.00  0.00     0.033 A 
HETATM    6  C   UNL     1       5.336  28.758  57.270  1.00  0.00     0.019 A 
HETATM    7  C   UNL     1       5.784  29.899  57.944  1.00  0.00     0.031 A 
HETATM    8  C   UNL     1       7.161  30.141  57.960  1.00  0.00     0.043 A 
HETATM    9  C   UNL     1       8.085  29.306  57.336  1.00  0.00    -0.001 A 
HETATM   10  N   UNL     1       7.870  31.160  58.551  1.00  0.00    -0.359 N 
HETATM   11  C   UNL     1       9.387  29.864  57.559  1.00  0.00    -0.027 A 
HETATM   12  C   UNL     1       7.609  28.156  56.665  1.00  0.00     0.031 A 
HETATM   13  C   UNL     1      10.686  29.327  57.071  1.00  0.00     0.051 C 
HETATM   14  C   UNL     1       9.214  31.006  58.324  1.00  0.00     0.012 A 
HETATM   15  C   UNL     1      10.211  31.965  58.866  1.00  0.00     0.068 C 
HETATM   16  H   UNL     1       7.451  31.907  59.087  1.00  0.00     0.166 HD
ENDBRANCH   1   5
BRANCH   2  17
HETATM   17  C   UNL     1       5.576  25.239  53.976  1.00  0.00     0.147 C 
HETATM   18  C   UNL     1       5.483  25.418  52.431  1.00  0.00     0.149 C 
HETATM   19  C   UNL     1       6.847  24.994  51.852  1.00  0.00     0.073 C 
HETATM   20  C   UNL     1       7.326  24.015  52.883  1.00  0.00    -0.047 A 
HETATM   21  C   UNL     1       6.615  24.155  54.081  1.00  0.00    -0.027 A 
HETATM   22  C   UNL     1       8.357  23.097  52.771  1.00  0.00     0.008 A 
HETATM   23  C   UNL     1       6.919  23.378  55.189  1.00  0.00     0.010 A 
HETATM   24  C   UNL     1       7.948  22.444  55.080  1.00  0.00     0.001 A 
HETATM   25  C   UNL     1       8.662  22.303  53.880  1.00  0.00     0.001 A 
BRANCH  18  26
HETATM   26  O   UNL     1       4.455  24.581  51.873  1.00  0.00    -0.393 OA
HETATM   27  H   UNL     1       4.134  25.012  51.061  1.00  0.00     0.210 HD
ENDBRANCH  18  26
ENDBRANCH   2  17
TORSDOF 3
ENDMDL
MODEL 3
REMARK VINA RESULT:      -9.0      5.643      8.230
REMARK  3 active torsions:
REMARK  status: ('A' for Active; 'I' for Inactive)
REMARK    1  A    between atoms: C_7  and  C_8 
REMARK       I    between atoms: C_8  and  N_9 
REMARK    2  A    between atoms: N_9  and  C_10 
REMARK    3  A    between atoms: C_11  and  O_12 
ROOT
HETATM    1  C   UNL     1       5.216  27.531  50.640  1.00  0.00     0.252 C 
HETATM    2  N   UNL     1       5.500  26.500  51.506  1.00  0.00    -0.346 N 
HETATM    3  O   UNL     1       5.725  28.641  50.750  1.00  0.00    -0.268 OA
HETATM    4  H   UNL     1       4.952  25.654  51.499  1.00  0.00     0.163 HD
ENDROOT
BRANCH   1   5
HETATM    5  C   UNL     1       4.243  27.255  49.540  1.00  0.00     0.033 A 
HETATM    6  C   UNL     1       4.291  25.998  48.927  1.00  0.00     0.019 A 
HETATM    7  C   UNL     1       3.388  25.641  47.920  1.00  0.00     0.031 A 
HETATM    8  C   UNL     1       2.429  26.589  47.548  1.00  0.00     0.043 A 
HETATM    9  C   UNL     1       2.346  27.852  48.130  1.00  0.00    -0.001 A 
HETATM   10  N   UNL     1       1.423  26.505  46.616  1.00  0.00    -0.359 N 
HETATM   11  C   UNL     1       1.255  28.541  47.505  1.00  0.00    -0.027 A 
HETATM   12  C   UNL     1       3.266  28.187  49.149  1.00  0.00     0.031 A 
HETATM   13  C   UNL     1       0.792  29.927  47.787  1.00  0.00     0.051 C 
HETATM   14  C   UNL     1       0.702  27.672  46.578  1.00  0.00     0.012 A 
HETATM   15  C   UNL     1      -0.456  27.843  45.664  1.00  0.00     0.068 C 
HETATM   16  H   UNL     1       1.240  25.689  46.049  1.00  0.00     0.166 HD
ENDBRANCH   1   5
BRANCH   2  17
HETATM   17  C   UNL     1       6.470  26.663  52.572  1.00  0.00     0.147 C 
HETATM   18  C   UNL     1       5.851  27.176  53.907  1.00  0.00     0.149 C 
HETATM   19  C   UNL     1       5.458  25.928  54.722  1.00  0.00     0.073 C 
HETATM   20  C   UNL     1       6.429  24.907  54.206  1.00  0.00    -0.047 A 
HETATM   21  C   UNL     1       6.996  25.317  52.993  1.00  0.00    -0.027 A 
HETATM   22  C   UNL     1       6.745  23.678  54.759  1.00  0.00     0.008 A 
HETATM   23  C   UNL     1       7.892  24.507  52.312  1.00  0.00     0.010 A 
HETATM   24  C   UNL     1       8.225  23.273  52.869  1.00  0.00     0.001 A 
HETATM   25  C   UNL     1       7.656  22.860  54.084  1.00  0.00     0.001 A 
BRANCH  18  26
HETATM   26  O   UNL     1       6.805  27.947  54.659  1.00  0.00    -0.393 OA
HETATM   27  H   UNL     1       6.856  28.830  54.252  1.00  0.00     0.210 HD
ENDBRANCH  18  26
ENDBRANCH   2  17
TORSDOF 3
ENDMDL
MODEL 4
REMARK VINA RESULT:      -8.9      5.407     10.543
REMARK  3 active torsions:
REMARK  status: ('A' for Active; 'I' for Inactive)
REMARK    1  A    between atoms: C_7  and  C_8 
REMARK       I    between atoms: C_8  and  N_9 
REMARK    2  A    between atoms: N_9  and  C_10 
REMARK    3  A    between atoms: C_11  and  O_12 
ROOT
HETATM    1  C   UNL     1       7.832  32.034  60.053  1.00  0.00     0.252 C 
HETATM    2  N   UNL     1       7.141  31.040  59.398  1.00  0.00    -0.346 N 
HETATM    3  O   UNL     1       8.789  32.611  59.548  1.00  0.00    -0.268 OA
HETATM    4  H   UNL     1       6.468  30.470  59.888  1.00  0.00     0.163 HD
ENDROOT
BRANCH   1   5
HETATM    5  C   UNL     1       7.375  32.396  61.428  1.00  0.00     0.033 A 
HETATM    6  C   UNL     1       8.316  32.345  62.463  1.00  0.00     0.019 A 
HETATM    7  C   UNL     1       7.983  32.711  63.771  1.00  0.00     0.031 A 
HETATM    8  C   UNL     1       6.672  33.134  64.009  1.00  0.00     0.043 A 
HETATM    9  C   UNL     1       5.703  33.199  63.011  1.00  0.00    -0.001 A 
HETATM   10  N   UNL     1       6.082  33.562  65.175  1.00  0.00    -0.359 N 
HETATM   11  C   UNL     1       4.493  33.671  63.617  1.00  0.00    -0.027 A 
HETATM   12  C   UNL     1       6.064  32.829  61.695  1.00  0.00     0.031 A 
HETATM   13  C   UNL     1       3.181  33.887  62.948  1.00  0.00     0.051 C 
HETATM   14  C   UNL     1       4.769  33.894  64.957  1.00  0.00     0.012 A 
HETATM   15  C   UNL     1       3.901  34.401  66.051  1.00  0.00     0.068 C 
HETATM   16  H   UNL     1       6.561  33.630  66.062  1.00  0.00     0.166 HD
ENDBRANCH   1   5
BRANCH   2  17
HETATM   17  C   UNL     1       7.482  30.659  58.042  1.00  0.00     0.147 C 
HETATM   18  C   UNL     1       8.480  29.465  57.960  1.00  0.00     0.149 C 
HETATM   19  C   UNL     1       7.630  28.180  57.897  1.00  0.00     0.073 C 
HETATM   20  C   UNL     1       6.362  28.682  57.271  1.00  0.00    -0.047 A 
HETATM   21  C   UNL     1       6.276  30.077  57.356  1.00  0.00    -0.027 A 
HETATM   22  C   UNL     1       5.338  27.939  56.709  1.00  0.00     0.008 A 
HETATM   23  C   UNL     1       5.164  30.756  56.878  1.00  0.00     0.010 A 
HETATM   24  C   UNL     1       4.134  30.014  56.299  1.00  0.00     0.001 A 
HETATM   25  C   UNL     1       4.220  28.616  56.215  1.00  0.00     0.001 A 
BRANCH  18  26
HETATM   26  O   UNL     1       9.293  29.548  56.777  1.00  0.00    -0.393 OA
HETATM   27  H   UNL     1      10.096  29.019  56.933  1.00  0.00     0.210 HD
ENDBRANCH  18  26
ENDBRANCH   2  17
TORSDOF 3
ENDMDL
MODEL 5
REMARK VINA RESULT:      -8.8      3.793      7.512
REMARK  3 active torsions:
REMARK  status: ('A' for Active; 'I' for Inactive)
REMARK    1  A    between atoms: C_7  and  C_8 
REMARK       I    between atoms: C_8  and  N_9 
REMARK    2  A    between atoms: N_9  and  C_10 
REMARK    3  A    between atoms: C_11  and  O_12 
ROOT
HETATM    1  C   UNL     1       7.332  25.751  52.843  1.00  0.00     0.252 C 
HETATM    2  N   UNL     1       7.210  25.270  54.127  1.00  0.00    -0.346 N 
HETATM    3  O   UNL     1       8.367  25.640  52.194  1.00  0.00    -0.268 OA
HETATM    4  H   UNL     1       6.415  25.515  54.697  1.00  0.00     0.163 HD
ENDROOT
BRANCH   1   5
HETATM    5  C   UNL     1       6.143  26.434  52.250  1.00  0.00     0.033 A 
HETATM    6  C   UNL     1       5.383  27.263  53.084  1.00  0.00     0.019 A 
HETATM    7  C   UNL     1       4.281  27.974  52.598  1.00  0.00     0.031 A 
HETATM    8  C   UNL     1       3.965  27.828  51.244  1.00  0.00     0.043 A 
HETATM    9  C   UNL     1       4.691  27.013  50.379  1.00  0.00    -0.001 A 
HETATM   10  N   UNL     1       2.962  28.411  50.505  1.00  0.00    -0.359 N 
HETATM   11  C   UNL     1       4.083  27.111  49.084  1.00  0.00    -0.027 A 
HETATM   12  C   UNL     1       5.804  26.309  50.891  1.00  0.00     0.031 A 
HETATM   13  C   UNL     1       4.502  26.407  47.842  1.00  0.00     0.051 C 
HETATM   14  C   UNL     1       3.020  27.994  49.199  1.00  0.00     0.012 A 
HETATM   15  C   UNL     1       2.057  28.484  48.181  1.00  0.00     0.068 C 
HETATM   16  H   UNL     1       2.287  29.064  50.879  1.00  0.00     0.166 HD
ENDBRANCH   1   5
BRANCH   2  17
HETATM   17  C   UNL     1       8.296  24.550  54.762  1.00  0.00     0.147 C 
HETATM   18  C   UNL     1       8.200  24.521  56.318  1.00  0.00     0.149 C 
HETATM   19  C   UNL     1       7.404  23.254  56.690  1.00  0.00     0.073 C 
HETATM   20  C   UNL     1       7.697  22.355  55.524  1.00  0.00    -0.047 A 
HETATM   21  C   UNL     1       8.196  23.084  54.438  1.00  0.00    -0.027 A 
HETATM   22  C   UNL     1       7.489  20.990  55.430  1.00  0.00     0.008 A 
HETATM   23  C   UNL     1       8.496  22.461  53.236  1.00  0.00     0.010 A 
HETATM   24  C   UNL     1       8.300  21.084  53.137  1.00  0.00     0.001 A 
HETATM   25  C   UNL     1       7.799  20.353  54.225  1.00  0.00     0.001 A 
BRANCH  18  26
HETATM   26  O   UNL     1       9.506  24.448  56.917  1.00  0.00    -0.393 OA
HETATM   27  H   UNL     1      10.147  24.270  56.205  1.00  0.00     0.210 HD
ENDBRANCH  18  26
ENDBRANCH   2  17
TORSDOF 3
ENDMDL
MODEL 6
REMARK VINA RESULT:      -8.7      1.580      2.455
REMARK  3 active torsions:
REMARK  status: ('A' for Active; 'I' for Inactive)
REMARK    1  A    between atoms: C_7  and  C_8 
REMARK       I    between atoms: C_8  and  N_9 
REMARK    2  A    between atoms: N_9  and  C_10 
REMARK    3  A    between atoms: C_11  and  O_12 
ROOT
HETATM    1  C   UNL     1       7.461  27.437  55.659  1.00  0.00     0.252 C 
HETATM    2  N   UNL     1       7.719  28.337  56.667  1.00  0.00    -0.346 N 
HETATM    3  O   UNL     1       6.961  27.771  54.591  1.00  0.00    -0.268 OA
HETATM    4  H   UNL     1       7.975  28.020  57.590  1.00  0.00     0.163 HD
ENDROOT
BRANCH   1   5
HETATM    5  C   UNL     1       7.810  26.006  55.911  1.00  0.00     0.033 A 
HETATM    6  C   UNL     1       8.191  25.646  57.209  1.00  0.00     0.019 A 
HETATM    7  C   UNL     1       8.491  24.320  57.540  1.00  0.00     0.031 A 
HETATM    8  C   UNL     1       8.393  23.363  56.525  1.00  0.00     0.043 A 
HETATM    9  C   UNL     1       8.020  23.677  55.220  1.00  0.00    -0.001 A 
HETATM   10  N   UNL     1       8.608  22.006  56.570  1.00  0.00    -0.359 N 
HETATM   11  C   UNL     1       8.029  22.457  54.467  1.00  0.00    -0.027 A 
HETATM   12  C   UNL     1       7.717  25.022  54.911  1.00  0.00     0.031 A 
HETATM   13  C   UNL     1       7.712  22.296  53.022  1.00  0.00     0.051 C 
HETATM   14  C   UNL     1       8.390  21.442  55.339  1.00  0.00     0.012 A 
HETATM   15  C   UNL     1       8.539  19.982  55.112  1.00  0.00     0.068 C 
HETATM   16  H   UNL     1       8.880  21.501  57.402  1.00  0.00     0.166 HD
ENDBRANCH   1   5
BRANCH   2  17
HETATM   17  C   UNL     1       7.460  29.753  56.492  1.00  0.00     0.147 C 
HETATM   18  C   UNL     1       5.948  30.124  56.559  1.00  0.00     0.149 C 
HETATM   19  C   UNL     1       5.637  30.451  58.033  1.00  0.00     0.073 C 
HETATM   20  C   UNL     1       6.973  30.917  58.532  1.00  0.00    -0.047 A 
HETATM   21  C   UNL     1       8.000  30.521  57.668  1.00  0.00    -0.027 A 
HETATM   22  C   UNL     1       7.252  31.605  59.701  1.00  0.00     0.008 A 
HETATM   23  C   UNL     1       9.327  30.807  57.954  1.00  0.00     0.010 A 
HETATM   24  C   UNL     1       9.615  31.510  59.124  1.00  0.00     0.001 A 
HETATM   25  C   UNL     1       8.585  31.907  59.991  1.00  0.00     0.001 A 
BRANCH  18  26
HETATM   26  O   UNL     1       5.661  31.279  55.751  1.00  0.00    -0.393 OA
HETATM   27  H   UNL     1       4.918  31.050  55.164  1.00  0.00     0.210 HD
ENDBRANCH  18  26
ENDBRANCH   2  17
TORSDOF 3
ENDMDL
MODEL 7
REMARK VINA RESULT:      -8.6      2.476      3.854
REMARK  3 active torsions:
REMARK  status: ('A' for Active; 'I' for Inactive)
REMARK    1  A    between atoms: C_7  and  C_8 
REMARK       I    between atoms: C_8  and  N_9 
REMARK    2  A    between atoms: N_9  and  C_10 
REMARK    3  A    between atoms: C_11  and  O_12 
ROOT
HETATM    1  C   UNL     1       7.259  29.254  56.734  1.00  0.00     0.252 C 
HETATM    2  N   UNL     1       7.463  29.778  57.991  1.00  0.00    -0.346 N 
HETATM    3  O   UNL     1       6.978  29.955  55.768  1.00  0.00    -0.268 OA
HETATM    4  H   UNL     1       7.530  29.175  58.797  1.00  0.00     0.163 HD
ENDROOT
BRANCH   1   5
HETATM    5  C   UNL     1       7.388  27.774  56.578  1.00  0.00     0.033 A 
HETATM    6  C   UNL     1       7.378  26.993  57.740  1.00  0.00     0.019 A 
HETATM    7  C   UNL     1       7.450  25.596  57.680  1.00  0.00     0.031 A 
HETATM    8  C   UNL     1       7.528  25.007  56.415  1.00  0.00     0.043 A 
HETATM    9  C   UNL     1       7.542  25.746  55.234  1.00  0.00    -0.001 A 
HETATM   10  N   UNL     1       7.590  23.680  56.063  1.00  0.00    -0.359 N 
HETATM   11  C   UNL     1       7.629  24.815  54.147  1.00  0.00    -0.027 A 
HETATM   12  C   UNL     1       7.464  27.155  55.319  1.00  0.00     0.031 A 
HETATM   13  C   UNL     1       7.687  25.138  52.695  1.00  0.00     0.051 C 
HETATM   14  C   UNL     1       7.647  23.545  54.699  1.00  0.00     0.012 A 
HETATM   15  C   UNL     1       7.707  22.210  54.050  1.00  0.00     0.068 C 
HETATM   16  H   UNL     1       7.583  22.916  56.725  1.00  0.00     0.166 HD
ENDBRANCH   1   5
BRANCH   2  17
HETATM   17  C   UNL     1       7.408  31.208  58.224  1.00  0.00     0.147 C 
HETATM   18  C   UNL     1       5.961  31.756  58.404  1.00  0.00     0.149 C 
HETATM   19  C   UNL     1       5.649  31.697  59.914  1.00  0.00     0.073 C 
HETATM   20  C   UNL     1       7.019  31.809  60.514  1.00  0.00    -0.047 A 
HETATM   21  C   UNL     1       8.010  31.530  59.565  1.00  0.00    -0.027 A 
HETATM   22  C   UNL     1       7.352  32.095  61.827  1.00  0.00     0.008 A 
HETATM   23  C   UNL     1       9.354  31.532  59.911  1.00  0.00     0.010 A 
HETATM   24  C   UNL     1       9.697  31.831  61.230  1.00  0.00     0.001 A 
HETATM   25  C   UNL     1       8.704  32.110  62.181  1.00  0.00     0.001 A 
BRANCH  18  26
HETATM   26  O   UNL     1       5.863  33.120  57.958  1.00  0.00    -0.393 OA
HETATM   27  H   UNL     1       5.367  33.121  57.120  1.00  0.00     0.210 HD
ENDBRANCH  18  26
ENDBRANCH   2  17
TORSDOF 3
ENDMDL
MODEL 8
REMARK VINA RESULT:      -8.6      4.761      7.652
REMARK  3 active torsions:
REMARK  status: ('A' for Active; 'I' for Inactive)
REMARK    1  A    between atoms: C_7  and  C_8 
REMARK       I    between atoms: C_8  and  N_9 
REMARK    2  A    between atoms: N_9  and  C_10 
REMARK    3  A    between atoms: C_11  and  O_12 
ROOT
HETATM    1  C   UNL     1       5.632  27.967  52.089  1.00  0.00     0.252 C 
HETATM    2  N   UNL     1       5.812  26.767  52.739  1.00  0.00    -0.346 N 
HETATM    3  O   UNL     1       6.398  28.914  52.233  1.00  0.00    -0.268 OA
HETATM    4  H   UNL     1       5.089  26.064  52.736  1.00  0.00     0.163 HD
ENDROOT
BRANCH   1   5
HETATM    5  C   UNL     1       4.448  28.088  51.187  1.00  0.00     0.033 A 
HETATM    6  C   UNL     1       3.520  29.099  51.460  1.00  0.00     0.019 A 
HETATM    7  C   UNL     1       2.406  29.310  50.640  1.00  0.00     0.031 A 
HETATM    8  C   UNL     1       2.255  28.473  49.530  1.00  0.00     0.043 A 
HETATM    9  C   UNL     1       3.153  27.454  49.221  1.00  0.00    -0.001 A 
HETATM   10  N   UNL     1       1.282  28.465  48.559  1.00  0.00    -0.359 N 
HETATM   11  C   UNL     1       2.681  26.813  48.028  1.00  0.00    -0.027 A 
HETATM   12  C   UNL     1       4.273  27.263  50.062  1.00  0.00     0.031 A 
HETATM   13  C   UNL     1       3.304  25.659  47.324  1.00  0.00     0.051 C 
HETATM   14  C   UNL     1       1.524  27.473  47.642  1.00  0.00     0.012 A 
HETATM   15  C   UNL     1       0.630  27.253  46.477  1.00  0.00     0.068 C 
HETATM   16  H   UNL     1       0.506  29.110  48.527  1.00  0.00     0.166 HD
ENDBRANCH   1   5
BRANCH   2  17
HETATM   17  C   UNL     1       6.962  26.543  53.594  1.00  0.00     0.147 C 
HETATM   18  C   UNL     1       6.672  26.786  55.105  1.00  0.00     0.149 C 
HETATM   19  C   UNL     1       6.220  25.434  55.693  1.00  0.00     0.073 C 
HETATM   20  C   UNL     1       6.905  24.459  54.781  1.00  0.00    -0.047 A 
HETATM   21  C   UNL     1       7.319  25.081  53.597  1.00  0.00    -0.027 A 
HETATM   22  C   UNL     1       7.100  23.103  54.978  1.00  0.00     0.008 A 
HETATM   23  C   UNL     1       7.938  24.359  52.588  1.00  0.00     0.010 A 
HETATM   24  C   UNL     1       8.149  22.994  52.784  1.00  0.00     0.001 A 
HETATM   25  C   UNL     1       7.733  22.370  53.970  1.00  0.00     0.001 A 
BRANCH  18  26
HETATM   26  O   UNL     1       7.855  27.225  55.796  1.00  0.00    -0.393 OA
HETATM   27  H   UNL     1       7.960  26.665  56.586  1.00  0.00     0.210 HD
ENDBRANCH  18  26
ENDBRANCH   2  17
TORSDOF 3
ENDMDL
MODEL 9
REMARK VINA RESULT:      -8.4      4.084      7.553
REMARK  3 active torsions:
REMARK  status: ('A' for Active; 'I' for Inactive)
REMARK    1  A    between atoms: C_7  and  C_8 
REMARK       I    between atoms: C_8  and  N_9 
REMARK    2  A    between atoms: N_9  and  C_10 
REMARK    3  A    between atoms: C_11  and  O_12 
ROOT
HETATM    1  C   UNL     1       5.339  25.166  52.612  1.00  0.00     0.252 C 
HETATM    2  N   UNL     1       6.557  24.537  52.729  1.00  0.00    -0.346 N 
HETATM    3  O   UNL     1       4.326  24.745  53.160  1.00  0.00    -0.268 OA
HETATM    4  H   UNL     1       7.334  24.803  52.143  1.00  0.00     0.163 HD
ENDROOT
BRANCH   1   5
HETATM    5  C   UNL     1       5.282  26.402  51.774  1.00  0.00     0.033 A 
HETATM    6  C   UNL     1       5.708  27.603  52.353  1.00  0.00     0.019 A 
HETATM    7  C   UNL     1       5.730  28.797  51.624  1.00  0.00     0.031 A 
HETATM    8  C   UNL     1       5.311  28.747  50.291  1.00  0.00     0.043 A 
HETATM    9  C   UNL     1       4.878  27.575  49.675  1.00  0.00    -0.001 A 
HETATM   10  N   UNL     1       5.247  29.748  49.350  1.00  0.00    -0.359 N 
HETATM   11  C   UNL     1       4.532  27.904  48.323  1.00  0.00    -0.027 A 
HETATM   12  C   UNL     1       4.870  26.380  50.430  1.00  0.00     0.031 A 
HETATM   13  C   UNL     1       4.005  26.978  47.284  1.00  0.00     0.051 C 
HETATM   14  C   UNL     1       4.782  29.257  48.156  1.00  0.00     0.012 A 
HETATM   15  C   UNL     1       4.629  30.127  46.963  1.00  0.00     0.068 C 
HETATM   16  H   UNL     1       5.515  30.707  49.521  1.00  0.00     0.166 HD
ENDBRANCH   1   5
BRANCH   2  17
HETATM   17  C   UNL     1       6.716  23.362  53.563  1.00  0.00     0.147 C 
HETATM   18  C   UNL     1       7.839  22.397  53.075  1.00  0.00     0.149 C 
HETATM   19  C   UNL     1       9.137  22.833  53.783  1.00  0.00     0.073 C 
HETATM   20  C   UNL     1       8.605  23.460  55.039  1.00  0.00    -0.047 A 
HETATM   21  C   UNL     1       7.244  23.762  54.914  1.00  0.00    -0.027 A 
HETATM   22  C   UNL     1       9.303  23.779  56.191  1.00  0.00     0.008 A 
HETATM   23  C   UNL     1       6.553  24.388  55.941  1.00  0.00     0.010 A 
HETATM   24  C   UNL     1       7.246  24.702  57.110  1.00  0.00     0.001 A 
HETATM   25  C   UNL     1       8.611  24.400  57.235  1.00  0.00     0.001 A 
BRANCH  18  26
HETATM   26  O   UNL     1       7.544  21.035  53.432  1.00  0.00    -0.393 OA
HETATM   27  H   UNL     1       7.296  20.564  52.617  1.00  0.00     0.210 HD
ENDBRANCH  18  26
ENDBRANCH   2  17
TORSDOF 3
ENDMDL
MODEL 10
REMARK VINA RESULT:      -8.3      3.692      5.060
REMARK  3 active torsions:
REMARK  status: ('A' for Active; 'I' for Inactive)
REMARK    1  A    between atoms: C_7  and  C_8 
REMARK       I    between atoms: C_8  and  N_9 
REMARK    2  A    between atoms: N_9  and  C_10 
REMARK    3  A    between atoms: C_11  and  O_12 
ROOT
HETATM    1  C   UNL     1       5.294  25.928  52.052  1.00  0.00     0.252 C 
HETATM    2  N   UNL     1       4.843  27.176  52.416  1.00  0.00    -0.346 N 
HETATM    3  O   UNL     1       4.931  25.372  51.021  1.00  0.00    -0.268 OA
HETATM    4  H   UNL     1       5.023  27.542  53.338  1.00  0.00     0.163 HD
ENDROOT
BRANCH   1   5
HETATM    5  C   UNL     1       6.256  25.251  52.973  1.00  0.00     0.033 A 
HETATM    6  C   UNL     1       6.783  26.000  54.031  1.00  0.00     0.019 A 
HETATM    7  C   UNL     1       7.656  25.430  54.965  1.00  0.00     0.031 A 
HETATM    8  C   UNL     1       7.981  24.080  54.805  1.00  0.00     0.043 A 
HETATM    9  C   UNL     1       7.481  23.297  53.766  1.00  0.00    -0.001 A 
HETATM   10  N   UNL     1       8.786  23.270  55.571  1.00  0.00    -0.359 N 
HETATM   11  C   UNL     1       8.025  21.980  53.921  1.00  0.00    -0.027 A 
HETATM   12  C   UNL     1       6.597  23.894  52.838  1.00  0.00     0.031 A 
HETATM   13  C   UNL     1       7.787  20.804  53.041  1.00  0.00     0.051 C 
HETATM   14  C   UNL     1       8.821  21.999  55.055  1.00  0.00     0.012 A 
HETATM   15  C   UNL     1       9.609  20.918  55.701  1.00  0.00     0.068 C 
HETATM   16  H   UNL     1       9.272  23.576  56.402  1.00  0.00     0.166 HD
ENDBRANCH   1   5
BRANCH   2  17
HETATM   17  C   UNL     1       3.948  27.928  51.558  1.00  0.00     0.147 C 
HETATM   18  C   UNL     1       2.828  28.684  52.334  1.00  0.00     0.149 C 
HETATM   19  C   UNL     1       3.380  30.087  52.656  1.00  0.00     0.073 C 
HETATM   20  C   UNL     1       4.365  30.291  51.544  1.00  0.00    -0.047 A 
HETATM   21  C   UNL     1       4.689  29.076  50.927  1.00  0.00    -0.027 A 
HETATM   22  C   UNL     1       4.964  31.474  51.144  1.00  0.00     0.008 A 
HETATM   23  C   UNL     1       5.617  29.021  49.898  1.00  0.00     0.010 A 
HETATM   24  C   UNL     1       6.216  30.210  49.482  1.00  0.00     0.001 A 
HETATM   25  C   UNL     1       5.892  31.428  50.099  1.00  0.00     0.001 A 
BRANCH  18  26
HETATM   26  O   UNL     1       1.641  28.819  51.532  1.00  0.00    -0.393 OA
HETATM   27  H   UNL     1       1.119  28.004  51.639  1.00  0.00     0.210 HD
ENDBRANCH  18  26
ENDBRANCH   2  17
TORSDOF 3
ENDMDL
