MODEL 1
REMARK VINA RESULT:      -9.4      0.000      0.000
REMARK  4 active torsions:
REMARK  status: ('A' for Active; 'I' for Inactive)
REMARK    1  A    between atoms: C_2  and  C_3 
REMARK    2  A    between atoms: C_7  and  N_8 
REMARK       I    between atoms: N_8  and  C_9 
REMARK    3  A    between atoms: C_9  and  C_10 
REMARK    4  A    between atoms: C_12  and  C_13 
ROOT
HETATM    1  C   UNL     1       8.362  29.804  58.429  1.00  0.00     0.149 A 
HETATM    2  N   UNL     1       7.664  28.624  58.211  1.00  0.00    -0.223 NA
HETATM    3  C   UNL     1       8.385  27.903  57.370  1.00  0.00     0.139 A 
HETATM    4  N   UNL     1       9.525  28.596  57.030  1.00  0.00    -0.342 N 
HETATM    5  H   UNL     1      10.241  28.273  56.396  1.00  0.00     0.167 HD
HETATM    6  C   UNL     1       9.531  29.798  57.692  1.00  0.00     0.041 A 
HETATM    7  C   UNL     1      10.622  30.790  57.560  1.00  0.00     0.071 C 
ENDROOT
BRANCH   1   8
HETATM    8  C   UNL     1       7.872  30.854  59.326  1.00  0.00     0.278 C 
HETATM    9  N   UNL     1       7.962  30.479  60.653  1.00  0.00    -0.306 N 
HETATM   10  H   UNL     1       8.338  29.553  60.840  1.00  0.00     0.170 HD
HETATM   11  O   UNL     1       7.440  31.936  58.929  1.00  0.00    -0.265 OA
BRANCH   9  12
HETATM   12  C   UNL     1       7.589  31.305  61.690  1.00  0.00     0.126 A 
HETATM   13  N   UNL     1       6.292  31.622  61.998  1.00  0.00    -0.262 N 
HETATM   14  N   UNL     1       6.176  32.461  63.043  1.00  0.00    -0.178 NA
HETATM   15  H   UNL     1       5.456  31.297  61.521  1.00  0.00     0.191 HD
HETATM   16  C   UNL     1       7.443  32.679  63.420  1.00  0.00     0.058 A 
HETATM   17  C   UNL     1       8.364  31.975  62.604  1.00  0.00     0.079 A 
BRANCH  16  18
HETATM   18  C   UNL     1       7.744  33.581  64.569  1.00  0.00     0.056 C 
HETATM   19  C   UNL     1       6.540  33.789  65.475  1.00  0.00     0.011 C 
ENDBRANCH  16  18
ENDBRANCH   9  12
ENDBRANCH   1   8
BRANCH   3  20
HETATM   20  C   UNL     1       8.034  26.570  56.865  1.00  0.00     0.012 A 
HETATM   21  C   UNL     1       7.129  26.462  55.796  1.00  0.00     0.039 A 
HETATM   22  C   UNL     1       6.768  25.213  55.292  1.00  0.00     0.035 A 
HETATM   23 CL   UNL     1       5.657  25.109  53.982  1.00  0.00    -0.084 Cl
HETATM   24  C   UNL     1       7.299  24.049  55.840  1.00  0.00     0.024 A 
HETATM   25  C   UNL     1       8.197  24.137  56.902  1.00  0.00     0.003 A 
HETATM   26  C   UNL     1       8.562  25.389  57.411  1.00  0.00     0.015 A 
ENDBRANCH   3  20
TORSDOF 4
ENDMDL
MODEL 2
REMARK VINA RESULT:      -9.2      2.690      4.269
REMARK  4 active torsions:
REMARK  status: ('A' for Active; 'I' for Inactive)
REMARK    1  A    between atoms: C_2  and  C_3 
REMARK    2  A    between atoms: C_7  and  N_8 
REMARK       I    between atoms: N_8  and  C_9 
REMARK    3  A    between atoms: C_9  and  C_10 
REMARK    4  A    between atoms: C_12  and  C_13 
ROOT
HETATM    1  C   UNL     1       7.139  26.678  56.107  1.00  0.00     0.149 A 
HETATM    2  N   UNL     1       7.334  25.379  56.556  1.00  0.00    -0.223 NA
HETATM    3  C   UNL     1       7.635  24.650  55.495  1.00  0.00     0.139 A 
HETATM    4  N   UNL     1       7.625  25.446  54.372  1.00  0.00    -0.342 N 
HETATM    5  H   UNL     1       7.813  25.134  53.430  1.00  0.00     0.167 HD
HETATM    6  C   UNL     1       7.317  26.732  54.738  1.00  0.00     0.041 A 
HETATM    7  C   UNL     1       7.230  27.850  53.772  1.00  0.00     0.071 C 
ENDROOT
BRANCH   1   8
HETATM    8  C   UNL     1       6.799  27.780  57.012  1.00  0.00     0.278 C 
HETATM    9  N   UNL     1       7.910  28.532  57.345  1.00  0.00    -0.306 N 
HETATM   10  H   UNL     1       8.797  28.238  56.942  1.00  0.00     0.170 HD
HETATM   11  O   UNL     1       5.657  27.999  57.413  1.00  0.00    -0.265 OA
BRANCH   9  12
HETATM   12  C   UNL     1       7.847  29.639  58.161  1.00  0.00     0.126 A 
HETATM   13  N   UNL     1       6.718  30.390  58.359  1.00  0.00    -0.262 N 
HETATM   14  N   UNL     1       6.904  31.435  59.186  1.00  0.00    -0.178 NA
HETATM   15  H   UNL     1       5.802  30.233  57.946  1.00  0.00     0.191 HD
HETATM   16  C   UNL     1       8.193  31.341  59.535  1.00  0.00     0.058 A 
HETATM   17  C   UNL     1       8.826  30.231  58.921  1.00  0.00     0.079 A 
BRANCH  16  18
HETATM   18  C   UNL     1       8.800  32.342  60.459  1.00  0.00     0.056 C 
HETATM   19  C   UNL     1       9.573  31.690  61.596  1.00  0.00     0.011 C 
ENDBRANCH  16  18
ENDBRANCH   9  12
ENDBRANCH   1   8
BRANCH   3  20
HETATM   20  C   UNL     1       7.933  23.212  55.500  1.00  0.00     0.012 A 
HETATM   21  C   UNL     1       7.957  22.517  54.279  1.00  0.00     0.039 A 
HETATM   22  C   UNL     1       8.231  21.150  54.243  1.00  0.00     0.035 A 
HETATM   23 CL   UNL     1       8.255  20.322  52.735  1.00  0.00    -0.084 Cl
HETATM   24  C   UNL     1       8.486  20.450  55.418  1.00  0.00     0.024 A 
HETATM   25  C   UNL     1       8.465  21.123  56.639  1.00  0.00     0.003 A 
HETATM   26  C   UNL     1       8.189  22.495  56.679  1.00  0.00     0.015 A 
ENDBRANCH   3  20
TORSDOF 4
ENDMDL
MODEL 3
REMARK VINA RESULT:      -9.0      7.398     10.716
REMARK  4 active torsions:
REMARK  status: ('A' for Active; 'I' for Inactive)
REMARK    1  A    between atoms: C_2  and  C_3 
REMARK    2  A    between atoms: C_7  and  N_8 
REMARK       I    between atoms: N_8  and  C_9 
REMARK    3  A    between atoms: C_9  and  C_10 
REMARK    4  A    between atoms: C_12  and  C_13 
ROOT
HETATM    1  C   UNL     1       6.288  25.906  52.579  1.00  0.00     0.149 A 
HETATM    2  N   UNL     1       6.341  24.519  52.621  1.00  0.00    -0.223 NA
HETATM    3  C   UNL     1       7.277  24.199  53.497  1.00  0.00     0.139 A 
HETATM    4  N   UNL     1       7.838  25.346  54.011  1.00  0.00    -0.342 N 
HETATM    5  H   UNL     1       8.582  25.380  54.693  1.00  0.00     0.167 HD
HETATM    6  C   UNL     1       7.224  26.435  53.447  1.00  0.00     0.041 A 
HETATM    7  C   UNL     1       7.580  27.831  53.785  1.00  0.00     0.071 C 
ENDROOT
BRANCH   1   8
HETATM    8  C   UNL     1       5.348  26.632  51.721  1.00  0.00     0.278 C 
HETATM    9  N   UNL     1       5.345  26.138  50.430  1.00  0.00    -0.306 N 
HETATM   10  H   UNL     1       5.975  25.363  50.237  1.00  0.00     0.170 HD
HETATM   11  O   UNL     1       4.650  27.564  52.118  1.00  0.00    -0.265 OA
BRANCH   9  12
HETATM   12  C   UNL     1       4.526  26.636  49.441  1.00  0.00     0.126 A 
HETATM   13  N   UNL     1       4.504  27.946  49.043  1.00  0.00    -0.262 N 
HETATM   14  N   UNL     1       3.608  28.199  48.071  1.00  0.00    -0.178 NA
HETATM   15  H   UNL     1       5.074  28.704  49.408  1.00  0.00     0.191 HD
HETATM   16  C   UNL     1       3.047  27.006  47.835  1.00  0.00     0.058 A 
HETATM   17  C   UNL     1       3.590  25.995  48.667  1.00  0.00     0.079 A 
BRANCH  16  18
HETATM   18  C   UNL     1       1.977  26.866  46.805  1.00  0.00     0.056 C 
HETATM   19  C   UNL     1       0.632  27.382  47.291  1.00  0.00     0.011 C 
ENDBRANCH  16  18
ENDBRANCH   9  12
ENDBRANCH   1   8
BRANCH   3  20
HETATM   20  C   UNL     1       7.671  22.834  53.870  1.00  0.00     0.012 A 
HETATM   21  C   UNL     1       7.842  22.521  55.229  1.00  0.00     0.039 A 
HETATM   22  C   UNL     1       8.219  21.238  55.622  1.00  0.00     0.035 A 
HETATM   23 CL   UNL     1       8.423  20.881  57.293  1.00  0.00    -0.084 Cl
HETATM   24  C   UNL     1       8.433  20.242  54.674  1.00  0.00     0.024 A 
HETATM   25  C   UNL     1       8.268  20.535  53.321  1.00  0.00     0.003 A 
HETATM   26  C   UNL     1       7.890  21.822  52.922  1.00  0.00     0.015 A 
ENDBRANCH   3  20
TORSDOF 4
ENDMDL
MODEL 4
REMARK VINA RESULT:      -9.0      3.022      5.068
REMARK  4 active torsions:
REMARK  status: ('A' for Active; 'I' for Inactive)
REMARK    1  A    between atoms: C_2  and  C_3 
REMARK    2  A    between atoms: C_7  and  N_8 
REMARK       I    between atoms: N_8  and  C_9 
REMARK    3  A    between atoms: C_9  and  C_10 
REMARK    4  A    between atoms: C_12  and  C_13 
ROOT
HETATM    1  C   UNL     1       7.145  26.609  55.173  1.00  0.00     0.149 A 
HETATM    2  N   UNL     1       7.527  25.310  55.475  1.00  0.00    -0.223 NA
HETATM    3  C   UNL     1       7.502  24.630  54.341  1.00  0.00     0.139 A 
HETATM    4  N   UNL     1       7.099  25.458  53.318  1.00  0.00    -0.342 N 
HETATM    5  H   UNL     1       6.987  25.186  52.352  1.00  0.00     0.167 HD
HETATM    6  C   UNL     1       6.872  26.714  53.822  1.00  0.00     0.041 A 
HETATM    7  C   UNL     1       6.433  27.855  52.987  1.00  0.00     0.071 C 
ENDROOT
BRANCH   1   8
HETATM    8  C   UNL     1       7.069  27.663  56.188  1.00  0.00     0.278 C 
HETATM    9  N   UNL     1       8.317  27.990  56.685  1.00  0.00    -0.306 N 
HETATM   10  H   UNL     1       9.107  27.475  56.304  1.00  0.00     0.170 HD
HETATM   11  O   UNL     1       6.013  28.188  56.541  1.00  0.00    -0.265 OA
BRANCH   9  12
HETATM   12  C   UNL     1       8.512  28.971  57.630  1.00  0.00     0.126 A 
HETATM   13  N   UNL     1       7.702  29.170  58.717  1.00  0.00    -0.262 N 
HETATM   14  N   UNL     1       8.084  30.202  59.492  1.00  0.00    -0.178 NA
HETATM   15  H   UNL     1       6.876  28.633  58.967  1.00  0.00     0.191 HD
HETATM   16  C   UNL     1       9.180  30.671  58.882  1.00  0.00     0.058 A 
HETATM   17  C   UNL     1       9.490  29.932  57.713  1.00  0.00     0.079 A 
BRANCH  16  18
HETATM   18  C   UNL     1       9.911  31.844  59.442  1.00  0.00     0.056 C 
HETATM   19  C   UNL     1       9.462  32.189  60.854  1.00  0.00     0.011 C 
ENDBRANCH  16  18
ENDBRANCH   9  12
ENDBRANCH   1   8
BRANCH   3  20
HETATM   20  C   UNL     1       7.844  23.211  54.185  1.00  0.00     0.012 A 
HETATM   21  C   UNL     1       8.329  22.500  55.295  1.00  0.00     0.039 A 
HETATM   22  C   UNL     1       8.669  21.152  55.185  1.00  0.00     0.035 A 
HETATM   23 CL   UNL     1       9.260  20.305  56.561  1.00  0.00    -0.084 Cl
HETATM   24  C   UNL     1       8.534  20.486  53.971  1.00  0.00     0.024 A 
HETATM   25  C   UNL     1       8.056  21.176  52.858  1.00  0.00     0.003 A 
HETATM   26  C   UNL     1       7.714  22.529  52.964  1.00  0.00     0.015 A 
ENDBRANCH   3  20
TORSDOF 4
ENDMDL
MODEL 5
REMARK VINA RESULT:      -8.4      3.183      8.436
REMARK  4 active torsions:
REMARK  status: ('A' for Active; 'I' for Inactive)
REMARK    1  A    between atoms: C_2  and  C_3 
REMARK    2  A    between atoms: C_7  and  N_8 
REMARK       I    between atoms: N_8  and  C_9 
REMARK    3  A    between atoms: C_9  and  C_10 
REMARK    4  A    between atoms: C_12  and  C_13 
ROOT
HETATM    1  C   UNL     1       8.568  29.497  57.825  1.00  0.00     0.149 A 
HETATM    2  N   UNL     1       7.768  30.004  58.840  1.00  0.00    -0.223 NA
HETATM    3  C   UNL     1       8.522  30.831  59.543  1.00  0.00     0.139 A 
HETATM    4  N   UNL     1       9.793  30.859  59.014  1.00  0.00    -0.342 N 
HETATM    5  H   UNL     1      10.565  31.403  59.369  1.00  0.00     0.167 HD
HETATM    6  C   UNL     1       9.841  30.026  57.925  1.00  0.00     0.041 A 
HETATM    7  C   UNL     1      11.062  29.826  57.111  1.00  0.00     0.071 C 
ENDROOT
BRANCH   1   8
HETATM    8  C   UNL     1       8.067  28.549  56.827  1.00  0.00     0.278 C 
HETATM    9  N   UNL     1       7.982  27.266  57.334  1.00  0.00    -0.306 N 
HETATM   10  H   UNL     1       8.272  27.138  58.301  1.00  0.00     0.170 HD
HETATM   11  O   UNL     1       7.757  28.873  55.680  1.00  0.00    -0.265 OA
BRANCH   9  12
HETATM   12  C   UNL     1       7.513  26.200  56.599  1.00  0.00     0.126 A 
HETATM   13  N   UNL     1       6.267  26.140  56.034  1.00  0.00    -0.262 N 
HETATM   14  N   UNL     1       6.028  24.991  55.376  1.00  0.00    -0.178 NA
HETATM   15  H   UNL     1       5.544  26.853  56.075  1.00  0.00     0.191 HD
HETATM   16  C   UNL     1       7.166  24.298  55.520  1.00  0.00     0.058 A 
HETATM   17  C   UNL     1       8.127  25.015  56.276  1.00  0.00     0.079 A 
BRANCH  16  18
HETATM   18  C   UNL     1       7.301  22.937  54.924  1.00  0.00     0.056 C 
HETATM   19  C   UNL     1       8.361  22.882  53.835  1.00  0.00     0.011 C 
ENDBRANCH  16  18
ENDBRANCH   9  12
ENDBRANCH   1   8
BRANCH   3  20
HETATM   20  C   UNL     1       8.085  31.603  60.713  1.00  0.00     0.012 A 
HETATM   21  C   UNL     1       6.978  32.458  60.591  1.00  0.00     0.039 A 
HETATM   22  C   UNL     1       6.535  33.211  61.678  1.00  0.00     0.035 A 
HETATM   23 CL   UNL     1       5.175  34.250  61.501  1.00  0.00    -0.084 Cl
HETATM   24  C   UNL     1       7.185  33.129  62.906  1.00  0.00     0.024 A 
HETATM   25  C   UNL     1       8.287  32.287  63.045  1.00  0.00     0.003 A 
HETATM   26  C   UNL     1       8.734  31.530  61.956  1.00  0.00     0.015 A 
ENDBRANCH   3  20
TORSDOF 4
ENDMDL
MODEL 6
REMARK VINA RESULT:      -8.3      6.743      9.815
REMARK  4 active torsions:
REMARK  status: ('A' for Active; 'I' for Inactive)
REMARK    1  A    between atoms: C_2  and  C_3 
REMARK    2  A    between atoms: C_7  and  N_8 
REMARK       I    between atoms: N_8  and  C_9 
REMARK    3  A    between atoms: C_9  and  C_10 
REMARK    4  A    between atoms: C_12  and  C_13 
ROOT
HETATM    1  C   UNL     1       5.991  25.958  53.407  1.00  0.00     0.149 A 
HETATM    2  N   UNL     1       6.262  24.639  53.067  1.00  0.00    -0.223 NA
HETATM    3  C   UNL     1       7.066  24.162  54.001  1.00  0.00     0.139 A 
HETATM    4  N   UNL     1       7.331  25.145  54.927  1.00  0.00    -0.342 N 
HETATM    5  H   UNL     1       7.924  25.044  55.737  1.00  0.00     0.167 HD
HETATM    6  C   UNL     1       6.657  26.286  54.571  1.00  0.00     0.041 A 
HETATM    7  C   UNL     1       6.715  27.539  55.358  1.00  0.00     0.071 C 
ENDROOT
BRANCH   1   8
HETATM    8  C   UNL     1       5.114  26.813  52.602  1.00  0.00     0.278 C 
HETATM    9  N   UNL     1       5.562  26.927  51.299  1.00  0.00    -0.306 N 
HETATM   10  H   UNL     1       6.416  26.427  51.066  1.00  0.00     0.170 HD
HETATM   11  O   UNL     1       4.102  27.354  53.047  1.00  0.00    -0.265 OA
BRANCH   9  12
HETATM   12  C   UNL     1       4.894  27.656  50.341  1.00  0.00     0.126 A 
HETATM   13  N   UNL     1       3.590  27.446  49.979  1.00  0.00    -0.262 N 
HETATM   14  N   UNL     1       3.160  28.272  49.007  1.00  0.00    -0.178 NA
HETATM   15  H   UNL     1       2.956  26.748  50.361  1.00  0.00     0.191 HD
HETATM   16  C   UNL     1       4.225  29.041  48.747  1.00  0.00     0.058 A 
HETATM   17  C   UNL     1       5.335  28.695  49.559  1.00  0.00     0.079 A 
BRANCH  16  18
HETATM   18  C   UNL     1       4.153  30.101  47.701  1.00  0.00     0.056 C 
HETATM   19  C   UNL     1       4.925  31.353  48.089  1.00  0.00     0.011 C 
ENDBRANCH  16  18
ENDBRANCH   9  12
ENDBRANCH   1   8
BRANCH   3  20
HETATM   20  C   UNL     1       7.604  22.796  54.053  1.00  0.00     0.012 A 
HETATM   21  C   UNL     1       7.999  22.265  55.292  1.00  0.00     0.039 A 
HETATM   22  C   UNL     1       8.518  20.975  55.381  1.00  0.00     0.035 A 
HETATM   23 CL   UNL     1       8.994  20.348  56.911  1.00  0.00    -0.084 Cl
HETATM   24  C   UNL     1       8.655  20.188  54.241  1.00  0.00     0.024 A 
HETATM   25  C   UNL     1       8.270  20.699  53.003  1.00  0.00     0.003 A 
HETATM   26  C   UNL     1       7.748  21.995  52.909  1.00  0.00     0.015 A 
ENDBRANCH   3  20
TORSDOF 4
ENDMDL
MODEL 7
REMARK VINA RESULT:      -8.1      6.423     10.088
REMARK  4 active torsions:
REMARK  status: ('A' for Active; 'I' for Inactive)
REMARK    1  A    between atoms: C_2  and  C_3 
REMARK    2  A    between atoms: C_7  and  N_8 
REMARK       I    between atoms: N_8  and  C_9 
REMARK    3  A    between atoms: C_9  and  C_10 
REMARK    4  A    between atoms: C_12  and  C_13 
ROOT
HETATM    1  C   UNL     1       6.203  26.322  53.580  1.00  0.00     0.149 A 
HETATM    2  N   UNL     1       6.427  24.953  53.585  1.00  0.00    -0.223 NA
HETATM    3  C   UNL     1       7.243  24.703  54.595  1.00  0.00     0.139 A 
HETATM    4  N   UNL     1       7.561  25.881  55.231  1.00  0.00    -0.342 N 
HETATM    5  H   UNL     1       8.174  25.970  56.029  1.00  0.00     0.167 HD
HETATM    6  C   UNL     1       6.911  26.915  54.607  1.00  0.00     0.041 A 
HETATM    7  C   UNL     1       7.025  28.325  55.045  1.00  0.00     0.071 C 
ENDROOT
BRANCH   1   8
HETATM    8  C   UNL     1       5.329  26.973  52.600  1.00  0.00     0.278 C 
HETATM    9  N   UNL     1       5.665  26.631  51.304  1.00  0.00    -0.306 N 
HETATM   10  H   UNL     1       6.452  25.997  51.190  1.00  0.00     0.170 HD
HETATM   11  O   UNL     1       4.407  27.727  52.911  1.00  0.00    -0.265 OA
BRANCH   9  12
HETATM   12  C   UNL     1       4.974  27.092  50.205  1.00  0.00     0.126 A 
HETATM   13  N   UNL     1       4.886  28.410  49.845  1.00  0.00    -0.262 N 
HETATM   14  N   UNL     1       4.142  28.619  48.744  1.00  0.00    -0.178 NA
HETATM   15  H   UNL     1       5.309  29.202  50.322  1.00  0.00     0.191 HD
HETATM   16  C   UNL     1       3.750  27.390  48.385  1.00  0.00     0.058 A 
HETATM   17  C   UNL     1       4.248  26.399  49.268  1.00  0.00     0.079 A 
BRANCH  16  18
HETATM   18  C   UNL     1       2.885  27.194  47.186  1.00  0.00     0.056 C 
HETATM   19  C   UNL     1       2.669  25.724  46.858  1.00  0.00     0.011 C 
ENDBRANCH  16  18
ENDBRANCH   9  12
ENDBRANCH   1   8
BRANCH   3  20
HETATM   20  C   UNL     1       7.743  23.378  54.985  1.00  0.00     0.012 A 
HETATM   21  C   UNL     1       7.986  22.420  53.986  1.00  0.00     0.039 A 
HETATM   22  C   UNL     1       8.457  21.150  54.317  1.00  0.00     0.035 A 
HETATM   23 CL   UNL     1       8.746  19.995  53.075  1.00  0.00    -0.084 Cl
HETATM   24  C   UNL     1       8.696  20.809  55.645  1.00  0.00     0.024 A 
HETATM   25  C   UNL     1       8.459  21.747  56.649  1.00  0.00     0.003 A 
HETATM   26  C   UNL     1       7.986  23.023  56.321  1.00  0.00     0.015 A 
ENDBRANCH   3  20
TORSDOF 4
ENDMDL
MODEL 8
REMARK VINA RESULT:      -8.1      4.404      6.288
REMARK  4 active torsions:
REMARK  status: ('A' for Active; 'I' for Inactive)
REMARK    1  A    between atoms: C_2  and  C_3 
REMARK    2  A    between atoms: C_7  and  N_8 
REMARK       I    between atoms: N_8  and  C_9 
REMARK    3  A    between atoms: C_9  and  C_10 
REMARK    4  A    between atoms: C_12  and  C_13 
ROOT
HETATM    1  C   UNL     1       6.361  26.214  53.427  1.00  0.00     0.149 A 
HETATM    2  N   UNL     1       6.962  25.222  54.190  1.00  0.00    -0.223 NA
HETATM    3  C   UNL     1       6.916  24.111  53.476  1.00  0.00     0.139 A 
HETATM    4  N   UNL     1       6.287  24.360  52.277  1.00  0.00    -0.342 N 
HETATM    5  H   UNL     1       6.114  23.679  51.552  1.00  0.00     0.167 HD
HETATM    6  C   UNL     1       5.933  25.684  52.225  1.00  0.00     0.041 A 
HETATM    7  C   UNL     1       5.243  26.294  51.065  1.00  0.00     0.071 C 
ENDROOT
BRANCH   1   8
HETATM    8  C   UNL     1       6.240  27.599  53.891  1.00  0.00     0.278 C 
HETATM    9  N   UNL     1       6.208  27.677  55.271  1.00  0.00    -0.306 N 
HETATM   10  H   UNL     1       6.265  26.798  55.779  1.00  0.00     0.170 HD
HETATM   11  O   UNL     1       6.179  28.565  53.131  1.00  0.00    -0.265 OA
BRANCH   9  12
HETATM   12  C   UNL     1       6.125  28.872  55.950  1.00  0.00     0.126 A 
HETATM   13  N   UNL     1       5.590  30.021  55.432  1.00  0.00    -0.262 N 
HETATM   14  N   UNL     1       5.635  31.066  56.278  1.00  0.00    -0.178 NA
HETATM   15  H   UNL     1       5.190  30.142  54.505  1.00  0.00     0.191 HD
HETATM   16  C   UNL     1       6.210  30.563  57.377  1.00  0.00     0.058 A 
HETATM   17  C   UNL     1       6.533  29.192  57.222  1.00  0.00     0.079 A 
BRANCH  16  18
HETATM   18  C   UNL     1       6.448  31.429  58.568  1.00  0.00     0.056 C 
HETATM   19  C   UNL     1       5.501  32.618  58.620  1.00  0.00     0.011 C 
ENDBRANCH  16  18
ENDBRANCH   9  12
ENDBRANCH   1   8
BRANCH   3  20
HETATM   20  C   UNL     1       7.445  22.805  53.888  1.00  0.00     0.012 A 
HETATM   21  C   UNL     1       7.642  22.550  55.255  1.00  0.00     0.039 A 
HETATM   22  C   UNL     1       8.147  21.324  55.686  1.00  0.00     0.035 A 
HETATM   23 CL   UNL     1       8.378  21.037  57.367  1.00  0.00    -0.084 Cl
HETATM   24  C   UNL     1       8.466  20.329  54.767  1.00  0.00     0.024 A 
HETATM   25  C   UNL     1       8.279  20.565  53.406  1.00  0.00     0.003 A 
HETATM   26  C   UNL     1       7.772  21.795  52.970  1.00  0.00     0.015 A 
ENDBRANCH   3  20
TORSDOF 4
ENDMDL
MODEL 9
REMARK VINA RESULT:      -8.1      3.686      8.871
REMARK  4 active torsions:
REMARK  status: ('A' for Active; 'I' for Inactive)
REMARK    1  A    between atoms: C_2  and  C_3 
REMARK    2  A    between atoms: C_7  and  N_8 
REMARK       I    between atoms: N_8  and  C_9 
REMARK    3  A    between atoms: C_9  and  C_10 
REMARK    4  A    between atoms: C_12  and  C_13 
ROOT
HETATM    1  C   UNL     1       7.326  29.291  56.643  1.00  0.00     0.149 A 
HETATM    2  N   UNL     1       8.055  29.504  57.805  1.00  0.00    -0.223 NA
HETATM    3  C   UNL     1       7.448  30.476  58.463  1.00  0.00     0.139 A 
HETATM    4  N   UNL     1       6.353  30.904  57.747  1.00  0.00    -0.342 N 
HETATM    5  H   UNL     1       5.723  31.642  58.023  1.00  0.00     0.167 HD
HETATM    6  C   UNL     1       6.257  30.164  56.595  1.00  0.00     0.041 A 
HETATM    7  C   UNL     1       5.182  30.359  55.595  1.00  0.00     0.071 C 
ENDROOT
BRANCH   1   8
HETATM    8  C   UNL     1       7.694  28.268  55.660  1.00  0.00     0.278 C 
HETATM    9  N   UNL     1       7.389  26.995  56.103  1.00  0.00    -0.306 N 
HETATM   10  H   UNL     1       6.966  26.923  57.025  1.00  0.00     0.170 HD
HETATM   11  O   UNL     1       8.209  28.529  54.572  1.00  0.00    -0.265 OA
BRANCH   9  12
HETATM   12  C   UNL     1       7.614  25.866  55.348  1.00  0.00     0.126 A 
HETATM   13  N   UNL     1       7.494  25.812  53.985  1.00  0.00    -0.262 N 
HETATM   14  N   UNL     1       7.748  24.595  53.469  1.00  0.00    -0.178 NA
HETATM   15  H   UNL     1       7.235  26.575  53.364  1.00  0.00     0.191 HD
HETATM   16  C   UNL     1       8.049  23.851  54.541  1.00  0.00     0.058 A 
HETATM   17  C   UNL     1       7.981  24.603  55.741  1.00  0.00     0.079 A 
BRANCH  16  18
HETATM   18  C   UNL     1       8.392  22.407  54.385  1.00  0.00     0.056 C 
HETATM   19  C   UNL     1       7.886  21.828  53.073  1.00  0.00     0.011 C 
ENDBRANCH  16  18
ENDBRANCH   9  12
ENDBRANCH   1   8
BRANCH   3  20
HETATM   20  C   UNL     1       7.869  31.027  59.758  1.00  0.00     0.012 A 
HETATM   21  C   UNL     1       7.098  32.041  60.350  1.00  0.00     0.039 A 
HETATM   22  C   UNL     1       7.468  32.592  61.577  1.00  0.00     0.035 A 
HETATM   23 CL   UNL     1       6.506  33.833  62.281  1.00  0.00    -0.084 Cl
HETATM   24  C   UNL     1       8.609  32.146  62.237  1.00  0.00     0.024 A 
HETATM   25  C   UNL     1       9.387  31.142  61.663  1.00  0.00     0.003 A 
HETATM   26  C   UNL     1       9.019  30.587  60.432  1.00  0.00     0.015 A 
ENDBRANCH   3  20
TORSDOF 4
ENDMDL
MODEL 10
REMARK VINA RESULT:      -8.0      8.087     11.742
REMARK  4 active torsions:
REMARK  status: ('A' for Active; 'I' for Inactive)
REMARK    1  A    between atoms: C_2  and  C_3 
REMARK    2  A    between atoms: C_7  and  N_8 
REMARK       I    between atoms: N_8  and  C_9 
REMARK    3  A    between atoms: C_9  and  C_10 
REMARK    4  A    between atoms: C_12  and  C_13 
ROOT
HETATM    1  C   UNL     1       5.061  26.950  50.663  1.00  0.00     0.149 A 
HETATM    2  N   UNL     1       5.380  25.713  51.206  1.00  0.00    -0.223 NA
HETATM    3  C   UNL     1       5.955  25.945  52.373  1.00  0.00     0.139 A 
HETATM    4  N   UNL     1       6.025  27.303  52.590  1.00  0.00    -0.342 N 
HETATM    5  H   UNL     1       6.427  27.747  53.403  1.00  0.00     0.167 HD
HETATM    6  C   UNL     1       5.462  27.955  51.523  1.00  0.00     0.041 A 
HETATM    7  C   UNL     1       5.364  29.430  51.434  1.00  0.00     0.071 C 
ENDROOT
BRANCH   1   8
HETATM    8  C   UNL     1       4.392  27.092  49.367  1.00  0.00     0.278 C 
HETATM    9  N   UNL     1       3.095  27.548  49.505  1.00  0.00    -0.306 N 
HETATM   10  H   UNL     1       2.770  27.718  50.453  1.00  0.00     0.170 HD
HETATM   11  O   UNL     1       4.937  26.837  48.293  1.00  0.00    -0.265 OA
BRANCH   9  12
HETATM   12  C   UNL     1       2.268  27.788  48.430  1.00  0.00     0.126 A 
HETATM   13  N   UNL     1       2.518  28.716  47.455  1.00  0.00    -0.262 N 
HETATM   14  N   UNL     1       1.558  28.782  46.514  1.00  0.00    -0.178 NA
HETATM   15  H   UNL     1       3.325  29.331  47.392  1.00  0.00     0.191 HD
HETATM   16  C   UNL     1       0.669  27.857  46.900  1.00  0.00     0.058 A 
HETATM   17  C   UNL     1       1.071  27.205  48.093  1.00  0.00     0.079 A 
BRANCH  16  18
HETATM   18  C   UNL     1      -0.570  27.623  46.103  1.00  0.00     0.056 C 
HETATM   19  C   UNL     1      -0.899  28.790  45.185  1.00  0.00     0.011 C 
ENDBRANCH  16  18
ENDBRANCH   9  12
ENDBRANCH   1   8
BRANCH   3  20
HETATM   20  C   UNL     1       6.449  24.922  53.303  1.00  0.00     0.012 A 
HETATM   21  C   UNL     1       7.015  23.745  52.785  1.00  0.00     0.039 A 
HETATM   22  C   UNL     1       7.491  22.749  53.635  1.00  0.00     0.035 A 
HETATM   23 CL   UNL     1       8.179  21.317  52.974  1.00  0.00    -0.084 Cl
HETATM   24  C   UNL     1       7.415  22.903  55.016  1.00  0.00     0.024 A 
HETATM   25  C   UNL     1       6.856  24.063  55.549  1.00  0.00     0.003 A 
HETATM   26  C   UNL     1       6.375  25.066  54.698  1.00  0.00     0.015 A 
ENDBRANCH   3  20
TORSDOF 4
ENDMDL
