MODEL 1
REMARK VINA RESULT:      -7.8      0.000      0.000
REMARK  5 active torsions:
REMARK  status: ('A' for Active; 'I' for Inactive)
REMARK    1  A    between atoms: C_2  and  O_3 
REMARK    2  A    between atoms: O_3  and  C_4 
REMARK    3  A    between atoms: C_4  and  C_5 
REMARK    4  A    between atoms: C_6  and  C_7 
REMARK    5  A    between atoms: C_22  and  N_23 
ROOT
HETATM    1  C   UNL     1       7.618  25.348  56.114  1.00  0.00     0.075 A 
HETATM    2  C   UNL     1       6.975  26.429  55.457  1.00  0.00     0.008 A 
HETATM    3  C   UNL     1       6.919  27.686  56.124  1.00  0.00     0.045 A 
HETATM    4  C   UNL     1       7.480  27.723  57.413  1.00  0.00     0.143 A 
HETATM    5  N   UNL     1       7.367  28.860  58.201  1.00  0.00    -0.306 N 
HETATM    6  C   UNL     1       6.690  29.982  57.844  1.00  0.00     0.268 A 
HETATM    7  O   UNL     1       6.562  30.926  58.613  1.00  0.00    -0.266 OA
HETATM    8  C   UNL     1       6.148  30.002  56.469  1.00  0.00     0.120 A 
HETATM    9  C   UNL     1       5.424  31.257  56.011  1.00  0.00     0.027 C 
HETATM   10  N   UNL     1       4.823  32.299  55.632  1.00  0.00    -0.096 N 
HETATM   11  C   UNL     1       6.290  28.959  55.617  1.00  0.00     0.046 A 
HETATM   12  N   UNL     1       8.110  26.699  58.027  1.00  0.00    -0.234 NA
HETATM   13  C   UNL     1       8.175  25.518  57.378  1.00  0.00     0.050 A 
HETATM   14  C   UNL     1       8.854  24.397  58.111  1.00  0.00     0.071 C 
HETATM   15  H   UNL     1       7.753  28.809  59.134  1.00  0.00     0.170 HD
ENDROOT
BRANCH  11  16
HETATM   16  N   UNL     1       5.871  29.005  54.293  1.00  0.00    -0.301 NA
HETATM   17  H   UNL     1       6.594  28.910  53.580  1.00  0.00     0.124 HD
HETATM   18  H   UNL     1       5.084  28.400  54.073  1.00  0.00     0.124 HD
ENDBRANCH  11  16
BRANCH   2  19
HETATM   19  C   UNL     1       6.359  26.172  54.139  1.00  0.00    -0.024 A 
HETATM   20  C   UNL     1       5.078  25.604  54.044  1.00  0.00     0.014 A 
HETATM   21  C   UNL     1       4.489  25.371  52.798  1.00  0.00     0.024 A 
HETATM   22  C   UNL     1       5.182  25.692  51.634  1.00  0.00     0.034 A 
HETATM   23 CL   UNL     1       4.456  25.413  50.100  1.00  0.00    -0.084 Cl
HETATM   24  C   UNL     1       6.460  26.242  51.704  1.00  0.00     0.024 A 
HETATM   25  C   UNL     1       7.047  26.479  52.951  1.00  0.00     0.014 A 
ENDBRANCH   2  19
BRANCH   1  26
HETATM   26  C   UNL     1       7.639  24.004  55.517  1.00  0.00     0.296 C 
HETATM   27  O   UNL     1       6.839  23.132  55.799  1.00  0.00    -0.259 OA
BRANCH  26  28
HETATM   28  O   UNL     1       8.701  23.933  54.682  1.00  0.00    -0.318 OA
BRANCH  28  29
HETATM   29  C   UNL     1       8.787  22.754  53.867  1.00  0.00     0.174 C 
HETATM   30  C   UNL     1       7.847  22.905  52.688  1.00  0.00     0.034 C 
ENDBRANCH  28  29
ENDBRANCH  26  28
ENDBRANCH   1  26
TORSDOF 5
ENDMDL
MODEL 2
REMARK VINA RESULT:      -7.7      1.786      1.984
REMARK  5 active torsions:
REMARK  status: ('A' for Active; 'I' for Inactive)
REMARK    1  A    between atoms: C_2  and  O_3 
REMARK    2  A    between atoms: O_3  and  C_4 
REMARK    3  A    between atoms: C_4  and  C_5 
REMARK    4  A    between atoms: C_6  and  C_7 
REMARK    5  A    between atoms: C_22  and  N_23 
ROOT
HETATM    1  C   UNL     1       7.028  26.781  55.929  1.00  0.00     0.075 A 
HETATM    2  C   UNL     1       6.429  28.029  55.621  1.00  0.00     0.008 A 
HETATM    3  C   UNL     1       6.560  29.090  56.562  1.00  0.00     0.045 A 
HETATM    4  C   UNL     1       7.246  28.776  57.749  1.00  0.00     0.143 A 
HETATM    5  N   UNL     1       7.320  29.696  58.786  1.00  0.00    -0.306 N 
HETATM    6  C   UNL     1       6.720  30.915  58.781  1.00  0.00     0.268 A 
HETATM    7  O   UNL     1       6.760  31.653  59.758  1.00  0.00    -0.266 OA
HETATM    8  C   UNL     1       6.051  31.303  57.523  1.00  0.00     0.120 A 
HETATM    9  C   UNL     1       5.408  32.678  57.456  1.00  0.00     0.027 C 
HETATM   10  N   UNL     1       4.875  33.820  57.402  1.00  0.00    -0.096 N 
HETATM   11  C   UNL     1       6.008  30.488  56.441  1.00  0.00     0.046 A 
HETATM   12  N   UNL     1       7.832  27.594  58.031  1.00  0.00    -0.234 NA
HETATM   13  C   UNL     1       7.720  26.602  57.123  1.00  0.00     0.050 A 
HETATM   14  C   UNL     1       8.358  25.294  57.492  1.00  0.00     0.071 C 
HETATM   15  H   UNL     1       7.789  29.396  59.630  1.00  0.00     0.170 HD
ENDROOT
BRANCH  11  16
HETATM   16  N   UNL     1       5.467  30.880  55.223  1.00  0.00    -0.301 NA
HETATM   17  H   UNL     1       4.457  30.790  55.121  1.00  0.00     0.124 HD
HETATM   18  H   UNL     1       5.770  31.794  54.896  1.00  0.00     0.124 HD
ENDBRANCH  11  16
BRANCH   2  19
HETATM   19  C   UNL     1       5.665  28.141  54.361  1.00  0.00    -0.024 A 
HETATM   20  C   UNL     1       4.268  28.003  54.356  1.00  0.00     0.014 A 
HETATM   21  C   UNL     1       3.542  28.119  53.166  1.00  0.00     0.024 A 
HETATM   22  C   UNL     1       4.209  28.361  51.969  1.00  0.00     0.034 A 
HETATM   23 CL   UNL     1       3.318  28.512  50.506  1.00  0.00    -0.084 Cl
HETATM   24  C   UNL     1       5.597  28.486  51.949  1.00  0.00     0.024 A 
HETATM   25  C   UNL     1       6.322  28.374  53.139  1.00  0.00     0.014 A 
ENDBRANCH   2  19
BRANCH   1  26
HETATM   26  C   UNL     1       6.862  25.621  55.039  1.00  0.00     0.296 C 
HETATM   27  O   UNL     1       5.916  24.859  55.099  1.00  0.00    -0.259 OA
BRANCH  26  28
HETATM   28  O   UNL     1       7.943  25.558  54.228  1.00  0.00    -0.318 OA
BRANCH  28  29
HETATM   29  C   UNL     1       7.965  24.473  53.287  1.00  0.00     0.174 C 
HETATM   30  C   UNL     1       7.565  25.001  51.924  1.00  0.00     0.034 C 
ENDBRANCH  28  29
ENDBRANCH  26  28
ENDBRANCH   1  26
TORSDOF 5
ENDMDL
MODEL 3
REMARK VINA RESULT:      -7.5      3.720      5.780
REMARK  5 active torsions:
REMARK  status: ('A' for Active; 'I' for Inactive)
REMARK    1  A    between atoms: C_2  and  O_3 
REMARK    2  A    between atoms: O_3  and  C_4 
REMARK    3  A    between atoms: C_4  and  C_5 
REMARK    4  A    between atoms: C_6  and  C_7 
REMARK    5  A    between atoms: C_22  and  N_23 
ROOT
HETATM    1  C   UNL     1       4.769  28.348  54.959  1.00  0.00     0.075 A 
HETATM    2  C   UNL     1       4.906  27.851  53.637  1.00  0.00     0.008 A 
HETATM    3  C   UNL     1       4.235  28.539  52.586  1.00  0.00     0.045 A 
HETATM    4  C   UNL     1       3.451  29.640  52.975  1.00  0.00     0.143 A 
HETATM    5  N   UNL     1       2.655  30.302  52.051  1.00  0.00    -0.306 N 
HETATM    6  C   UNL     1       2.519  29.939  50.748  1.00  0.00     0.268 A 
HETATM    7  O   UNL     1       1.743  30.519  49.998  1.00  0.00    -0.266 OA
HETATM    8  C   UNL     1       3.383  28.831  50.291  1.00  0.00     0.120 A 
HETATM    9  C   UNL     1       3.299  28.423  48.830  1.00  0.00     0.027 C 
HETATM   10  N   UNL     1       3.228  28.086  47.616  1.00  0.00    -0.096 N 
HETATM   11  C   UNL     1       4.243  28.190  51.119  1.00  0.00     0.046 A 
HETATM   12  N   UNL     1       3.338  30.122  54.230  1.00  0.00    -0.234 NA
HETATM   13  C   UNL     1       3.995  29.475  55.216  1.00  0.00     0.050 A 
HETATM   14  C   UNL     1       3.814  30.025  56.602  1.00  0.00     0.071 C 
HETATM   15  H   UNL     1       2.081  31.057  52.400  1.00  0.00     0.170 HD
ENDROOT
BRANCH  11  16
HETATM   16  N   UNL     1       5.127  27.214  50.678  1.00  0.00    -0.301 NA
HETATM   17  H   UNL     1       4.719  26.397  50.225  1.00  0.00     0.124 HD
HETATM   18  H   UNL     1       5.908  27.563  50.128  1.00  0.00     0.124 HD
ENDBRANCH  11  16
BRANCH   2  19
HETATM   19  C   UNL     1       5.700  26.622  53.436  1.00  0.00    -0.024 A 
HETATM   20  C   UNL     1       7.090  26.688  53.244  1.00  0.00     0.014 A 
HETATM   21  C   UNL     1       7.844  25.525  53.064  1.00  0.00     0.024 A 
HETATM   22  C   UNL     1       7.213  24.284  53.062  1.00  0.00     0.034 A 
HETATM   23 CL   UNL     1       8.140  22.852  52.848  1.00  0.00    -0.084 Cl
HETATM   24  C   UNL     1       5.833  24.195  53.234  1.00  0.00     0.024 A 
HETATM   25  C   UNL     1       5.080  25.359  53.419  1.00  0.00     0.014 A 
ENDBRANCH   2  19
BRANCH   1  26
HETATM   26  C   UNL     1       5.368  27.638  56.100  1.00  0.00     0.296 C 
HETATM   27  O   UNL     1       4.799  26.756  56.716  1.00  0.00    -0.259 OA
BRANCH  26  28
HETATM   28  O   UNL     1       6.586  28.177  56.336  1.00  0.00    -0.318 OA
BRANCH  28  29
HETATM   29  C   UNL     1       7.257  27.730  57.524  1.00  0.00     0.174 C 
HETATM   30  C   UNL     1       8.184  26.588  57.160  1.00  0.00     0.034 C 
ENDBRANCH  28  29
ENDBRANCH  26  28
ENDBRANCH   1  26
TORSDOF 5
ENDMDL
MODEL 4
REMARK VINA RESULT:      -7.2      3.522      6.932
REMARK  5 active torsions:
REMARK  status: ('A' for Active; 'I' for Inactive)
REMARK    1  A    between atoms: C_2  and  O_3 
REMARK    2  A    between atoms: O_3  and  C_4 
REMARK    3  A    between atoms: C_4  and  C_5 
REMARK    4  A    between atoms: C_6  and  C_7 
REMARK    5  A    between atoms: C_22  and  N_23 
ROOT
HETATM    1  C   UNL     1       6.014  26.994  52.752  1.00  0.00     0.075 A 
HETATM    2  C   UNL     1       6.545  26.588  54.003  1.00  0.00     0.008 A 
HETATM    3  C   UNL     1       6.985  25.241  54.144  1.00  0.00     0.045 A 
HETATM    4  C   UNL     1       6.805  24.416  53.019  1.00  0.00     0.143 A 
HETATM    5  N   UNL     1       7.080  23.058  53.088  1.00  0.00    -0.306 N 
HETATM    6  C   UNL     1       7.482  22.407  54.211  1.00  0.00     0.268 A 
HETATM    7  O   UNL     1       7.637  21.192  54.228  1.00  0.00    -0.266 OA
HETATM    8  C   UNL     1       7.748  23.256  55.391  1.00  0.00     0.120 A 
HETATM    9  C   UNL     1       8.246  22.576  56.656  1.00  0.00     0.027 C 
HETATM   10  N   UNL     1       8.659  22.010  57.705  1.00  0.00    -0.096 N 
HETATM   11  C   UNL     1       7.578  24.600  55.373  1.00  0.00     0.046 A 
HETATM   12  N   UNL     1       6.318  24.810  51.824  1.00  0.00    -0.234 NA
HETATM   13  C   UNL     1       5.923  26.094  51.695  1.00  0.00     0.050 A 
HETATM   14  C   UNL     1       5.357  26.481  50.360  1.00  0.00     0.071 C 
HETATM   15  H   UNL     1       6.889  22.510  52.260  1.00  0.00     0.170 HD
ENDROOT
BRANCH  11  16
HETATM   16  N   UNL     1       7.917  25.416  56.444  1.00  0.00    -0.301 NA
HETATM   17  H   UNL     1       8.829  25.871  56.402  1.00  0.00     0.124 HD
HETATM   18  H   UNL     1       7.204  26.091  56.710  1.00  0.00     0.124 HD
ENDBRANCH  11  16
BRANCH   2  19
HETATM   19  C   UNL     1       6.568  27.576  55.102  1.00  0.00    -0.024 A 
HETATM   20  C   UNL     1       7.620  28.500  55.215  1.00  0.00     0.014 A 
HETATM   21  C   UNL     1       7.638  29.442  56.247  1.00  0.00     0.024 A 
HETATM   22  C   UNL     1       6.609  29.461  57.185  1.00  0.00     0.034 A 
HETATM   23 CL   UNL     1       6.626  30.624  58.452  1.00  0.00    -0.084 Cl
HETATM   24  C   UNL     1       5.564  28.543  57.102  1.00  0.00     0.024 A 
HETATM   25  C   UNL     1       5.544  27.604  56.067  1.00  0.00     0.014 A 
ENDBRANCH   2  19
BRANCH   1  26
HETATM   26  C   UNL     1       5.467  28.347  52.565  1.00  0.00     0.296 C 
HETATM   27  O   UNL     1       6.102  29.268  52.089  1.00  0.00    -0.259 OA
BRANCH  26  28
HETATM   28  O   UNL     1       4.206  28.360  53.055  1.00  0.00    -0.318 OA
BRANCH  28  29
HETATM   29  C   UNL     1       3.527  29.624  53.022  1.00  0.00     0.174 C 
HETATM   30  C   UNL     1       3.745  30.330  54.345  1.00  0.00     0.034 C 
ENDBRANCH  28  29
ENDBRANCH  26  28
ENDBRANCH   1  26
TORSDOF 5
ENDMDL
MODEL 5
REMARK VINA RESULT:      -7.2      3.187      5.034
REMARK  5 active torsions:
REMARK  status: ('A' for Active; 'I' for Inactive)
REMARK    1  A    between atoms: C_2  and  O_3 
REMARK    2  A    between atoms: O_3  and  C_4 
REMARK    3  A    between atoms: C_4  and  C_5 
REMARK    4  A    between atoms: C_6  and  C_7 
REMARK    5  A    between atoms: C_22  and  N_23 
ROOT
HETATM    1  C   UNL     1       4.743  27.977  53.444  1.00  0.00     0.075 A 
HETATM    2  C   UNL     1       4.880  28.251  54.829  1.00  0.00     0.008 A 
HETATM    3  C   UNL     1       4.163  29.355  55.373  1.00  0.00     0.045 A 
HETATM    4  C   UNL     1       3.408  30.108  54.456  1.00  0.00     0.143 A 
HETATM    5  N   UNL     1       2.775  31.277  54.854  1.00  0.00    -0.306 N 
HETATM    6  C   UNL     1       2.859  31.815  56.098  1.00  0.00     0.268 A 
HETATM    7  O   UNL     1       2.337  32.890  56.369  1.00  0.00    -0.266 OA
HETATM    8  C   UNL     1       3.585  31.013  57.104  1.00  0.00     0.120 A 
HETATM    9  C   UNL     1       3.663  31.554  58.522  1.00  0.00     0.027 C 
HETATM   10  N   UNL     1       3.726  32.004  59.698  1.00  0.00    -0.096 N 
HETATM   11  C   UNL     1       4.161  29.823  56.807  1.00  0.00     0.046 A 
HETATM   12  N   UNL     1       3.263  29.833  53.142  1.00  0.00    -0.234 NA
HETATM   13  C   UNL     1       3.931  28.773  52.642  1.00  0.00     0.050 A 
HETATM   14  C   UNL     1       3.768  28.524  51.170  1.00  0.00     0.071 C 
HETATM   15  H   UNL     1       2.284  31.797  54.139  1.00  0.00     0.170 HD
ENDROOT
BRANCH  11  16
HETATM   16  N   UNL     1       4.762  29.016  57.764  1.00  0.00    -0.301 NA
HETATM   17  H   UNL     1       5.704  29.275  58.056  1.00  0.00     0.124 HD
HETATM   18  H   UNL     1       4.186  28.820  58.579  1.00  0.00     0.124 HD
ENDBRANCH  11  16
BRANCH   2  19
HETATM   19  C   UNL     1       5.796  27.401  55.618  1.00  0.00    -0.024 A 
HETATM   20  C   UNL     1       5.318  26.269  56.298  1.00  0.00     0.014 A 
HETATM   21  C   UNL     1       6.185  25.458  57.035  1.00  0.00     0.024 A 
HETATM   22  C   UNL     1       7.537  25.779  57.110  1.00  0.00     0.034 A 
HETATM   23 CL   UNL     1       8.607  24.778  58.012  1.00  0.00    -0.084 Cl
HETATM   24  C   UNL     1       8.031  26.906  56.458  1.00  0.00     0.024 A 
HETATM   25  C   UNL     1       7.164  27.715  55.716  1.00  0.00     0.014 A 
ENDBRANCH   2  19
BRANCH   1  26
HETATM   26  C   UNL     1       5.518  26.903  52.804  1.00  0.00     0.296 C 
HETATM   27  O   UNL     1       6.572  27.090  52.226  1.00  0.00    -0.259 OA
BRANCH  26  28
HETATM   28  O   UNL     1       4.827  25.748  52.942  1.00  0.00    -0.318 OA
BRANCH  28  29
HETATM   29  C   UNL     1       5.494  24.556  52.503  1.00  0.00     0.174 C 
HETATM   30  C   UNL     1       6.442  24.096  53.593  1.00  0.00     0.034 C 
ENDBRANCH  28  29
ENDBRANCH  26  28
ENDBRANCH   1  26
TORSDOF 5
ENDMDL
MODEL 6
REMARK VINA RESULT:      -7.0      6.741     11.008
REMARK  5 active torsions:
REMARK  status: ('A' for Active; 'I' for Inactive)
REMARK    1  A    between atoms: C_2  and  O_3 
REMARK    2  A    between atoms: O_3  and  C_4 
REMARK    3  A    between atoms: C_4  and  C_5 
REMARK    4  A    between atoms: C_6  and  C_7 
REMARK    5  A    between atoms: C_22  and  N_23 
ROOT
HETATM    1  C   UNL     1       5.801  33.955  63.493  1.00  0.00     0.075 A 
HETATM    2  C   UNL     1       5.539  33.530  62.166  1.00  0.00     0.008 A 
HETATM    3  C   UNL     1       6.411  32.568  61.582  1.00  0.00     0.045 A 
HETATM    4  C   UNL     1       7.496  32.158  62.378  1.00  0.00     0.143 A 
HETATM    5  N   UNL     1       8.476  31.323  61.862  1.00  0.00    -0.306 N 
HETATM    6  C   UNL     1       8.514  30.879  60.578  1.00  0.00     0.268 A 
HETATM    7  O   UNL     1       9.447  30.203  60.161  1.00  0.00    -0.266 OA
HETATM    8  C   UNL     1       7.354  31.233  59.735  1.00  0.00     0.120 A 
HETATM    9  C   UNL     1       7.332  30.718  58.306  1.00  0.00     0.027 C 
HETATM   10  N   UNL     1       7.315  30.288  57.120  1.00  0.00    -0.096 N 
HETATM   11  C   UNL     1       6.321  31.979  60.196  1.00  0.00     0.046 A 
HETATM   12  N   UNL     1       7.731  32.549  63.648  1.00  0.00    -0.234 NA
HETATM   13  C   UNL     1       6.887  33.445  64.200  1.00  0.00     0.050 A 
HETATM   14  C   UNL     1       7.205  33.878  65.602  1.00  0.00     0.071 C 
HETATM   15  H   UNL     1       9.252  31.099  62.469  1.00  0.00     0.170 HD
ENDROOT
BRANCH  11  16
HETATM   16  N   UNL     1       5.183  32.236  59.444  1.00  0.00    -0.301 NA
HETATM   17  H   UNL     1       4.470  32.822  59.877  1.00  0.00     0.124 HD
HETATM   18  H   UNL     1       5.360  32.550  58.493  1.00  0.00     0.124 HD
ENDBRANCH  11  16
BRANCH   2  19
HETATM   19  C   UNL     1       4.402  34.145  61.451  1.00  0.00    -0.024 A 
HETATM   20  C   UNL     1       4.577  35.320  60.701  1.00  0.00     0.014 A 
HETATM   21  C   UNL     1       3.505  35.897  60.016  1.00  0.00     0.024 A 
HETATM   22  C   UNL     1       2.243  35.313  60.084  1.00  0.00     0.034 A 
HETATM   23 CL   UNL     1       0.924  36.019  59.236  1.00  0.00    -0.084 Cl
HETATM   24  C   UNL     1       2.043  34.157  60.835  1.00  0.00     0.024 A 
HETATM   25  C   UNL     1       3.116  33.577  61.518  1.00  0.00     0.014 A 
ENDBRANCH   2  19
BRANCH   1  26
HETATM   26  C   UNL     1       4.988  35.006  64.126  1.00  0.00     0.296 C 
HETATM   27  O   UNL     1       5.266  36.189  64.080  1.00  0.00    -0.259 OA
BRANCH  26  28
HETATM   28  O   UNL     1       3.962  34.407  64.773  1.00  0.00    -0.318 OA
BRANCH  28  29
HETATM   29  C   UNL     1       3.445  35.102  65.919  1.00  0.00     0.174 C 
HETATM   30  C   UNL     1       4.088  34.531  67.167  1.00  0.00     0.034 C 
ENDBRANCH  28  29
ENDBRANCH  26  28
ENDBRANCH   1  26
TORSDOF 5
ENDMDL
MODEL 7
REMARK VINA RESULT:      -7.0      3.543      5.644
REMARK  5 active torsions:
REMARK  status: ('A' for Active; 'I' for Inactive)
REMARK    1  A    between atoms: C_2  and  O_3 
REMARK    2  A    between atoms: O_3  and  C_4 
REMARK    3  A    between atoms: C_4  and  C_5 
REMARK    4  A    between atoms: C_6  and  C_7 
REMARK    5  A    between atoms: C_22  and  N_23 
ROOT
HETATM    1  C   UNL     1       6.084  26.100  54.341  1.00  0.00     0.075 A 
HETATM    2  C   UNL     1       5.693  27.425  54.017  1.00  0.00     0.008 A 
HETATM    3  C   UNL     1       5.496  27.753  52.645  1.00  0.00     0.045 A 
HETATM    4  C   UNL     1       5.755  26.722  51.724  1.00  0.00     0.143 A 
HETATM    5  N   UNL     1       5.718  26.969  50.359  1.00  0.00    -0.306 N 
HETATM    6  C   UNL     1       5.489  28.186  49.800  1.00  0.00     0.268 A 
HETATM    7  O   UNL     1       5.542  28.356  48.588  1.00  0.00    -0.266 OA
HETATM    8  C   UNL     1       5.144  29.274  50.738  1.00  0.00     0.120 A 
HETATM    9  C   UNL     1       4.833  30.642  50.153  1.00  0.00     0.027 C 
HETATM   10  N   UNL     1       4.575  31.777  49.665  1.00  0.00    -0.096 N 
HETATM   11  C   UNL     1       5.082  29.088  52.078  1.00  0.00     0.046 A 
HETATM   12  N   UNL     1       6.107  25.457  52.037  1.00  0.00    -0.234 NA
HETATM   13  C   UNL     1       6.272  25.152  53.341  1.00  0.00     0.050 A 
HETATM   14  C   UNL     1       6.696  23.743  53.641  1.00  0.00     0.071 C 
HETATM   15  H   UNL     1       5.957  26.199  49.749  1.00  0.00     0.170 HD
ENDROOT
BRANCH  11  16
HETATM   16  N   UNL     1       4.665  30.077  52.958  1.00  0.00    -0.301 NA
HETATM   17  H   UNL     1       3.715  29.996  53.321  1.00  0.00     0.124 HD
HETATM   18  H   UNL     1       5.312  30.274  53.718  1.00  0.00     0.124 HD
ENDBRANCH  11  16
BRANCH   2  19
HETATM   19  C   UNL     1       5.560  28.399  55.120  1.00  0.00    -0.024 A 
HETATM   20  C   UNL     1       6.666  29.146  55.555  1.00  0.00     0.014 A 
HETATM   21  C   UNL     1       6.539  30.076  56.591  1.00  0.00     0.024 A 
HETATM   22  C   UNL     1       5.306  30.259  57.210  1.00  0.00     0.034 A 
HETATM   23 CL   UNL     1       5.146  31.408  58.480  1.00  0.00    -0.084 Cl
HETATM   24  C   UNL     1       4.198  29.517  56.805  1.00  0.00     0.024 A 
HETATM   25  C   UNL     1       4.324  28.590  55.766  1.00  0.00     0.014 A 
ENDBRANCH   2  19
BRANCH   1  26
HETATM   26  C   UNL     1       6.384  25.718  55.730  1.00  0.00     0.296 C 
HETATM   27  O   UNL     1       5.544  25.313  56.511  1.00  0.00    -0.259 OA
BRANCH  26  28
HETATM   28  O   UNL     1       7.699  25.949  55.952  1.00  0.00    -0.318 OA
BRANCH  28  29
HETATM   29  C   UNL     1       8.216  25.495  57.212  1.00  0.00     0.174 C 
HETATM   30  C   UNL     1       8.856  24.135  57.016  1.00  0.00     0.034 C 
ENDBRANCH  28  29
ENDBRANCH  26  28
ENDBRANCH   1  26
TORSDOF 5
ENDMDL
MODEL 8
REMARK VINA RESULT:      -6.9      3.303      5.289
REMARK  5 active torsions:
REMARK  status: ('A' for Active; 'I' for Inactive)
REMARK    1  A    between atoms: C_2  and  O_3 
REMARK    2  A    between atoms: O_3  and  C_4 
REMARK    3  A    between atoms: C_4  and  C_5 
REMARK    4  A    between atoms: C_6  and  C_7 
REMARK    5  A    between atoms: C_22  and  N_23 
ROOT
HETATM    1  C   UNL     1       7.348  24.942  54.152  1.00  0.00     0.075 A 
HETATM    2  C   UNL     1       6.934  26.298  54.123  1.00  0.00     0.008 A 
HETATM    3  C   UNL     1       6.318  26.790  52.937  1.00  0.00     0.045 A 
HETATM    4  C   UNL     1       6.217  25.876  51.873  1.00  0.00     0.143 A 
HETATM    5  N   UNL     1       5.750  26.285  50.632  1.00  0.00    -0.306 N 
HETATM    6  C   UNL     1       5.409  27.562  50.318  1.00  0.00     0.268 A 
HETATM    7  O   UNL     1       5.074  27.876  49.183  1.00  0.00    -0.266 OA
HETATM    8  C   UNL     1       5.436  28.532  51.432  1.00  0.00     0.120 A 
HETATM    9  C   UNL     1       5.016  29.963  51.137  1.00  0.00     0.027 C 
HETATM   10  N   UNL     1       4.666  31.149  50.891  1.00  0.00    -0.096 N 
HETATM   11  C   UNL     1       5.805  28.186  52.689  1.00  0.00     0.046 A 
HETATM   12  N   UNL     1       6.593  24.580  51.910  1.00  0.00    -0.234 NA
HETATM   13  C   UNL     1       7.157  24.119  53.046  1.00  0.00     0.050 A 
HETATM   14  C   UNL     1       7.591  22.682  53.032  1.00  0.00     0.071 C 
HETATM   15  H   UNL     1       5.742  25.592  49.896  1.00  0.00     0.170 HD
ENDROOT
BRANCH  11  16
HETATM   16  N   UNL     1       5.741  29.065  53.762  1.00  0.00    -0.301 NA
HETATM   17  H   UNL     1       6.618  29.265  54.243  1.00  0.00     0.124 HD
HETATM   18  H   UNL     1       5.242  29.931  53.576  1.00  0.00     0.124 HD
ENDBRANCH  11  16
BRANCH   2  19
HETATM   19  C   UNL     1       7.211  27.134  55.310  1.00  0.00    -0.024 A 
HETATM   20  C   UNL     1       6.361  27.096  56.428  1.00  0.00     0.014 A 
HETATM   21  C   UNL     1       6.627  27.877  57.556  1.00  0.00     0.024 A 
HETATM   22  C   UNL     1       7.738  28.715  57.571  1.00  0.00     0.034 A 
HETATM   23 CL   UNL     1       8.071  29.673  58.960  1.00  0.00    -0.084 Cl
HETATM   24  C   UNL     1       8.585  28.782  56.467  1.00  0.00     0.024 A 
HETATM   25  C   UNL     1       8.322  27.997  55.341  1.00  0.00     0.014 A 
ENDBRANCH   2  19
BRANCH   1  26
HETATM   26  C   UNL     1       8.065  24.393  55.314  1.00  0.00     0.296 C 
HETATM   27  O   UNL     1       9.217  24.674  55.586  1.00  0.00    -0.259 OA
BRANCH  26  28
HETATM   28  O   UNL     1       7.239  23.526  55.943  1.00  0.00    -0.318 OA
BRANCH  28  29
HETATM   29  C   UNL     1       7.857  22.630  56.880  1.00  0.00     0.174 C 
HETATM   30  C   UNL     1       7.945  21.253  56.253  1.00  0.00     0.034 C 
ENDBRANCH  28  29
ENDBRANCH  26  28
ENDBRANCH   1  26
TORSDOF 5
ENDMDL
MODEL 9
REMARK VINA RESULT:      -6.8      5.671     10.000
REMARK  5 active torsions:
REMARK  status: ('A' for Active; 'I' for Inactive)
REMARK    1  A    between atoms: C_2  and  O_3 
REMARK    2  A    between atoms: O_3  and  C_4 
REMARK    3  A    between atoms: C_4  and  C_5 
REMARK    4  A    between atoms: C_6  and  C_7 
REMARK    5  A    between atoms: C_22  and  N_23 
ROOT
HETATM    1  C   UNL     1       6.200  33.308  62.202  1.00  0.00     0.075 A 
HETATM    2  C   UNL     1       5.672  32.943  60.937  1.00  0.00     0.008 A 
HETATM    3  C   UNL     1       6.317  31.901  60.212  1.00  0.00     0.045 A 
HETATM    4  C   UNL     1       7.465  31.354  60.814  1.00  0.00     0.143 A 
HETATM    5  N   UNL     1       8.242  30.424  60.138  1.00  0.00    -0.306 N 
HETATM    6  C   UNL     1       8.013  30.006  58.865  1.00  0.00     0.268 A 
HETATM    7  O   UNL     1       8.778  29.238  58.295  1.00  0.00    -0.266 OA
HETATM    8  C   UNL     1       6.777  30.508  58.231  1.00  0.00     0.120 A 
HETATM    9  C   UNL     1       6.456  30.028  56.825  1.00  0.00     0.027 C 
HETATM   10  N   UNL     1       6.191  29.628  55.658  1.00  0.00    -0.096 N 
HETATM   11  C   UNL     1       5.929  31.356  58.861  1.00  0.00     0.046 A 
HETATM   12  N   UNL     1       7.953  31.689  62.026  1.00  0.00    -0.234 NA
HETATM   13  C   UNL     1       7.322  32.664  62.714  1.00  0.00     0.050 A 
HETATM   14  C   UNL     1       7.919  33.028  64.042  1.00  0.00     0.071 C 
HETATM   15  H   UNL     1       9.078  30.101  60.605  1.00  0.00     0.170 HD
ENDROOT
BRANCH  11  16
HETATM   16  N   UNL     1       4.717  31.756  58.312  1.00  0.00    -0.301 NA
HETATM   17  H   UNL     1       4.762  32.412  57.533  1.00  0.00     0.124 HD
HETATM   18  H   UNL     1       4.077  30.998  58.092  1.00  0.00     0.124 HD
ENDBRANCH  11  16
BRANCH   2  19
HETATM   19  C   UNL     1       4.509  33.699  60.425  1.00  0.00    -0.024 A 
HETATM   20  C   UNL     1       4.676  34.704  59.459  1.00  0.00     0.014 A 
HETATM   21  C   UNL     1       3.577  35.412  58.966  1.00  0.00     0.024 A 
HETATM   22  C   UNL     1       2.301  35.131  59.445  1.00  0.00     0.034 A 
HETATM   23 CL   UNL     1       0.946  35.997  58.835  1.00  0.00    -0.084 Cl
HETATM   24  C   UNL     1       2.113  34.150  60.416  1.00  0.00     0.024 A 
HETATM   25  C   UNL     1       3.213  33.438  60.906  1.00  0.00     0.014 A 
ENDBRANCH   2  19
BRANCH   1  26
HETATM   26  C   UNL     1       5.631  34.430  62.965  1.00  0.00     0.296 C 
HETATM   27  O   UNL     1       4.826  34.291  63.865  1.00  0.00    -0.259 OA
BRANCH  26  28
HETATM   28  O   UNL     1       6.124  35.580  62.447  1.00  0.00    -0.318 OA
BRANCH  28  29
HETATM   29  C   UNL     1       5.606  36.797  63.005  1.00  0.00     0.174 C 
HETATM   30  C   UNL     1       4.468  37.288  62.132  1.00  0.00     0.034 C 
ENDBRANCH  28  29
ENDBRANCH  26  28
ENDBRANCH   1  26
TORSDOF 5
ENDMDL
MODEL 10
REMARK VINA RESULT:      -6.7      2.662      4.067
REMARK  5 active torsions:
REMARK  status: ('A' for Active; 'I' for Inactive)
REMARK    1  A    between atoms: C_2  and  O_3 
REMARK    2  A    between atoms: O_3  and  C_4 
REMARK    3  A    between atoms: C_4  and  C_5 
REMARK    4  A    between atoms: C_6  and  C_7 
REMARK    5  A    between atoms: C_22  and  N_23 
ROOT
HETATM    1  C   UNL     1       7.454  29.556  57.572  1.00  0.00     0.075 A 
HETATM    2  C   UNL     1       6.440  29.717  56.592  1.00  0.00     0.008 A 
HETATM    3  C   UNL     1       5.542  30.814  56.725  1.00  0.00     0.045 A 
HETATM    4  C   UNL     1       5.724  31.622  57.862  1.00  0.00     0.143 A 
HETATM    5  N   UNL     1       4.828  32.640  58.157  1.00  0.00    -0.306 N 
HETATM    6  C   UNL     1       3.707  32.913  57.439  1.00  0.00     0.268 A 
HETATM    7  O   UNL     1       2.914  33.777  57.792  1.00  0.00    -0.266 OA
HETATM    8  C   UNL     1       3.524  32.129  56.200  1.00  0.00     0.120 A 
HETATM    9  C   UNL     1       2.308  32.434  55.341  1.00  0.00     0.027 C 
HETATM   10  N   UNL     1       1.298  32.689  54.629  1.00  0.00    -0.096 N 
HETATM   11  C   UNL     1       4.401  31.174  55.808  1.00  0.00     0.046 A 
HETATM   12  N   UNL     1       6.702  31.479  58.782  1.00  0.00    -0.234 NA
HETATM   13  C   UNL     1       7.560  30.448  58.635  1.00  0.00     0.050 A 
HETATM   14  C   UNL     1       8.610  30.306  59.698  1.00  0.00     0.071 C 
HETATM   15  H   UNL     1       4.988  33.157  59.011  1.00  0.00     0.170 HD
ENDROOT
BRANCH  11  16
HETATM   16  N   UNL     1       4.290  30.500  54.598  1.00  0.00    -0.301 NA
HETATM   17  H   UNL     1       3.350  30.394  54.217  1.00  0.00     0.124 HD
HETATM   18  H   UNL     1       4.926  30.819  53.872  1.00  0.00     0.124 HD
ENDBRANCH  11  16
BRANCH   2  19
HETATM   19  C   UNL     1       6.348  28.709  55.516  1.00  0.00    -0.024 A 
HETATM   20  C   UNL     1       5.314  27.758  55.511  1.00  0.00     0.014 A 
HETATM   21  C   UNL     1       5.219  26.810  54.488  1.00  0.00     0.024 A 
HETATM   22  C   UNL     1       6.165  26.796  53.467  1.00  0.00     0.034 A 
HETATM   23 CL   UNL     1       6.045  25.635  52.204  1.00  0.00    -0.084 Cl
HETATM   24  C   UNL     1       7.208  27.719  53.461  1.00  0.00     0.024 A 
HETATM   25  C   UNL     1       7.301  28.670  54.481  1.00  0.00     0.014 A 
ENDBRANCH   2  19
BRANCH   1  26
HETATM   26  C   UNL     1       8.361  28.399  57.539  1.00  0.00     0.296 C 
HETATM   27  O   UNL     1       9.484  28.439  57.072  1.00  0.00    -0.259 OA
BRANCH  26  28
HETATM   28  O   UNL     1       7.703  27.336  58.056  1.00  0.00    -0.318 OA
BRANCH  28  29
HETATM   29  C   UNL     1       8.061  26.051  57.525  1.00  0.00     0.174 C 
HETATM   30  C   UNL     1       6.804  25.216  57.377  1.00  0.00     0.034 C 
ENDBRANCH  28  29
ENDBRANCH  26  28
ENDBRANCH   1  26
TORSDOF 5
ENDMDL
