MODEL 1
REMARK VINA RESULT:      -9.5      0.000      0.000
REMARK  8 active torsions:
REMARK  status: ('A' for Active; 'I' for Inactive)
REMARK    1  A    between atoms: C_2  and  C_3 
REMARK    2  A    between atoms: C_4  and  N_5 
REMARK    3  A    between atoms: N_5  and  S_6 
REMARK    4  A    between atoms: S_6  and  C_7 
REMARK    5  A    between atoms: C_13  and  C_14 
REMARK       I    between atoms: C_14  and  N_15 
REMARK    6  A    between atoms: N_15  and  C_16 
REMARK    7  A    between atoms: C_16  and  C_17 
REMARK    8  A    between atoms: C_17  and  O_18 
ROOT
HETATM    1  C   UNL     1       6.119  26.980  54.277  1.00  0.00     0.081 A 
HETATM    2  C   UNL     1       7.089  27.232  55.250  1.00  0.00     0.043 A 
HETATM    3  C   UNL     1       6.935  28.340  56.090  1.00  0.00     0.043 A 
HETATM    4  C   UNL     1       5.799  29.165  56.000  1.00  0.00     0.046 A 
HETATM    5  N   UNL     1       5.677  30.275  56.841  1.00  0.00    -0.364 N 
HETATM    6  C   UNL     1       6.616  30.532  57.806  1.00  0.00     0.109 A 
HETATM    7  C   UNL     1       7.748  29.831  57.999  1.00  0.00     0.098 A 
HETATM    8  C   UNL     1       7.981  28.668  57.097  1.00  0.00     0.201 A 
HETATM    9  O   UNL     1       9.006  27.993  57.164  1.00  0.00    -0.286 OA
HETATM   10  C   UNL     1       4.837  28.892  55.023  1.00  0.00     0.032 A 
HETATM   11  C   UNL     1       4.991  27.800  54.165  1.00  0.00     0.027 A 
HETATM   12  H   UNL     1       4.799  30.783  56.873  1.00  0.00     0.165 HD
ENDROOT
BRANCH   1  13
HETATM   13  S   UNL     1       6.278  25.553  53.229  1.00  0.00     0.263 S 
HETATM   14  O   UNL     1       6.520  26.039  51.885  1.00  0.00    -0.200 OA
HETATM   15  O   UNL     1       5.179  24.658  53.507  1.00  0.00    -0.200 OA
BRANCH  13  16
HETATM   16  N   UNL     1       7.744  24.874  53.735  1.00  0.00    -0.280 N 
HETATM   17  H   UNL     1       8.515  25.252  53.186  1.00  0.00     0.179 HD
BRANCH  16  18
HETATM   18  C   UNL     1       7.773  23.473  54.000  1.00  0.00     0.049 A 
HETATM   19  C   UNL     1       7.715  22.974  55.312  1.00  0.00    -0.031 A 
HETATM   20  C   UNL     1       7.793  21.584  55.504  1.00  0.00     0.009 A 
HETATM   21  C   UNL     1       7.938  20.717  54.419  1.00  0.00     0.001 A 
HETATM   22  C   UNL     1       7.997  21.226  53.126  1.00  0.00     0.002 A 
HETATM   23  C   UNL     1       7.913  22.601  52.917  1.00  0.00     0.030 A 
BRANCH  19  24
HETATM   24  C   UNL     1       7.546  23.861  56.523  1.00  0.00     0.036 C 
HETATM   25  C   UNL     1       8.886  24.341  57.062  1.00  0.00     0.010 C 
ENDBRANCH  19  24
ENDBRANCH  16  18
ENDBRANCH  13  16
ENDBRANCH   1  13
BRANCH   7  26
HETATM   26  C   UNL     1       8.680  30.277  59.073  1.00  0.00     0.257 C 
HETATM   27  N   UNL     1       8.144  30.340  60.332  1.00  0.00    -0.355 N 
HETATM   28  H   UNL     1       7.136  30.221  60.441  1.00  0.00     0.162 HD
HETATM   29  O   UNL     1       9.852  30.559  58.833  1.00  0.00    -0.267 OA
BRANCH  27  30
HETATM   30  C   UNL     1       8.900  30.807  61.479  1.00  0.00     0.149 C 
BRANCH  30  31
HETATM   31  C   UNL     1       7.998  31.214  62.644  1.00  0.00     0.186 C 
BRANCH  31  32
HETATM   32  O   UNL     1       8.466  32.455  63.185  1.00  0.00    -0.394 OA
HETATM   33  C   UNL     1       7.542  32.999  64.118  1.00  0.00     0.201 C 
ENDBRANCH  31  32
ENDBRANCH  30  31
ENDBRANCH  27  30
ENDBRANCH   7  26
TORSDOF 8
ENDMDL
MODEL 2
REMARK VINA RESULT:      -9.2      1.949      2.373
REMARK  8 active torsions:
REMARK  status: ('A' for Active; 'I' for Inactive)
REMARK    1  A    between atoms: C_2  and  C_3 
REMARK    2  A    between atoms: C_4  and  N_5 
REMARK    3  A    between atoms: N_5  and  S_6 
REMARK    4  A    between atoms: S_6  and  C_7 
REMARK    5  A    between atoms: C_13  and  C_14 
REMARK       I    between atoms: C_14  and  N_15 
REMARK    6  A    between atoms: N_15  and  C_16 
REMARK    7  A    between atoms: C_16  and  C_17 
REMARK    8  A    between atoms: C_17  and  O_18 
ROOT
HETATM    1  C   UNL     1       6.477  28.069  54.503  1.00  0.00     0.081 A 
HETATM    2  C   UNL     1       6.318  28.755  55.709  1.00  0.00     0.043 A 
HETATM    3  C   UNL     1       7.446  29.293  56.337  1.00  0.00     0.043 A 
HETATM    4  C   UNL     1       8.720  29.196  55.747  1.00  0.00     0.046 A 
HETATM    5  N   UNL     1       9.834  29.728  56.403  1.00  0.00    -0.364 N 
HETATM    6  C   UNL     1       9.693  30.411  57.583  1.00  0.00     0.109 A 
HETATM    7  C   UNL     1       8.542  30.575  58.257  1.00  0.00     0.098 A 
HETATM    8  C   UNL     1       7.317  29.979  57.652  1.00  0.00     0.201 A 
HETATM    9  O   UNL     1       6.225  30.035  58.213  1.00  0.00    -0.286 OA
HETATM   10  C   UNL     1       8.857  28.509  54.536  1.00  0.00     0.032 A 
HETATM   11  C   UNL     1       7.739  27.950  53.910  1.00  0.00     0.027 A 
HETATM   12  H   UNL     1      10.722  29.782  55.914  1.00  0.00     0.165 HD
ENDROOT
BRANCH   1  13
HETATM   13  S   UNL     1       5.049  27.415  53.671  1.00  0.00     0.263 S 
HETATM   14  O   UNL     1       5.447  27.128  52.307  1.00  0.00    -0.200 OA
HETATM   15  O   UNL     1       3.924  28.278  53.949  1.00  0.00    -0.200 OA
BRANCH  13  16
HETATM   16  N   UNL     1       4.841  25.905  54.407  1.00  0.00    -0.280 N 
HETATM   17  H   UNL     1       4.376  26.013  55.307  1.00  0.00     0.179 HD
BRANCH  16  18
HETATM   18  C   UNL     1       5.927  24.982  54.354  1.00  0.00     0.049 A 
HETATM   19  C   UNL     1       6.675  24.663  55.500  1.00  0.00    -0.031 A 
HETATM   20  C   UNL     1       7.759  23.780  55.368  1.00  0.00     0.009 A 
HETATM   21  C   UNL     1       8.098  23.241  54.125  1.00  0.00     0.001 A 
HETATM   22  C   UNL     1       7.351  23.569  52.998  1.00  0.00     0.002 A 
HETATM   23  C   UNL     1       6.267  24.436  53.113  1.00  0.00     0.030 A 
BRANCH  19  24
HETATM   24  C   UNL     1       6.348  25.204  56.872  1.00  0.00     0.036 C 
HETATM   25  C   UNL     1       7.576  25.788  57.555  1.00  0.00     0.010 C 
ENDBRANCH  19  24
ENDBRANCH  16  18
ENDBRANCH  13  16
ENDBRANCH   1  13
BRANCH   7  26
HETATM   26  C   UNL     1       8.579  31.314  59.550  1.00  0.00     0.257 C 
HETATM   27  N   UNL     1       8.082  30.637  60.632  1.00  0.00    -0.355 N 
HETATM   28  H   UNL     1       7.600  29.751  60.476  1.00  0.00     0.162 HD
HETATM   29  O   UNL     1       9.035  32.453  59.629  1.00  0.00    -0.267 OA
BRANCH  27  30
HETATM   30  C   UNL     1       7.995  31.233  61.953  1.00  0.00     0.149 C 
BRANCH  30  31
HETATM   31  C   UNL     1       6.642  31.897  62.203  1.00  0.00     0.186 C 
BRANCH  31  32
HETATM   32  O   UNL     1       6.845  33.102  62.950  1.00  0.00    -0.394 OA
HETATM   33  C   UNL     1       7.853  32.940  63.939  1.00  0.00     0.201 C 
ENDBRANCH  31  32
ENDBRANCH  30  31
ENDBRANCH  27  30
ENDBRANCH   7  26
TORSDOF 8
ENDMDL
MODEL 3
REMARK VINA RESULT:      -9.1      2.143      2.808
REMARK  8 active torsions:
REMARK  status: ('A' for Active; 'I' for Inactive)
REMARK    1  A    between atoms: C_2  and  C_3 
REMARK    2  A    between atoms: C_4  and  N_5 
REMARK    3  A    between atoms: N_5  and  S_6 
REMARK    4  A    between atoms: S_6  and  C_7 
REMARK    5  A    between atoms: C_13  and  C_14 
REMARK       I    between atoms: C_14  and  N_15 
REMARK    6  A    between atoms: N_15  and  C_16 
REMARK    7  A    between atoms: C_16  and  C_17 
REMARK    8  A    between atoms: C_17  and  O_18 
ROOT
HETATM    1  C   UNL     1       7.289  25.619  56.659  1.00  0.00     0.081 A 
HETATM    2  C   UNL     1       7.704  26.722  57.408  1.00  0.00     0.043 A 
HETATM    3  C   UNL     1       6.918  27.880  57.405  1.00  0.00     0.043 A 
HETATM    4  C   UNL     1       5.701  27.926  56.701  1.00  0.00     0.046 A 
HETATM    5  N   UNL     1       4.942  29.100  56.700  1.00  0.00    -0.364 N 
HETATM    6  C   UNL     1       5.331  30.188  57.437  1.00  0.00     0.109 A 
HETATM    7  C   UNL     1       6.468  30.282  58.148  1.00  0.00     0.098 A 
HETATM    8  C   UNL     1       7.364  29.091  58.146  1.00  0.00     0.201 A 
HETATM    9  O   UNL     1       8.446  29.094  58.728  1.00  0.00    -0.286 OA
HETATM   10  C   UNL     1       5.300  26.809  55.961  1.00  0.00     0.032 A 
HETATM   11  C   UNL     1       6.088  25.655  55.942  1.00  0.00     0.027 A 
HETATM   12  H   UNL     1       4.003  29.087  56.314  1.00  0.00     0.165 HD
ENDROOT
BRANCH   1  13
HETATM   13  S   UNL     1       8.254  24.127  56.686  1.00  0.00     0.263 S 
HETATM   14  O   UNL     1       8.400  23.742  58.076  1.00  0.00    -0.200 OA
HETATM   15  O   UNL     1       9.413  24.317  55.845  1.00  0.00    -0.200 OA
BRANCH  13  16
HETATM   16  N   UNL     1       7.204  22.985  56.009  1.00  0.00    -0.280 N 
HETATM   17  H   UNL     1       6.619  22.572  56.733  1.00  0.00     0.179 HD
BRANCH  16  18
HETATM   18  C   UNL     1       7.731  22.095  55.026  1.00  0.00     0.049 A 
HETATM   19  C   UNL     1       7.591  22.355  53.652  1.00  0.00    -0.031 A 
HETATM   20  C   UNL     1       8.095  21.414  52.738  1.00  0.00     0.009 A 
HETATM   21  C   UNL     1       8.709  20.241  53.182  1.00  0.00     0.001 A 
HETATM   22  C   UNL     1       8.838  19.996  54.545  1.00  0.00     0.002 A 
HETATM   23  C   UNL     1       8.351  20.923  55.465  1.00  0.00     0.030 A 
BRANCH  19  24
HETATM   24  C   UNL     1       6.949  23.611  53.114  1.00  0.00     0.036 C 
HETATM   25  C   UNL     1       7.989  24.624  52.657  1.00  0.00     0.010 C 
ENDBRANCH  19  24
ENDBRANCH  16  18
ENDBRANCH  13  16
ENDBRANCH   1  13
BRANCH   7  26
HETATM   26  C   UNL     1       6.753  31.560  58.859  1.00  0.00     0.257 C 
HETATM   27  N   UNL     1       7.426  31.439  60.046  1.00  0.00    -0.355 N 
HETATM   28  H   UNL     1       7.567  30.506  60.436  1.00  0.00     0.162 HD
HETATM   29  O   UNL     1       6.408  32.646  58.398  1.00  0.00    -0.267 OA
BRANCH  27  30
HETATM   30  C   UNL     1       7.733  32.580  60.889  1.00  0.00     0.149 C 
BRANCH  30  31
HETATM   31  C   UNL     1       6.862  32.627  62.144  1.00  0.00     0.186 C 
BRANCH  31  32
HETATM   32  O   UNL     1       7.646  32.223  63.272  1.00  0.00    -0.394 OA
HETATM   33  C   UNL     1       7.584  33.180  64.322  1.00  0.00     0.201 C 
ENDBRANCH  31  32
ENDBRANCH  30  31
ENDBRANCH  27  30
ENDBRANCH   7  26
TORSDOF 8
ENDMDL
MODEL 4
REMARK VINA RESULT:      -8.9      1.810      2.353
REMARK  8 active torsions:
REMARK  status: ('A' for Active; 'I' for Inactive)
REMARK    1  A    between atoms: C_2  and  C_3 
REMARK    2  A    between atoms: C_4  and  N_5 
REMARK    3  A    between atoms: N_5  and  S_6 
REMARK    4  A    between atoms: S_6  and  C_7 
REMARK    5  A    between atoms: C_13  and  C_14 
REMARK       I    between atoms: C_14  and  N_15 
REMARK    6  A    between atoms: N_15  and  C_16 
REMARK    7  A    between atoms: C_16  and  C_17 
REMARK    8  A    between atoms: C_17  and  O_18 
ROOT
HETATM    1  C   UNL     1       5.782  27.176  53.560  1.00  0.00     0.081 A 
HETATM    2  C   UNL     1       6.414  27.820  54.625  1.00  0.00     0.043 A 
HETATM    3  C   UNL     1       5.772  28.900  55.242  1.00  0.00     0.043 A 
HETATM    4  C   UNL     1       4.488  29.306  54.837  1.00  0.00     0.046 A 
HETATM    5  N   UNL     1       3.875  30.399  55.458  1.00  0.00    -0.364 N 
HETATM    6  C   UNL     1       4.478  31.037  56.511  1.00  0.00     0.109 A 
HETATM    7  C   UNL     1       5.701  30.758  56.995  1.00  0.00     0.098 A 
HETATM    8  C   UNL     1       6.446  29.645  56.341  1.00  0.00     0.201 A 
HETATM    9  O   UNL     1       7.587  29.342  56.681  1.00  0.00    -0.286 OA
HETATM   10  C   UNL     1       3.869  28.644  53.772  1.00  0.00     0.032 A 
HETATM   11  C   UNL     1       4.510  27.577  53.136  1.00  0.00     0.027 A 
HETATM   12  H   UNL     1       2.899  30.601  55.264  1.00  0.00     0.165 HD
ENDROOT
BRANCH   1  13
HETATM   13  S   UNL     1       6.564  25.776  52.794  1.00  0.00     0.263 S 
HETATM   14  O   UNL     1       7.994  25.938  52.972  1.00  0.00    -0.200 OA
HETATM   15  O   UNL     1       5.997  25.600  51.476  1.00  0.00    -0.200 OA
BRANCH  13  16
HETATM   16  N   UNL     1       6.125  24.495  53.809  1.00  0.00    -0.280 N 
HETATM   17  H   UNL     1       5.490  24.822  54.535  1.00  0.00     0.179 HD
BRANCH  16  18
HETATM   18  C   UNL     1       7.147  23.586  54.214  1.00  0.00     0.049 A 
HETATM   19  C   UNL     1       7.659  23.594  55.523  1.00  0.00    -0.031 A 
HETATM   20  C   UNL     1       8.696  22.701  55.842  1.00  0.00     0.009 A 
HETATM   21  C   UNL     1       9.218  21.834  54.880  1.00  0.00     0.001 A 
HETATM   22  C   UNL     1       8.703  21.839  53.588  1.00  0.00     0.002 A 
HETATM   23  C   UNL     1       7.669  22.712  53.256  1.00  0.00     0.030 A 
BRANCH  19  24
HETATM   24  C   UNL     1       7.126  24.499  56.609  1.00  0.00     0.036 C 
HETATM   25  C   UNL     1       8.147  25.553  57.015  1.00  0.00     0.010 C 
ENDBRANCH  19  24
ENDBRANCH  16  18
ENDBRANCH  13  16
ENDBRANCH   1  13
BRANCH   7  26
HETATM   26  C   UNL     1       6.220  31.583  58.122  1.00  0.00     0.257 C 
HETATM   27  N   UNL     1       6.971  30.911  59.049  1.00  0.00    -0.355 N 
HETATM   28  H   UNL     1       7.015  29.893  58.999  1.00  0.00     0.162 HD
HETATM   29  O   UNL     1       5.988  32.788  58.199  1.00  0.00    -0.267 OA
BRANCH  27  30
HETATM   30  C   UNL     1       7.505  31.555  60.235  1.00  0.00     0.149 C 
BRANCH  30  31
HETATM   31  C   UNL     1       9.029  31.666  60.201  1.00  0.00     0.186 C 
BRANCH  31  32
HETATM   32  O   UNL     1       9.424  32.294  58.976  1.00  0.00    -0.394 OA
HETATM   33  C   UNL     1      10.296  31.463  58.221  1.00  0.00     0.201 C 
ENDBRANCH  31  32
ENDBRANCH  30  31
ENDBRANCH  27  30
ENDBRANCH   7  26
TORSDOF 8
ENDMDL
MODEL 5
REMARK VINA RESULT:      -8.5      1.609      2.580
REMARK  8 active torsions:
REMARK  status: ('A' for Active; 'I' for Inactive)
REMARK    1  A    between atoms: C_2  and  C_3 
REMARK    2  A    between atoms: C_4  and  N_5 
REMARK    3  A    between atoms: N_5  and  S_6 
REMARK    4  A    between atoms: S_6  and  C_7 
REMARK    5  A    between atoms: C_13  and  C_14 
REMARK       I    between atoms: C_14  and  N_15 
REMARK    6  A    between atoms: N_15  and  C_16 
REMARK    7  A    between atoms: C_16  and  C_17 
REMARK    8  A    between atoms: C_17  and  O_18 
ROOT
HETATM    1  C   UNL     1       5.767  27.162  53.485  1.00  0.00     0.081 A 
HETATM    2  C   UNL     1       6.425  27.860  54.500  1.00  0.00     0.043 A 
HETATM    3  C   UNL     1       5.747  28.887  55.166  1.00  0.00     0.043 A 
HETATM    4  C   UNL     1       4.407  29.187  54.861  1.00  0.00     0.046 A 
HETATM    5  N   UNL     1       3.757  30.229  55.529  1.00  0.00    -0.364 N 
HETATM    6  C   UNL     1       4.386  30.919  56.533  1.00  0.00     0.109 A 
HETATM    7  C   UNL     1       5.661  30.741  56.922  1.00  0.00     0.098 A 
HETATM    8  C   UNL     1       6.441  29.689  56.211  1.00  0.00     0.201 A 
HETATM    9  O   UNL     1       7.625  29.481  56.462  1.00  0.00    -0.286 OA
HETATM   10  C   UNL     1       3.764  28.472  53.845  1.00  0.00     0.032 A 
HETATM   11  C   UNL     1       4.438  27.457  53.160  1.00  0.00     0.027 A 
HETATM   12  H   UNL     1       2.757  30.351  55.411  1.00  0.00     0.165 HD
ENDROOT
BRANCH   1  13
HETATM   13  S   UNL     1       6.599  25.826  52.659  1.00  0.00     0.263 S 
HETATM   14  O   UNL     1       8.010  25.949  52.968  1.00  0.00    -0.200 OA
HETATM   15  O   UNL     1       6.142  25.781  51.289  1.00  0.00    -0.200 OA
BRANCH  13  16
HETATM   16  N   UNL     1       6.067  24.464  53.511  1.00  0.00    -0.280 N 
HETATM   17  H   UNL     1       5.084  24.566  53.760  1.00  0.00     0.179 HD
BRANCH  16  18
HETATM   18  C   UNL     1       6.928  23.926  54.513  1.00  0.00     0.049 A 
HETATM   19  C   UNL     1       7.746  22.812  54.255  1.00  0.00    -0.031 A 
HETATM   20  C   UNL     1       8.538  22.307  55.300  1.00  0.00     0.009 A 
HETATM   21  C   UNL     1       8.504  22.886  56.570  1.00  0.00     0.001 A 
HETATM   22  C   UNL     1       7.687  23.986  56.811  1.00  0.00     0.002 A 
HETATM   23  C   UNL     1       6.902  24.506  55.784  1.00  0.00     0.030 A 
BRANCH  19  24
HETATM   24  C   UNL     1       7.834  22.153  52.899  1.00  0.00     0.036 C 
HETATM   25  C   UNL     1       8.184  20.675  53.013  1.00  0.00     0.010 C 
ENDBRANCH  19  24
ENDBRANCH  16  18
ENDBRANCH  13  16
ENDBRANCH   1  13
BRANCH   7  26
HETATM   26  C   UNL     1       6.196  31.611  58.007  1.00  0.00     0.257 C 
HETATM   27  N   UNL     1       6.896  30.965  58.991  1.00  0.00    -0.355 N 
HETATM   28  H   UNL     1       6.892  29.944  59.005  1.00  0.00     0.162 HD
HETATM   29  O   UNL     1       6.021  32.828  58.004  1.00  0.00    -0.267 OA
BRANCH  27  30
HETATM   30  C   UNL     1       7.436  31.656  60.147  1.00  0.00     0.149 C 
BRANCH  30  31
HETATM   31  C   UNL     1       6.358  32.004  61.173  1.00  0.00     0.186 C 
BRANCH  31  32
HETATM   32  O   UNL     1       6.885  31.807  62.490  1.00  0.00    -0.394 OA
HETATM   33  C   UNL     1       8.263  31.455  62.453  1.00  0.00     0.201 C 
ENDBRANCH  31  32
ENDBRANCH  30  31
ENDBRANCH  27  30
ENDBRANCH   7  26
TORSDOF 8
ENDMDL
MODEL 6
REMARK VINA RESULT:      -8.4      2.539      9.382
REMARK  8 active torsions:
REMARK  status: ('A' for Active; 'I' for Inactive)
REMARK    1  A    between atoms: C_2  and  C_3 
REMARK    2  A    between atoms: C_4  and  N_5 
REMARK    3  A    between atoms: N_5  and  S_6 
REMARK    4  A    between atoms: S_6  and  C_7 
REMARK    5  A    between atoms: C_13  and  C_14 
REMARK       I    between atoms: C_14  and  N_15 
REMARK    6  A    between atoms: N_15  and  C_16 
REMARK    7  A    between atoms: C_16  and  C_17 
REMARK    8  A    between atoms: C_17  and  O_18 
ROOT
HETATM    1  C   UNL     1       5.923  30.731  58.024  1.00  0.00     0.081 A 
HETATM    2  C   UNL     1       6.814  29.713  57.679  1.00  0.00     0.043 A 
HETATM    3  C   UNL     1       6.371  28.674  56.854  1.00  0.00     0.043 A 
HETATM    4  C   UNL     1       5.064  28.671  56.333  1.00  0.00     0.046 A 
HETATM    5  N   UNL     1       4.640  27.612  55.524  1.00  0.00    -0.364 N 
HETATM    6  C   UNL     1       5.505  26.609  55.169  1.00  0.00     0.109 A 
HETATM    7  C   UNL     1       6.773  26.486  55.597  1.00  0.00     0.098 A 
HETATM    8  C   UNL     1       7.279  27.544  56.516  1.00  0.00     0.201 A 
HETATM    9  O   UNL     1       8.409  27.497  56.998  1.00  0.00    -0.286 OA
HETATM   10  C   UNL     1       4.188  29.702  56.686  1.00  0.00     0.032 A 
HETATM   11  C   UNL     1       4.616  30.735  57.525  1.00  0.00     0.027 A 
HETATM   12  H   UNL     1       3.752  27.681  55.036  1.00  0.00     0.165 HD
ENDROOT
BRANCH   1  13
HETATM   13  S   UNL     1       6.482  32.080  59.036  1.00  0.00     0.263 S 
HETATM   14  O   UNL     1       5.717  33.249  58.648  1.00  0.00    -0.200 OA
HETATM   15  O   UNL     1       7.927  32.101  59.013  1.00  0.00    -0.200 OA
BRANCH  13  16
HETATM   16  N   UNL     1       5.915  31.660  60.575  1.00  0.00    -0.280 N 
HETATM   17  H   UNL     1       4.911  31.489  60.545  1.00  0.00     0.179 HD
BRANCH  16  18
HETATM   18  C   UNL     1       6.406  32.400  61.691  1.00  0.00     0.049 A 
HETATM   19  C   UNL     1       7.456  31.914  62.489  1.00  0.00    -0.031 A 
HETATM   20  C   UNL     1       7.860  32.673  63.600  1.00  0.00     0.009 A 
HETATM   21  C   UNL     1       7.226  33.877  63.915  1.00  0.00     0.001 A 
HETATM   22  C   UNL     1       6.186  34.344  63.118  1.00  0.00     0.002 A 
HETATM   23  C   UNL     1       5.778  33.608  62.008  1.00  0.00     0.030 A 
BRANCH  19  24
HETATM   24  C   UNL     1       8.187  30.627  62.190  1.00  0.00     0.036 C 
HETATM   25  C   UNL     1       9.649  30.876  61.846  1.00  0.00     0.010 C 
ENDBRANCH  19  24
ENDBRANCH  16  18
ENDBRANCH  13  16
ENDBRANCH   1  13
BRANCH   7  26
HETATM   26  C   UNL     1       7.561  25.306  55.142  1.00  0.00     0.257 C 
HETATM   27  N   UNL     1       7.983  24.459  56.131  1.00  0.00    -0.355 N 
HETATM   28  H   UNL     1       7.864  24.745  57.104  1.00  0.00     0.162 HD
HETATM   29  O   UNL     1       7.802  25.113  53.952  1.00  0.00    -0.267 OA
BRANCH  27  30
HETATM   30  C   UNL     1       8.807  23.295  55.863  1.00  0.00     0.149 C 
BRANCH  30  31
HETATM   31  C   UNL     1       7.982  22.011  55.759  1.00  0.00     0.186 C 
BRANCH  31  32
HETATM   32  O   UNL     1       7.633  21.792  54.388  1.00  0.00    -0.394 OA
HETATM   33  C   UNL     1       8.786  21.716  53.561  1.00  0.00     0.201 C 
ENDBRANCH  31  32
ENDBRANCH  30  31
ENDBRANCH  27  30
ENDBRANCH   7  26
TORSDOF 8
ENDMDL
MODEL 7
REMARK VINA RESULT:      -8.3      3.719      7.747
REMARK  8 active torsions:
REMARK  status: ('A' for Active; 'I' for Inactive)
REMARK    1  A    between atoms: C_2  and  C_3 
REMARK    2  A    between atoms: C_4  and  N_5 
REMARK    3  A    between atoms: N_5  and  S_6 
REMARK    4  A    between atoms: S_6  and  C_7 
REMARK    5  A    between atoms: C_13  and  C_14 
REMARK       I    between atoms: C_14  and  N_15 
REMARK    6  A    between atoms: N_15  and  C_16 
REMARK    7  A    between atoms: C_16  and  C_17 
REMARK    8  A    between atoms: C_17  and  O_18 
ROOT
HETATM    1  C   UNL     1       7.298  26.373  56.130  1.00  0.00     0.081 A 
HETATM    2  C   UNL     1       6.596  26.198  54.936  1.00  0.00     0.043 A 
HETATM    3  C   UNL     1       5.953  27.299  54.360  1.00  0.00     0.043 A 
HETATM    4  C   UNL     1       6.048  28.578  54.939  1.00  0.00     0.046 A 
HETATM    5  N   UNL     1       5.383  29.659  54.352  1.00  0.00    -0.364 N 
HETATM    6  C   UNL     1       4.697  29.506  53.175  1.00  0.00     0.109 A 
HETATM    7  C   UNL     1       4.521  28.345  52.520  1.00  0.00     0.098 A 
HETATM    8  C   UNL     1       5.148  27.133  53.118  1.00  0.00     0.201 A 
HETATM    9  O   UNL     1       5.008  26.019  52.620  1.00  0.00    -0.286 OA
HETATM   10  C   UNL     1       6.761  28.733  56.132  1.00  0.00     0.032 A 
HETATM   11  C   UNL     1       7.390  27.635  56.726  1.00  0.00     0.027 A 
HETATM   12  H   UNL     1       5.567  30.599  54.686  1.00  0.00     0.165 HD
ENDROOT
BRANCH   1  13
HETATM   13  S   UNL     1       8.155  24.994  56.853  1.00  0.00     0.263 S 
HETATM   14  O   UNL     1       8.077  25.152  58.292  1.00  0.00    -0.200 OA
HETATM   15  O   UNL     1       9.431  24.851  56.192  1.00  0.00    -0.200 OA
BRANCH  13  16
HETATM   16  N   UNL     1       7.143  23.686  56.488  1.00  0.00    -0.280 N 
HETATM   17  H   UNL     1       6.488  23.525  57.251  1.00  0.00     0.179 HD
BRANCH  16  18
HETATM   18  C   UNL     1       7.735  22.531  55.897  1.00  0.00     0.049 A 
HETATM   19  C   UNL     1       7.656  22.292  54.514  1.00  0.00    -0.031 A 
HETATM   20  C   UNL     1       8.223  21.112  54.004  1.00  0.00     0.009 A 
HETATM   21  C   UNL     1       8.839  20.188  54.851  1.00  0.00     0.001 A 
HETATM   22  C   UNL     1       8.908  20.436  56.218  1.00  0.00     0.002 A 
HETATM   23  C   UNL     1       8.358  21.606  56.740  1.00  0.00     0.030 A 
BRANCH  19  24
HETATM   24  C   UNL     1       7.014  23.260  53.548  1.00  0.00     0.036 C 
HETATM   25  C   UNL     1       8.029  23.838  52.572  1.00  0.00     0.010 C 
ENDBRANCH  19  24
ENDBRANCH  16  18
ENDBRANCH  13  16
ENDBRANCH   1  13
BRANCH   7  26
HETATM   26  C   UNL     1       3.709  28.355  51.271  1.00  0.00     0.257 C 
HETATM   27  N   UNL     1       4.129  27.502  50.285  1.00  0.00    -0.355 N 
HETATM   28  H   UNL     1       5.026  27.028  50.398  1.00  0.00     0.162 HD
HETATM   29  O   UNL     1       2.724  29.080  51.148  1.00  0.00    -0.267 OA
BRANCH  27  30
HETATM   30  C   UNL     1       3.483  27.429  48.988  1.00  0.00     0.149 C 
BRANCH  30  31
HETATM   31  C   UNL     1       4.131  26.391  48.073  1.00  0.00     0.186 C 
BRANCH  31  32
HETATM   32  O   UNL     1       3.380  26.308  46.856  1.00  0.00    -0.394 OA
HETATM   33  C   UNL     1       2.047  26.772  47.032  1.00  0.00     0.201 C 
ENDBRANCH  31  32
ENDBRANCH  30  31
ENDBRANCH  27  30
ENDBRANCH   7  26
TORSDOF 8
ENDMDL
MODEL 8
REMARK VINA RESULT:      -8.3      1.650      2.532
REMARK  8 active torsions:
REMARK  status: ('A' for Active; 'I' for Inactive)
REMARK    1  A    between atoms: C_2  and  C_3 
REMARK    2  A    between atoms: C_4  and  N_5 
REMARK    3  A    between atoms: N_5  and  S_6 
REMARK    4  A    between atoms: S_6  and  C_7 
REMARK    5  A    between atoms: C_13  and  C_14 
REMARK       I    between atoms: C_14  and  N_15 
REMARK    6  A    between atoms: N_15  and  C_16 
REMARK    7  A    between atoms: C_16  and  C_17 
REMARK    8  A    between atoms: C_17  and  O_18 
ROOT
HETATM    1  C   UNL     1       5.572  28.331  55.158  1.00  0.00     0.081 A 
HETATM    2  C   UNL     1       6.607  28.747  55.999  1.00  0.00     0.043 A 
HETATM    3  C   UNL     1       6.349  29.737  56.954  1.00  0.00     0.043 A 
HETATM    4  C   UNL     1       5.058  30.275  57.108  1.00  0.00     0.046 A 
HETATM    5  N   UNL     1       4.831  31.275  58.059  1.00  0.00    -0.364 N 
HETATM    6  C   UNL     1       5.834  31.688  58.897  1.00  0.00     0.109 A 
HETATM    7  C   UNL     1       7.109  31.264  58.856  1.00  0.00     0.098 A 
HETATM    8  C   UNL     1       7.446  30.243  57.824  1.00  0.00     0.201 A 
HETATM    9  O   UNL     1       8.592  29.825  57.676  1.00  0.00    -0.286 OA
HETATM   10  C   UNL     1       4.035  29.841  56.261  1.00  0.00     0.032 A 
HETATM   11  C   UNL     1       4.286  28.867  55.290  1.00  0.00     0.027 A 
HETATM   12  H   UNL     1       3.879  31.559  58.267  1.00  0.00     0.165 HD
ENDROOT
BRANCH   1  13
HETATM   13  S   UNL     1       5.871  27.046  53.969  1.00  0.00     0.263 S 
HETATM   14  O   UNL     1       7.283  27.091  53.641  1.00  0.00    -0.200 OA
HETATM   15  O   UNL     1       4.868  27.138  52.933  1.00  0.00    -0.200 OA
BRANCH  13  16
HETATM   16  N   UNL     1       5.665  25.633  54.878  1.00  0.00    -0.280 N 
HETATM   17  H   UNL     1       4.843  25.715  55.474  1.00  0.00     0.179 HD
BRANCH  16  18
HETATM   18  C   UNL     1       6.824  25.041  55.463  1.00  0.00     0.049 A 
HETATM   19  C   UNL     1       7.498  23.978  54.838  1.00  0.00    -0.031 A 
HETATM   20  C   UNL     1       8.607  23.413  55.490  1.00  0.00     0.009 A 
HETATM   21  C   UNL     1       9.022  23.884  56.737  1.00  0.00     0.001 A 
HETATM   22  C   UNL     1       8.343  24.935  57.345  1.00  0.00     0.002 A 
HETATM   23  C   UNL     1       7.246  25.513  56.708  1.00  0.00     0.030 A 
BRANCH  19  24
HETATM   24  C   UNL     1       7.104  23.436  53.485  1.00  0.00     0.036 C 
HETATM   25  C   UNL     1       7.965  24.016  52.372  1.00  0.00     0.010 C 
ENDBRANCH  19  24
ENDBRANCH  16  18
ENDBRANCH  13  16
ENDBRANCH   1  13
BRANCH   7  26
HETATM   26  C   UNL     1       8.081  31.853  59.819  1.00  0.00     0.257 C 
HETATM   27  N   UNL     1       7.930  31.463  61.124  1.00  0.00    -0.355 N 
HETATM   28  H   UNL     1       7.104  30.922  61.380  1.00  0.00     0.162 HD
HETATM   29  O   UNL     1       8.960  32.631  59.454  1.00  0.00    -0.267 OA
BRANCH  27  30
HETATM   30  C   UNL     1       8.759  31.985  62.195  1.00  0.00     0.149 C 
BRANCH  30  31
HETATM   31  C   UNL     1       7.931  32.488  63.378  1.00  0.00     0.186 C 
BRANCH  31  32
HETATM   32  O   UNL     1       6.705  33.043  62.887  1.00  0.00    -0.394 OA
HETATM   33  C   UNL     1       5.619  32.763  63.761  1.00  0.00     0.201 C 
ENDBRANCH  31  32
ENDBRANCH  30  31
ENDBRANCH  27  30
ENDBRANCH   7  26
TORSDOF 8
ENDMDL
MODEL 9
REMARK VINA RESULT:      -8.1      5.632     13.495
REMARK  8 active torsions:
REMARK  status: ('A' for Active; 'I' for Inactive)
REMARK    1  A    between atoms: C_2  and  C_3 
REMARK    2  A    between atoms: C_4  and  N_5 
REMARK    3  A    between atoms: N_5  and  S_6 
REMARK    4  A    between atoms: S_6  and  C_7 
REMARK    5  A    between atoms: C_13  and  C_14 
REMARK       I    between atoms: C_14  and  N_15 
REMARK    6  A    between atoms: N_15  and  C_16 
REMARK    7  A    between atoms: C_16  and  C_17 
REMARK    8  A    between atoms: C_17  and  O_18 
ROOT
HETATM    1  C   UNL     1       4.838  34.094  65.924  1.00  0.00     0.081 A 
HETATM    2  C   UNL     1       5.958  33.623  65.237  1.00  0.00     0.043 A 
HETATM    3  C   UNL     1       5.860  33.382  63.862  1.00  0.00     0.043 A 
HETATM    4  C   UNL     1       4.670  33.656  63.163  1.00  0.00     0.046 A 
HETATM    5  N   UNL     1       4.592  33.392  61.792  1.00  0.00    -0.364 N 
HETATM    6  C   UNL     1       5.685  32.937  61.101  1.00  0.00     0.109 A 
HETATM    7  C   UNL     1       6.877  32.630  61.642  1.00  0.00     0.098 A 
HETATM    8  C   UNL     1       7.019  32.824  63.113  1.00  0.00     0.201 A 
HETATM    9  O   UNL     1       8.053  32.530  63.708  1.00  0.00    -0.286 OA
HETATM   10  C   UNL     1       3.561  34.133  63.868  1.00  0.00     0.032 A 
HETATM   11  C   UNL     1       3.643  34.357  65.245  1.00  0.00     0.027 A 
HETATM   12  H   UNL     1       3.789  33.719  61.265  1.00  0.00     0.165 HD
ENDROOT
BRANCH   1  13
HETATM   13  S   UNL     1       4.959  34.444  67.662  1.00  0.00     0.263 S 
HETATM   14  O   UNL     1       4.023  33.567  68.338  1.00  0.00    -0.200 OA
HETATM   15  O   UNL     1       4.896  35.876  67.845  1.00  0.00    -0.200 OA
BRANCH  13  16
HETATM   16  N   UNL     1       6.496  33.857  68.060  1.00  0.00    -0.280 N 
HETATM   17  H   UNL     1       6.557  32.862  67.853  1.00  0.00     0.179 HD
BRANCH  16  18
HETATM   18  C   UNL     1       7.077  34.292  69.288  1.00  0.00     0.049 A 
HETATM   19  C   UNL     1       6.999  33.512  70.454  1.00  0.00    -0.031 A 
HETATM   20  C   UNL     1       7.555  34.021  71.639  1.00  0.00     0.009 A 
HETATM   21  C   UNL     1       8.160  35.279  71.665  1.00  0.00     0.001 A 
HETATM   22  C   UNL     1       8.228  36.042  70.504  1.00  0.00     0.002 A 
HETATM   23  C   UNL     1       7.689  35.549  69.318  1.00  0.00     0.030 A 
BRANCH  19  24
HETATM   24  C   UNL     1       6.369  32.139  70.484  1.00  0.00     0.036 C 
HETATM   25  C   UNL     1       7.068  31.220  71.475  1.00  0.00     0.010 C 
ENDBRANCH  19  24
ENDBRANCH  16  18
ENDBRANCH  13  16
ENDBRANCH   1  13
BRANCH   7  26
HETATM   26  C   UNL     1       7.946  32.107  60.745  1.00  0.00     0.257 C 
HETATM   27  N   UNL     1       7.744  30.843  60.259  1.00  0.00    -0.355 N 
HETATM   28  H   UNL     1       6.971  30.292  60.635  1.00  0.00     0.162 HD
HETATM   29  O   UNL     1       8.937  32.779  60.463  1.00  0.00    -0.267 OA
BRANCH  27  30
HETATM   30  C   UNL     1       8.714  30.166  59.417  1.00  0.00     0.149 C 
BRANCH  30  31
HETATM   31  C   UNL     1       8.076  29.560  58.167  1.00  0.00     0.186 C 
BRANCH  31  32
HETATM   32  O   UNL     1       7.985  28.140  58.331  1.00  0.00    -0.394 OA
HETATM   33  C   UNL     1       7.908  27.474  57.078  1.00  0.00     0.201 C 
ENDBRANCH  31  32
ENDBRANCH  30  31
ENDBRANCH  27  30
ENDBRANCH   7  26
TORSDOF 8
ENDMDL
MODEL 10
REMARK VINA RESULT:      -8.0      3.239      4.046
REMARK  8 active torsions:
REMARK  status: ('A' for Active; 'I' for Inactive)
REMARK    1  A    between atoms: C_2  and  C_3 
REMARK    2  A    between atoms: C_4  and  N_5 
REMARK    3  A    between atoms: N_5  and  S_6 
REMARK    4  A    between atoms: S_6  and  C_7 
REMARK    5  A    between atoms: C_13  and  C_14 
REMARK       I    between atoms: C_14  and  N_15 
REMARK    6  A    between atoms: N_15  and  C_16 
REMARK    7  A    between atoms: C_16  and  C_17 
REMARK    8  A    between atoms: C_17  and  O_18 
ROOT
HETATM    1  C   UNL     1       6.295  28.833  56.199  1.00  0.00     0.081 A 
HETATM    2  C   UNL     1       5.207  29.555  56.691  1.00  0.00     0.043 A 
HETATM    3  C   UNL     1       5.409  30.451  57.747  1.00  0.00     0.043 A 
HETATM    4  C   UNL     1       6.694  30.667  58.278  1.00  0.00     0.046 A 
HETATM    5  N   UNL     1       6.867  31.555  59.343  1.00  0.00    -0.364 N 
HETATM    6  C   UNL     1       5.810  32.278  59.833  1.00  0.00     0.109 A 
HETATM    7  C   UNL     1       4.534  32.169  59.424  1.00  0.00     0.098 A 
HETATM    8  C   UNL     1       4.258  31.192  58.333  1.00  0.00     0.201 A 
HETATM    9  O   UNL     1       3.119  30.987  57.921  1.00  0.00    -0.286 OA
HETATM   10  C   UNL     1       7.772  29.937  57.767  1.00  0.00     0.032 A 
HETATM   11  C   UNL     1       7.577  29.025  56.726  1.00  0.00     0.027 A 
HETATM   12  H   UNL     1       7.805  31.815  59.629  1.00  0.00     0.165 HD
ENDROOT
BRANCH   1  13
HETATM   13  S   UNL     1       6.064  27.722  54.831  1.00  0.00     0.263 S 
HETATM   14  O   UNL     1       5.963  28.536  53.635  1.00  0.00    -0.200 OA
HETATM   15  O   UNL     1       5.022  26.782  55.176  1.00  0.00    -0.200 OA
BRANCH  13  16
HETATM   16  N   UNL     1       7.561  26.941  54.720  1.00  0.00    -0.280 N 
HETATM   17  H   UNL     1       8.276  27.593  54.403  1.00  0.00     0.179 HD
BRANCH  16  18
HETATM   18  C   UNL     1       7.589  25.633  54.151  1.00  0.00     0.049 A 
HETATM   19  C   UNL     1       7.598  24.482  54.958  1.00  0.00    -0.031 A 
HETATM   20  C   UNL     1       7.671  23.226  54.333  1.00  0.00     0.009 A 
HETATM   21  C   UNL     1       7.748  23.120  52.943  1.00  0.00     0.001 A 
HETATM   22  C   UNL     1       7.742  24.268  52.157  1.00  0.00     0.002 A 
HETATM   23  C   UNL     1       7.662  25.521  52.760  1.00  0.00     0.030 A 
BRANCH  19  24
HETATM   24  C   UNL     1       7.503  24.534  56.465  1.00  0.00     0.036 C 
HETATM   25  C   UNL     1       8.850  24.273  57.124  1.00  0.00     0.010 C 
ENDBRANCH  19  24
ENDBRANCH  16  18
ENDBRANCH  13  16
ENDBRANCH   1  13
BRANCH   7  26
HETATM   26  C   UNL     1       3.502  33.006  60.098  1.00  0.00     0.257 C 
HETATM   27  N   UNL     1       3.595  33.075  61.463  1.00  0.00    -0.355 N 
HETATM   28  H   UNL     1       4.255  32.459  61.940  1.00  0.00     0.162 HD
HETATM   29  O   UNL     1       2.633  33.597  59.459  1.00  0.00    -0.267 OA
BRANCH  27  30
HETATM   30  C   UNL     1       2.638  33.803  62.274  1.00  0.00     0.149 C 
BRANCH  30  31
HETATM   31  C   UNL     1       3.315  34.670  63.336  1.00  0.00     0.186 C 
BRANCH  31  32
HETATM   32  O   UNL     1       3.171  34.039  64.614  1.00  0.00    -0.394 OA
HETATM   33  C   UNL     1       4.419  33.937  65.289  1.00  0.00     0.201 C 
ENDBRANCH  31  32
ENDBRANCH  30  31
ENDBRANCH  27  30
ENDBRANCH   7  26
TORSDOF 8
ENDMDL
