MODEL 1
REMARK VINA RESULT:      -9.0      0.000      0.000
REMARK  3 active torsions:
REMARK  status: ('A' for Active; 'I' for Inactive)
REMARK    1  A    between atoms: C_3  and  N_4 
REMARK       I    between atoms: N_4  and  C_5 
REMARK    2  A    between atoms: C_5  and  C_6 
REMARK    3  A    between atoms: C_7  and  C_8 
ROOT
HETATM    1  C   UNL     1       5.258  27.076  53.791  1.00  0.00     0.062 C 
HETATM    2  C   UNL     1       5.071  27.725  55.169  1.00  0.00     0.199 C 
HETATM    3  N   UNL     1       4.345  28.985  55.041  1.00  0.00    -0.092 N 
HETATM    4  C   UNL     1       4.156  29.652  53.864  1.00  0.00     0.735 A 
HETATM    5  N   UNL     1       4.621  29.104  52.722  1.00  0.00    -0.191 N 
HETATM    6  N   UNL     1       3.739  29.632  56.047  1.00  0.00     0.012 NA
HETATM    7  N   UNL     1       3.233  30.723  55.480  1.00  0.00     0.033 NA
HETATM    8  N   UNL     1       3.486  30.748  54.120  1.00  0.00     0.030 NA
HETATM    9  C   UNL     1       5.098  27.798  52.651  1.00  0.00     0.037 C 
HETATM   10  C   UNL     1       5.428  27.305  51.263  1.00  0.00     0.070 C 
HETATM   11  H   UNL     1       4.443  29.590  51.844  1.00  0.00     0.184 HD
ENDROOT
BRANCH   1  12
HETATM   12  C   UNL     1       5.609  25.624  53.841  1.00  0.00     0.256 C 
HETATM   13  N   UNL     1       6.964  25.386  53.898  1.00  0.00    -0.323 N 
HETATM   14  H   UNL     1       7.558  26.164  53.647  1.00  0.00     0.169 HD
HETATM   15  O   UNL     1       4.733  24.790  53.670  1.00  0.00    -0.267 OA
BRANCH  13  16
HETATM   16  C   UNL     1       7.639  24.155  54.077  1.00  0.00     0.041 A 
HETATM   17  C   UNL     1       8.292  23.718  55.245  1.00  0.00    -0.035 A 
HETATM   18  C   UNL     1       8.445  24.523  56.505  1.00  0.00     0.050 C 
HETATM   19  C   UNL     1       8.896  22.442  55.246  1.00  0.00     0.009 A 
HETATM   20  C   UNL     1       8.910  21.639  54.109  1.00  0.00     0.001 A 
HETATM   21  C   UNL     1       8.319  22.095  52.942  1.00  0.00     0.002 A 
HETATM   22  C   UNL     1       7.694  23.343  52.927  1.00  0.00     0.030 A 
ENDBRANCH  13  16
ENDBRANCH   1  12
BRANCH   2  23
HETATM   23  C   UNL     1       6.377  27.976  55.904  1.00  0.00    -0.011 A 
HETATM   24  C   UNL     1       6.574  27.572  57.225  1.00  0.00     0.125 A 
HETATM   25  N   UNL     1       7.713  27.776  57.925  1.00  0.00    -0.272 NA
HETATM   26  C   UNL     1       8.713  28.415  57.283  1.00  0.00     0.116 A 
HETATM   27  C   UNL     1       8.628  28.853  55.973  1.00  0.00     0.020 A 
HETATM   28  C   UNL     1       7.444  28.629  55.276  1.00  0.00     0.012 A 
ENDBRANCH   2  23
TORSDOF 3
ENDMDL
MODEL 2
REMARK VINA RESULT:      -8.8      1.840      2.787
REMARK  3 active torsions:
REMARK  status: ('A' for Active; 'I' for Inactive)
REMARK    1  A    between atoms: C_3  and  N_4 
REMARK       I    between atoms: N_4  and  C_5 
REMARK    2  A    between atoms: C_5  and  C_6 
REMARK    3  A    between atoms: C_7  and  C_8 
ROOT
HETATM    1  C   UNL     1       6.526  26.298  55.726  1.00  0.00     0.062 C 
HETATM    2  C   UNL     1       6.698  27.460  56.713  1.00  0.00     0.199 C 
HETATM    3  N   UNL     1       5.535  28.341  56.666  1.00  0.00    -0.092 N 
HETATM    4  C   UNL     1       4.597  28.331  55.673  1.00  0.00     0.735 A 
HETATM    5  N   UNL     1       4.706  27.422  54.682  1.00  0.00    -0.191 N 
HETATM    6  N   UNL     1       5.213  29.244  57.603  1.00  0.00     0.012 NA
HETATM    7  N   UNL     1       4.107  29.820  57.140  1.00  0.00     0.033 NA
HETATM    8  N   UNL     1       3.713  29.260  55.938  1.00  0.00     0.030 NA
HETATM    9  C   UNL     1       5.604  26.359  54.729  1.00  0.00     0.037 C 
HETATM   10  C   UNL     1       5.477  25.356  53.608  1.00  0.00     0.070 C 
HETATM   11  H   UNL     1       3.983  27.398  53.965  1.00  0.00     0.184 HD
ENDROOT
BRANCH   1  12
HETATM   12  C   UNL     1       7.436  25.140  55.979  1.00  0.00     0.256 C 
HETATM   13  N   UNL     1       6.969  23.950  55.468  1.00  0.00    -0.323 N 
HETATM   14  H   UNL     1       5.988  23.932  55.220  1.00  0.00     0.169 HD
HETATM   15  O   UNL     1       8.396  25.284  56.720  1.00  0.00    -0.267 OA
BRANCH  13  16
HETATM   16  C   UNL     1       7.619  22.694  55.415  1.00  0.00     0.041 A 
HETATM   17  C   UNL     1       8.039  22.014  54.257  1.00  0.00    -0.035 A 
HETATM   18  C   UNL     1       7.808  22.482  52.846  1.00  0.00     0.050 C 
HETATM   19  C   UNL     1       8.696  20.773  54.399  1.00  0.00     0.009 A 
HETATM   20  C   UNL     1       8.882  20.184  55.648  1.00  0.00     0.001 A 
HETATM   21  C   UNL     1       8.415  20.826  56.783  1.00  0.00     0.002 A 
HETATM   22  C   UNL     1       7.786  22.066  56.665  1.00  0.00     0.030 A 
ENDBRANCH  13  16
ENDBRANCH   1  12
BRANCH   2  23
HETATM   23  C   UNL     1       7.953  28.281  56.471  1.00  0.00    -0.011 A 
HETATM   24  C   UNL     1       8.356  28.658  55.189  1.00  0.00     0.125 A 
HETATM   25  N   UNL     1       9.466  29.382  54.919  1.00  0.00    -0.272 NA
HETATM   26  C   UNL     1      10.219  29.755  55.975  1.00  0.00     0.116 A 
HETATM   27  C   UNL     1       9.910  29.441  57.287  1.00  0.00     0.020 A 
HETATM   28  C   UNL     1       8.762  28.695  57.536  1.00  0.00     0.012 A 
ENDBRANCH   2  23
TORSDOF 3
ENDMDL
MODEL 3
REMARK VINA RESULT:      -8.7      2.509      5.282
REMARK  3 active torsions:
REMARK  status: ('A' for Active; 'I' for Inactive)
REMARK    1  A    between atoms: C_3  and  N_4 
REMARK       I    between atoms: N_4  and  C_5 
REMARK    2  A    between atoms: C_5  and  C_6 
REMARK    3  A    between atoms: C_7  and  C_8 
ROOT
HETATM    1  C   UNL     1       5.202  27.493  51.959  1.00  0.00     0.062 C 
HETATM    2  C   UNL     1       5.503  27.844  50.496  1.00  0.00     0.199 C 
HETATM    3  N   UNL     1       5.700  29.283  50.351  1.00  0.00    -0.092 N 
HETATM    4  C   UNL     1       5.345  30.210  51.288  1.00  0.00     0.735 A 
HETATM    5  N   UNL     1       4.818  29.789  52.456  1.00  0.00    -0.191 N 
HETATM    6  N   UNL     1       6.287  29.880  49.303  1.00  0.00     0.012 NA
HETATM    7  N   UNL     1       6.230  31.178  49.588  1.00  0.00     0.033 NA
HETATM    8  N   UNL     1       5.646  31.397  50.822  1.00  0.00     0.030 NA
HETATM    9  C   UNL     1       4.811  28.450  52.841  1.00  0.00     0.037 C 
HETATM   10  C   UNL     1       4.325  28.184  54.245  1.00  0.00     0.070 C 
HETATM   11  H   UNL     1       4.590  30.484  53.165  1.00  0.00     0.184 HD
ENDROOT
BRANCH   1  12
HETATM   12  C   UNL     1       5.389  26.048  52.292  1.00  0.00     0.256 C 
HETATM   13  N   UNL     1       6.578  25.779  52.932  1.00  0.00    -0.323 N 
HETATM   14  H   UNL     1       7.281  26.504  52.877  1.00  0.00     0.169 HD
HETATM   15  O   UNL     1       4.599  25.225  51.855  1.00  0.00    -0.267 OA
BRANCH  13  16
HETATM   16  C   UNL     1       7.023  24.560  53.496  1.00  0.00     0.041 A 
HETATM   17  C   UNL     1       6.859  24.143  54.830  1.00  0.00    -0.035 A 
HETATM   18  C   UNL     1       6.229  24.962  55.923  1.00  0.00     0.050 C 
HETATM   19  C   UNL     1       7.353  22.876  55.210  1.00  0.00     0.009 A 
HETATM   20  C   UNL     1       8.044  22.063  54.315  1.00  0.00     0.001 A 
HETATM   21  C   UNL     1       8.257  22.501  53.018  1.00  0.00     0.002 A 
HETATM   22  C   UNL     1       7.754  23.739  52.616  1.00  0.00     0.030 A 
ENDBRANCH  13  16
ENDBRANCH   1  12
BRANCH   2  23
HETATM   23  C   UNL     1       4.423  27.391  49.528  1.00  0.00    -0.011 A 
HETATM   24  C   UNL     1       3.155  27.972  49.508  1.00  0.00     0.125 A 
HETATM   25  N   UNL     1       2.157  27.602  48.673  1.00  0.00    -0.272 NA
HETATM   26  C   UNL     1       2.430  26.602  47.808  1.00  0.00     0.116 A 
HETATM   27  C   UNL     1       3.654  25.960  47.738  1.00  0.00     0.020 A 
HETATM   28  C   UNL     1       4.662  26.362  48.610  1.00  0.00     0.012 A 
ENDBRANCH   2  23
TORSDOF 3
ENDMDL
MODEL 4
REMARK VINA RESULT:      -8.5      2.017      3.812
REMARK  3 active torsions:
REMARK  status: ('A' for Active; 'I' for Inactive)
REMARK    1  A    between atoms: C_3  and  N_4 
REMARK       I    between atoms: N_4  and  C_5 
REMARK    2  A    between atoms: C_5  and  C_6 
REMARK    3  A    between atoms: C_7  and  C_8 
ROOT
HETATM    1  C   UNL     1       5.890  26.078  55.543  1.00  0.00     0.062 C 
HETATM    2  C   UNL     1       6.449  27.340  54.873  1.00  0.00     0.199 C 
HETATM    3  N   UNL     1       6.599  28.410  55.854  1.00  0.00    -0.092 N 
HETATM    4  C   UNL     1       6.025  28.409  57.093  1.00  0.00     0.735 A 
HETATM    5  N   UNL     1       5.305  27.335  57.478  1.00  0.00    -0.191 N 
HETATM    6  N   UNL     1       7.345  29.512  55.686  1.00  0.00     0.012 NA
HETATM    7  N   UNL     1       7.171  30.202  56.810  1.00  0.00     0.033 NA
HETATM    8  N   UNL     1       6.351  29.526  57.695  1.00  0.00     0.030 NA
HETATM    9  C   UNL     1       5.290  26.141  56.761  1.00  0.00     0.037 C 
HETATM   10  C   UNL     1       4.558  24.999  57.423  1.00  0.00     0.070 C 
HETATM   11  H   UNL     1       4.912  27.326  58.417  1.00  0.00     0.184 HD
ENDROOT
BRANCH   1  12
HETATM   12  C   UNL     1       6.080  24.827  54.748  1.00  0.00     0.256 C 
HETATM   13  N   UNL     1       7.189  24.101  55.118  1.00  0.00    -0.323 N 
HETATM   14  H   UNL     1       7.871  24.595  55.679  1.00  0.00     0.169 HD
HETATM   15  O   UNL     1       5.376  24.627  53.770  1.00  0.00    -0.267 OA
BRANCH  13  16
HETATM   16  C   UNL     1       7.601  22.823  54.671  1.00  0.00     0.041 A 
HETATM   17  C   UNL     1       8.014  21.745  55.475  1.00  0.00    -0.035 A 
HETATM   18  C   UNL     1       8.156  21.785  56.972  1.00  0.00     0.050 C 
HETATM   19  C   UNL     1       8.369  20.530  54.850  1.00  0.00     0.009 A 
HETATM   20  C   UNL     1       8.376  20.396  53.464  1.00  0.00     0.001 A 
HETATM   21  C   UNL     1       8.026  21.477  52.671  1.00  0.00     0.002 A 
HETATM   22  C   UNL     1       7.646  22.678  53.270  1.00  0.00     0.030 A 
ENDBRANCH  13  16
ENDBRANCH   1  12
BRANCH   2  23
HETATM   23  C   UNL     1       5.598  27.841  53.718  1.00  0.00    -0.011 A 
HETATM   24  C   UNL     1       6.117  28.011  52.434  1.00  0.00     0.125 A 
HETATM   25  N   UNL     1       5.406  28.459  51.374  1.00  0.00    -0.272 NA
HETATM   26  C   UNL     1       4.108  28.754  51.597  1.00  0.00     0.116 A 
HETATM   27  C   UNL     1       3.489  28.618  52.827  1.00  0.00     0.020 A 
HETATM   28  C   UNL     1       4.246  28.154  53.900  1.00  0.00     0.012 A 
ENDBRANCH   2  23
TORSDOF 3
ENDMDL
MODEL 5
REMARK VINA RESULT:      -8.2      2.394      5.314
REMARK  3 active torsions:
REMARK  status: ('A' for Active; 'I' for Inactive)
REMARK    1  A    between atoms: C_3  and  N_4 
REMARK       I    between atoms: N_4  and  C_5 
REMARK    2  A    between atoms: C_5  and  C_6 
REMARK    3  A    between atoms: C_7  and  C_8 
ROOT
HETATM    1  C   UNL     1       5.025  28.277  52.440  1.00  0.00     0.062 C 
HETATM    2  C   UNL     1       5.447  28.388  50.969  1.00  0.00     0.199 C 
HETATM    3  N   UNL     1       5.649  29.786  50.604  1.00  0.00    -0.092 N 
HETATM    4  C   UNL     1       5.212  30.849  51.343  1.00  0.00     0.735 A 
HETATM    5  N   UNL     1       4.591  30.616  52.517  1.00  0.00    -0.191 N 
HETATM    6  N   UNL     1       6.318  30.213  49.523  1.00  0.00     0.012 NA
HETATM    7  N   UNL     1       6.232  31.539  49.584  1.00  0.00     0.033 NA
HETATM    8  N   UNL     1       5.545  31.948  50.713  1.00  0.00     0.030 NA
HETATM    9  C   UNL     1       4.557  29.359  53.117  1.00  0.00     0.037 C 
HETATM   10  C   UNL     1       3.957  29.319  54.500  1.00  0.00     0.070 C 
HETATM   11  H   UNL     1       4.301  31.414  53.080  1.00  0.00     0.184 HD
ENDROOT
BRANCH   1  12
HETATM   12  C   UNL     1       5.190  26.911  53.023  1.00  0.00     0.256 C 
HETATM   13  N   UNL     1       6.444  26.680  53.542  1.00  0.00    -0.323 N 
HETATM   14  H   UNL     1       7.165  27.328  53.255  1.00  0.00     0.169 HD
HETATM   15  O   UNL     1       4.308  26.081  52.862  1.00  0.00    -0.267 OA
BRANCH  13  16
HETATM   16  C   UNL     1       6.908  25.559  54.271  1.00  0.00     0.041 A 
HETATM   17  C   UNL     1       7.610  24.454  53.755  1.00  0.00    -0.035 A 
HETATM   18  C   UNL     1       7.939  24.238  52.304  1.00  0.00     0.050 C 
HETATM   19  C   UNL     1       8.015  23.433  54.642  1.00  0.00     0.009 A 
HETATM   20  C   UNL     1       7.685  23.468  55.995  1.00  0.00     0.001 A 
HETATM   21  C   UNL     1       6.942  24.527  56.490  1.00  0.00     0.002 A 
HETATM   22  C   UNL     1       6.555  25.559  55.635  1.00  0.00     0.030 A 
ENDBRANCH  13  16
ENDBRANCH   1  12
BRANCH   2  23
HETATM   23  C   UNL     1       4.454  27.761  50.005  1.00  0.00    -0.011 A 
HETATM   24  C   UNL     1       3.224  28.355  49.718  1.00  0.00     0.125 A 
HETATM   25  N   UNL     1       2.303  27.837  48.873  1.00  0.00    -0.272 NA
HETATM   26  C   UNL     1       2.617  26.667  48.279  1.00  0.00     0.116 A 
HETATM   27  C   UNL     1       3.809  25.995  48.486  1.00  0.00     0.020 A 
HETATM   28  C   UNL     1       4.738  26.552  49.360  1.00  0.00     0.012 A 
ENDBRANCH   2  23
TORSDOF 3
ENDMDL
MODEL 6
REMARK VINA RESULT:      -8.2      1.936      4.436
REMARK  3 active torsions:
REMARK  status: ('A' for Active; 'I' for Inactive)
REMARK    1  A    between atoms: C_3  and  N_4 
REMARK       I    between atoms: N_4  and  C_5 
REMARK    2  A    between atoms: C_5  and  C_6 
REMARK    3  A    between atoms: C_7  and  C_8 
ROOT
HETATM    1  C   UNL     1       7.632  26.511  55.970  1.00  0.00     0.062 C 
HETATM    2  C   UNL     1       7.978  27.643  54.994  1.00  0.00     0.199 C 
HETATM    3  N   UNL     1       8.791  28.655  55.661  1.00  0.00    -0.092 N 
HETATM    4  C   UNL     1       8.941  28.758  57.014  1.00  0.00     0.735 A 
HETATM    5  N   UNL     1       8.346  27.844  57.808  1.00  0.00    -0.191 N 
HETATM    6  N   UNL     1       9.524  29.590  55.037  1.00  0.00     0.012 NA
HETATM    7  N   UNL     1      10.071  30.293  56.025  1.00  0.00     0.033 NA
HETATM    8  N   UNL     1       9.715  29.785  57.262  1.00  0.00     0.030 NA
HETATM    9  C   UNL     1       7.760  26.681  57.312  1.00  0.00     0.037 C 
HETATM   10  C   UNL     1       7.284  25.701  58.356  1.00  0.00     0.070 C 
HETATM   11  H   UNL     1       8.493  27.906  58.814  1.00  0.00     0.184 HD
ENDROOT
BRANCH   1  12
HETATM   12  C   UNL     1       7.170  25.253  55.309  1.00  0.00     0.256 C 
HETATM   13  N   UNL     1       8.180  24.346  55.081  1.00  0.00    -0.323 N 
HETATM   14  H   UNL     1       9.121  24.712  55.140  1.00  0.00     0.169 HD
HETATM   15  O   UNL     1       6.024  25.183  54.889  1.00  0.00    -0.267 OA
BRANCH  13  16
HETATM   16  C   UNL     1       8.086  23.020  54.594  1.00  0.00     0.041 A 
HETATM   17  C   UNL     1       7.923  22.628  53.252  1.00  0.00    -0.035 A 
HETATM   18  C   UNL     1       7.752  23.567  52.090  1.00  0.00     0.050 C 
HETATM   19  C   UNL     1       7.872  21.250  52.950  1.00  0.00     0.009 A 
HETATM   20  C   UNL     1       7.920  20.281  53.949  1.00  0.00     0.001 A 
HETATM   21  C   UNL     1       8.020  20.670  55.275  1.00  0.00     0.002 A 
HETATM   22  C   UNL     1       8.099  22.026  55.592  1.00  0.00     0.030 A 
ENDBRANCH  13  16
ENDBRANCH   1  12
BRANCH   2  23
HETATM   23  C   UNL     1       6.758  28.310  54.381  1.00  0.00    -0.011 A 
HETATM   24  C   UNL     1       6.472  28.223  53.018  1.00  0.00     0.125 A 
HETATM   25  N   UNL     1       5.405  28.802  52.422  1.00  0.00    -0.272 NA
HETATM   26  C   UNL     1       4.573  29.505  53.219  1.00  0.00     0.116 A 
HETATM   27  C   UNL     1       4.757  29.651  54.583  1.00  0.00     0.020 A 
HETATM   28  C   UNL     1       5.864  29.044  55.169  1.00  0.00     0.012 A 
ENDBRANCH   2  23
TORSDOF 3
ENDMDL
MODEL 7
REMARK VINA RESULT:      -8.1      3.606      6.940
REMARK  3 active torsions:
REMARK  status: ('A' for Active; 'I' for Inactive)
REMARK    1  A    between atoms: C_3  and  N_4 
REMARK       I    between atoms: N_4  and  C_5 
REMARK    2  A    between atoms: C_5  and  C_6 
REMARK    3  A    between atoms: C_7  and  C_8 
ROOT
HETATM    1  C   UNL     1       7.371  28.996  56.492  1.00  0.00     0.062 C 
HETATM    2  C   UNL     1       5.890  28.739  56.187  1.00  0.00     0.199 C 
HETATM    3  N   UNL     1       5.741  28.151  54.859  1.00  0.00    -0.092 N 
HETATM    4  C   UNL     1       6.717  28.139  53.905  1.00  0.00     0.735 A 
HETATM    5  N   UNL     1       7.926  28.659  54.202  1.00  0.00    -0.191 N 
HETATM    6  N   UNL     1       4.647  27.514  54.416  1.00  0.00     0.012 NA
HETATM    7  N   UNL     1       4.949  27.170  53.167  1.00  0.00     0.033 NA
HETATM    8  N   UNL     1       6.237  27.553  52.836  1.00  0.00     0.030 NA
HETATM    9  C   UNL     1       8.296  29.016  55.497  1.00  0.00     0.037 C 
HETATM   10  C   UNL     1       9.738  29.431  55.665  1.00  0.00     0.070 C 
HETATM   11  H   UNL     1       8.660  28.613  53.497  1.00  0.00     0.184 HD
ENDROOT
BRANCH   1  12
HETATM   12  C   UNL     1       7.671  29.203  57.941  1.00  0.00     0.256 C 
HETATM   13  N   UNL     1       7.781  30.528  58.298  1.00  0.00    -0.323 N 
HETATM   14  H   UNL     1       7.904  31.180  57.535  1.00  0.00     0.169 HD
HETATM   15  O   UNL     1       7.946  28.239  58.639  1.00  0.00    -0.267 OA
BRANCH  13  16
HETATM   16  C   UNL     1       7.934  31.087  59.589  1.00  0.00     0.041 A 
HETATM   17  C   UNL     1       7.024  31.932  60.252  1.00  0.00    -0.035 A 
HETATM   18  C   UNL     1       5.739  32.449  59.667  1.00  0.00     0.050 C 
HETATM   19  C   UNL     1       7.337  32.377  61.554  1.00  0.00     0.009 A 
HETATM   20  C   UNL     1       8.542  32.049  62.169  1.00  0.00     0.001 A 
HETATM   21  C   UNL     1       9.464  31.266  61.492  1.00  0.00     0.002 A 
HETATM   22  C   UNL     1       9.163  30.794  60.214  1.00  0.00     0.030 A 
ENDBRANCH  13  16
ENDBRANCH   1  12
BRANCH   2  23
HETATM   23  C   UNL     1       5.026  29.986  56.277  1.00  0.00    -0.011 A 
HETATM   24  C   UNL     1       3.877  30.035  57.068  1.00  0.00     0.125 A 
HETATM   25  N   UNL     1       3.071  31.116  57.178  1.00  0.00    -0.272 NA
HETATM   26  C   UNL     1       3.422  32.208  56.469  1.00  0.00     0.116 A 
HETATM   27  C   UNL     1       4.542  32.271  55.659  1.00  0.00     0.020 A 
HETATM   28  C   UNL     1       5.353  31.144  55.564  1.00  0.00     0.012 A 
ENDBRANCH   2  23
TORSDOF 3
ENDMDL
MODEL 8
REMARK VINA RESULT:      -8.1      4.537      8.181
REMARK  3 active torsions:
REMARK  status: ('A' for Active; 'I' for Inactive)
REMARK    1  A    between atoms: C_3  and  N_4 
REMARK       I    between atoms: N_4  and  C_5 
REMARK    2  A    between atoms: C_5  and  C_6 
REMARK    3  A    between atoms: C_7  and  C_8 
ROOT
HETATM    1  C   UNL     1       7.254  30.167  58.051  1.00  0.00     0.062 C 
HETATM    2  C   UNL     1       5.906  29.489  57.776  1.00  0.00     0.199 C 
HETATM    3  N   UNL     1       6.112  28.201  57.120  1.00  0.00    -0.092 N 
HETATM    4  C   UNL     1       7.284  27.808  56.539  1.00  0.00     0.735 A 
HETATM    5  N   UNL     1       8.352  28.630  56.604  1.00  0.00    -0.191 N 
HETATM    6  N   UNL     1       5.198  27.224  57.035  1.00  0.00     0.012 NA
HETATM    7  N   UNL     1       5.807  26.262  56.347  1.00  0.00     0.033 NA
HETATM    8  N   UNL     1       7.107  26.613  56.032  1.00  0.00     0.030 NA
HETATM    9  C   UNL     1       8.384  29.763  57.412  1.00  0.00     0.037 C 
HETATM   10  C   UNL     1       9.714  30.472  57.479  1.00  0.00     0.070 C 
HETATM   11  H   UNL     1       9.232  28.314  56.200  1.00  0.00     0.184 HD
ENDROOT
BRANCH   1  12
HETATM   12  C   UNL     1       7.192  31.265  59.063  1.00  0.00     0.256 C 
HETATM   13  N   UNL     1       7.197  30.817  60.365  1.00  0.00    -0.323 N 
HETATM   14  H   UNL     1       6.987  29.836  60.493  1.00  0.00     0.169 HD
HETATM   15  O   UNL     1       6.985  32.411  58.692  1.00  0.00    -0.267 OA
BRANCH  13  16
HETATM   16  C   UNL     1       7.271  31.571  61.560  1.00  0.00     0.041 A 
HETATM   17  C   UNL     1       8.437  32.076  62.164  1.00  0.00    -0.035 A 
HETATM   18  C   UNL     1       9.839  31.843  61.670  1.00  0.00     0.050 C 
HETATM   19  C   UNL     1       8.315  32.830  63.351  1.00  0.00     0.009 A 
HETATM   20  C   UNL     1       7.081  33.033  63.963  1.00  0.00     0.001 A 
HETATM   21  C   UNL     1       5.940  32.485  63.400  1.00  0.00     0.002 A 
HETATM   22  C   UNL     1       6.036  31.758  62.213  1.00  0.00     0.030 A 
ENDBRANCH  13  16
ENDBRANCH   1  12
BRANCH   2  23
HETATM   23  C   UNL     1       4.964  30.331  56.932  1.00  0.00    -0.011 A 
HETATM   24  C   UNL     1       3.764  30.833  57.439  1.00  0.00     0.125 A 
HETATM   25  N   UNL     1       2.889  31.581  56.729  1.00  0.00    -0.272 NA
HETATM   26  C   UNL     1       3.219  31.848  55.448  1.00  0.00     0.116 A 
HETATM   27  C   UNL     1       4.384  31.406  54.847  1.00  0.00     0.020 A 
HETATM   28  C   UNL     1       5.267  30.638  55.601  1.00  0.00     0.012 A 
ENDBRANCH   2  23
TORSDOF 3
ENDMDL
MODEL 9
REMARK VINA RESULT:      -8.1      8.428     10.075
REMARK  3 active torsions:
REMARK  status: ('A' for Active; 'I' for Inactive)
REMARK    1  A    between atoms: C_3  and  N_4 
REMARK       I    between atoms: N_4  and  C_5 
REMARK    2  A    between atoms: C_5  and  C_6 
REMARK    3  A    between atoms: C_7  and  C_8 
ROOT
HETATM    1  C   UNL     1       3.729  33.775  59.668  1.00  0.00     0.062 C 
HETATM    2  C   UNL     1       2.651  33.844  60.758  1.00  0.00     0.199 C 
HETATM    3  N   UNL     1       1.436  34.457  60.229  1.00  0.00    -0.092 N 
HETATM    4  C   UNL     1       1.370  35.162  59.061  1.00  0.00     0.735 A 
HETATM    5  N   UNL     1       2.480  35.272  58.303  1.00  0.00    -0.191 N 
HETATM    6  N   UNL     1       0.223  34.378  60.796  1.00  0.00     0.012 NA
HETATM    7  N   UNL     1      -0.563  35.090  59.992  1.00  0.00     0.033 NA
HETATM    8  N   UNL     1       0.139  35.583  58.908  1.00  0.00     0.030 NA
HETATM    9  C   UNL     1       3.635  34.531  58.543  1.00  0.00     0.037 C 
HETATM   10  C   UNL     1       4.719  34.668  57.501  1.00  0.00     0.070 C 
HETATM   11  H   UNL     1       2.414  35.768  57.415  1.00  0.00     0.184 HD
ENDROOT
BRANCH   1  12
HETATM   12  C   UNL     1       4.838  32.819  59.965  1.00  0.00     0.256 C 
HETATM   13  N   UNL     1       5.946  33.415  60.523  1.00  0.00    -0.323 N 
HETATM   14  H   UNL     1       5.995  34.421  60.436  1.00  0.00     0.169 HD
HETATM   15  O   UNL     1       4.759  31.667  59.564  1.00  0.00    -0.267 OA
BRANCH  13  16
HETATM   16  C   UNL     1       7.115  32.805  61.037  1.00  0.00     0.041 A 
HETATM   17  C   UNL     1       7.423  32.590  62.394  1.00  0.00    -0.035 A 
HETATM   18  C   UNL     1       6.579  33.037  63.555  1.00  0.00     0.050 C 
HETATM   19  C   UNL     1       8.634  31.941  62.719  1.00  0.00     0.009 A 
HETATM   20  C   UNL     1       9.549  31.566  61.739  1.00  0.00     0.001 A 
HETATM   21  C   UNL     1       9.272  31.832  60.407  1.00  0.00     0.002 A 
HETATM   22  C   UNL     1       8.068  32.449  60.063  1.00  0.00     0.030 A 
ENDBRANCH  13  16
ENDBRANCH   1  12
BRANCH   2  23
HETATM   23  C   UNL     1       3.090  34.603  61.999  1.00  0.00    -0.011 A 
HETATM   24  C   UNL     1       3.579  35.908  61.935  1.00  0.00     0.125 A 
HETATM   25  N   UNL     1       3.988  36.624  63.007  1.00  0.00    -0.272 NA
HETATM   26  C   UNL     1       3.909  36.015  64.209  1.00  0.00     0.116 A 
HETATM   27  C   UNL     1       3.435  34.728  64.388  1.00  0.00     0.020 A 
HETATM   28  C   UNL     1       3.021  34.014  63.267  1.00  0.00     0.012 A 
ENDBRANCH   2  23
TORSDOF 3
ENDMDL
MODEL 10
REMARK VINA RESULT:      -8.1      7.061      9.838
REMARK  3 active torsions:
REMARK  status: ('A' for Active; 'I' for Inactive)
REMARK    1  A    between atoms: C_3  and  N_4 
REMARK       I    between atoms: N_4  and  C_5 
REMARK    2  A    between atoms: C_5  and  C_6 
REMARK    3  A    between atoms: C_7  and  C_8 
ROOT
HETATM    1  C   UNL     1       3.757  34.181  61.281  1.00  0.00     0.062 C 
HETATM    2  C   UNL     1       3.334  34.312  59.812  1.00  0.00     0.199 C 
HETATM    3  N   UNL     1       1.937  34.726  59.723  1.00  0.00    -0.092 N 
HETATM    4  C   UNL     1       1.049  34.680  60.759  1.00  0.00     0.735 A 
HETATM    5  N   UNL     1       1.480  34.273  61.971  1.00  0.00    -0.191 N 
HETATM    6  N   UNL     1       1.353  35.240  58.630  1.00  0.00     0.012 NA
HETATM    7  N   UNL     1       0.092  35.449  58.997  1.00  0.00     0.033 NA
HETATM    8  N   UNL     1      -0.111  35.104  60.322  1.00  0.00     0.030 NA
HETATM    9  C   UNL     1       2.829  34.096  62.271  1.00  0.00     0.037 C 
HETATM   10  C   UNL     1       3.134  33.791  63.717  1.00  0.00     0.070 C 
HETATM   11  H   UNL     1       0.821  34.276  62.747  1.00  0.00     0.184 HD
ENDROOT
BRANCH   1  12
HETATM   12  C   UNL     1       5.236  34.168  61.494  1.00  0.00     0.256 C 
HETATM   13  N   UNL     1       5.804  32.923  61.342  1.00  0.00    -0.323 N 
HETATM   14  H   UNL     1       5.163  32.142  61.362  1.00  0.00     0.169 HD
HETATM   15  O   UNL     1       5.788  35.169  61.925  1.00  0.00    -0.267 OA
BRANCH  13  16
HETATM   16  C   UNL     1       7.174  32.570  61.348  1.00  0.00     0.041 A 
HETATM   17  C   UNL     1       8.010  32.467  62.476  1.00  0.00    -0.035 A 
HETATM   18  C   UNL     1       7.602  32.784  63.888  1.00  0.00     0.050 C 
HETATM   19  C   UNL     1       9.354  32.076  62.291  1.00  0.00     0.009 A 
HETATM   20  C   UNL     1       9.881  31.850  61.022  1.00  0.00     0.001 A 
HETATM   21  C   UNL     1       9.073  32.010  59.908  1.00  0.00     0.002 A 
HETATM   22  C   UNL     1       7.735  32.370  60.071  1.00  0.00     0.030 A 
ENDBRANCH  13  16
ENDBRANCH   1  12
BRANCH   2  23
HETATM   23  C   UNL     1       3.526  33.037  59.009  1.00  0.00    -0.011 A 
HETATM   24  C   UNL     1       3.098  31.794  59.478  1.00  0.00     0.125 A 
HETATM   25  N   UNL     1       3.250  30.630  58.807  1.00  0.00    -0.272 NA
HETATM   26  C   UNL     1       3.858  30.699  57.605  1.00  0.00     0.116 A 
HETATM   27  C   UNL     1       4.316  31.877  57.042  1.00  0.00     0.020 A 
HETATM   28  C   UNL     1       4.146  33.060  57.755  1.00  0.00     0.012 A 
ENDBRANCH   2  23
TORSDOF 3
ENDMDL
