MODEL 1
REMARK VINA RESULT:      -9.3      0.000      0.000
REMARK  3 active torsions:
REMARK  status: ('A' for Active; 'I' for Inactive)
REMARK    1  A    between atoms: C_4  and  C_5 
REMARK    2  A    between atoms: C_5  and  N_6 
REMARK    3  A    between atoms: C_16  and  C_17 
ROOT
HETATM    1  N   UNL     1       6.681  27.271  55.923  1.00  0.00    -0.065 N 
HETATM    2  H   UNL     1       7.337  26.499  55.700  1.00  0.00     0.280 HD
HETATM    3  C   UNL     1       6.649  27.409  57.416  1.00  0.00     0.238 C 
HETATM    4  C   UNL     1       7.824  28.259  57.864  1.00  0.00     0.077 C 
HETATM    5  C   UNL     1       7.728  29.720  57.326  1.00  0.00     0.218 C 
HETATM    6  N   UNL     1       9.116  30.219  57.097  1.00  0.00     0.102 N 
HETATM    7  C   UNL     1       9.862  30.366  58.373  1.00  0.00     0.291 C 
HETATM    8  C   UNL     1       9.172  31.164  59.517  1.00  0.00     0.160 C 
HETATM    9  N   UNL     1       7.693  31.197  59.422  1.00  0.00    -0.331 N 
HETATM   10  C   UNL     1       7.045  30.636  58.381  1.00  0.00     0.123 A 
HETATM   11  C   UNL     1       6.785  31.896  60.255  1.00  0.00     0.061 A 
HETATM   12  C   UNL     1       5.589  31.819  59.566  1.00  0.00     0.120 A 
HETATM   13  N   UNL     1       5.778  31.047  58.444  1.00  0.00    -0.351 N 
HETATM   14  H   UNL     1       5.044  30.873  57.764  1.00  0.00     0.166 HD
HETATM   15  C   UNL     1       6.991  29.733  55.960  1.00  0.00     0.077 C 
HETATM   16  C   UNL     1       7.233  28.458  55.163  1.00  0.00     0.238 C 
HETATM   17  H   UNL     1       9.094  31.141  56.648  1.00  0.00     0.317 HD
ENDROOT
BRANCH   1  18
HETATM   18  C   UNL     1       5.376  26.716  55.358  1.00  0.00     0.299 C 
BRANCH  18  19
HETATM   19  C   UNL     1       5.599  25.812  54.206  1.00  0.00     0.079 A 
HETATM   20  O   UNL     1       6.665  24.962  54.306  1.00  0.00    -0.318 OA
HETATM   21  C   UNL     1       6.677  24.207  53.171  1.00  0.00     0.049 A 
HETATM   22  C   UNL     1       7.746  23.193  53.047  1.00  0.00     0.076 C 
HETATM   23  C   UNL     1       5.628  24.567  52.353  1.00  0.00     0.035 A 
HETATM   24  C   UNL     1       4.932  25.603  53.020  1.00  0.00     0.037 A 
ENDBRANCH  18  19
ENDBRANCH   1  18
BRANCH  11  25
HETATM   25  C   UNL     1       6.965  32.590  61.584  1.00  0.00    -0.008 A 
HETATM   26  C   UNL     1       7.881  32.141  62.536  1.00  0.00     0.014 A 
HETATM   27  C   UNL     1       7.981  32.773  63.782  1.00  0.00     0.001 A 
HETATM   28  C   UNL     1       7.169  33.859  64.088  1.00  0.00     0.000 A 
HETATM   29  C   UNL     1       6.256  34.321  63.147  1.00  0.00     0.001 A 
HETATM   30  C   UNL     1       6.151  33.692  61.903  1.00  0.00     0.014 A 
ENDBRANCH  11  25
TORSDOF 3
ENDMDL
MODEL 2
REMARK VINA RESULT:      -9.3      5.546      8.774
REMARK  3 active torsions:
REMARK  status: ('A' for Active; 'I' for Inactive)
REMARK    1  A    between atoms: C_4  and  C_5 
REMARK    2  A    between atoms: C_5  and  N_6 
REMARK    3  A    between atoms: C_16  and  C_17 
ROOT
HETATM    1  N   UNL     1       4.194  30.017  51.079  1.00  0.00    -0.065 N 
HETATM    2  H   UNL     1       4.491  31.005  51.190  1.00  0.00     0.280 HD
HETATM    3  C   UNL     1       5.435  29.177  51.095  1.00  0.00     0.238 C 
HETATM    4  C   UNL     1       5.839  28.909  52.533  1.00  0.00     0.077 C 
HETATM    5  C   UNL     1       4.772  28.061  53.292  1.00  0.00     0.218 C 
HETATM    6  N   UNL     1       4.783  28.481  54.724  1.00  0.00     0.102 N 
HETATM    7  C   UNL     1       6.057  28.114  55.392  1.00  0.00     0.291 C 
HETATM    8  C   UNL     1       6.545  26.644  55.247  1.00  0.00     0.160 C 
HETATM    9  N   UNL     1       6.019  25.950  54.047  1.00  0.00    -0.331 N 
HETATM   10  C   UNL     1       5.138  26.551  53.220  1.00  0.00     0.123 A 
HETATM   11  C   UNL     1       6.209  24.598  53.673  1.00  0.00     0.061 A 
HETATM   12  C   UNL     1       5.288  24.409  52.659  1.00  0.00     0.120 A 
HETATM   13  N   UNL     1       4.664  25.607  52.406  1.00  0.00    -0.351 N 
HETATM   14  H   UNL     1       3.923  25.710  51.718  1.00  0.00     0.166 HD
HETATM   15  C   UNL     1       3.359  28.357  52.724  1.00  0.00     0.077 C 
HETATM   16  C   UNL     1       3.229  29.790  52.223  1.00  0.00     0.238 C 
HETATM   17  H   UNL     1       4.025  28.016  55.237  1.00  0.00     0.317 HD
ENDROOT
BRANCH   1  18
HETATM   18  C   UNL     1       3.536  30.064  49.703  1.00  0.00     0.299 C 
BRANCH  18  19
HETATM   19  C   UNL     1       3.936  28.924  48.846  1.00  0.00     0.079 A 
HETATM   20  O   UNL     1       3.307  27.736  49.093  1.00  0.00    -0.318 OA
HETATM   21  C   UNL     1       3.791  26.837  48.190  1.00  0.00     0.049 A 
HETATM   22  C   UNL     1       3.249  25.463  48.250  1.00  0.00     0.076 C 
HETATM   23  C   UNL     1       4.719  27.443  47.370  1.00  0.00     0.035 A 
HETATM   24  C   UNL     1       4.813  28.790  47.793  1.00  0.00     0.037 A 
ENDBRANCH  18  19
ENDBRANCH   1  18
BRANCH  11  25
HETATM   25  C   UNL     1       7.153  23.534  54.181  1.00  0.00    -0.008 A 
HETATM   26  C   UNL     1       7.234  23.200  55.534  1.00  0.00     0.014 A 
HETATM   27  C   UNL     1       8.161  22.250  55.979  1.00  0.00     0.001 A 
HETATM   28  C   UNL     1       9.014  21.623  55.078  1.00  0.00     0.000 A 
HETATM   29  C   UNL     1       8.942  21.940  53.727  1.00  0.00     0.001 A 
HETATM   30  C   UNL     1       8.019  22.890  53.279  1.00  0.00     0.014 A 
ENDBRANCH  11  25
TORSDOF 3
ENDMDL
MODEL 3
REMARK VINA RESULT:      -9.3      2.275      4.550
REMARK  3 active torsions:
REMARK  status: ('A' for Active; 'I' for Inactive)
REMARK    1  A    between atoms: C_4  and  C_5 
REMARK    2  A    between atoms: C_5  and  N_6 
REMARK    3  A    between atoms: C_16  and  C_17 
ROOT
HETATM    1  N   UNL     1       6.708  24.915  52.706  1.00  0.00    -0.065 N 
HETATM    2  H   UNL     1       6.447  25.053  51.712  1.00  0.00     0.280 HD
HETATM    3  C   UNL     1       7.609  26.051  53.089  1.00  0.00     0.238 C 
HETATM    4  C   UNL     1       6.764  27.255  53.462  1.00  0.00     0.077 C 
HETATM    5  C   UNL     1       5.896  26.989  54.730  1.00  0.00     0.218 C 
HETATM    6  N   UNL     1       4.628  27.764  54.590  1.00  0.00     0.102 N 
HETATM    7  C   UNL     1       4.872  29.228  54.637  1.00  0.00     0.291 C 
HETATM    8  C   UNL     1       5.723  29.775  55.819  1.00  0.00     0.160 C 
HETATM    9  N   UNL     1       6.632  28.771  56.422  1.00  0.00    -0.331 N 
HETATM   10  C   UNL     1       6.638  27.489  56.002  1.00  0.00     0.123 A 
HETATM   11  C   UNL     1       7.473  28.928  57.551  1.00  0.00     0.061 A 
HETATM   12  C   UNL     1       7.866  27.635  57.845  1.00  0.00     0.120 A 
HETATM   13  N   UNL     1       7.351  26.793  56.888  1.00  0.00    -0.351 N 
HETATM   14  H   UNL     1       7.483  25.786  56.911  1.00  0.00     0.166 HD
HETATM   15  C   UNL     1       5.523  25.485  54.811  1.00  0.00     0.077 C 
HETATM   16  C   UNL     1       5.382  24.853  53.432  1.00  0.00     0.238 C 
HETATM   17  H   UNL     1       3.985  27.538  55.358  1.00  0.00     0.317 HD
ENDROOT
BRANCH   1  18
HETATM   18  C   UNL     1       7.446  23.581  52.632  1.00  0.00     0.299 C 
BRANCH  18  19
HETATM   19  C   UNL     1       7.857  23.088  53.966  1.00  0.00     0.079 A 
HETATM   20  O   UNL     1       7.527  21.794  54.258  1.00  0.00    -0.318 OA
HETATM   21  C   UNL     1       8.014  21.533  55.504  1.00  0.00     0.049 A 
HETATM   22  C   UNL     1       7.789  20.175  56.045  1.00  0.00     0.076 C 
HETATM   23  C   UNL     1       8.653  22.646  56.006  1.00  0.00     0.035 A 
HETATM   24  C   UNL     1       8.552  23.651  55.014  1.00  0.00     0.037 A 
ENDBRANCH  18  19
ENDBRANCH   1  18
BRANCH  11  25
HETATM   25  C   UNL     1       7.905  30.151  58.325  1.00  0.00    -0.008 A 
HETATM   26  C   UNL     1       9.249  30.496  58.475  1.00  0.00     0.014 A 
HETATM   27  C   UNL     1       9.617  31.605  59.247  1.00  0.00     0.001 A 
HETATM   28  C   UNL     1       8.649  32.379  59.875  1.00  0.00     0.000 A 
HETATM   29  C   UNL     1       7.306  32.051  59.730  1.00  0.00     0.001 A 
HETATM   30  C   UNL     1       6.934  30.944  58.961  1.00  0.00     0.014 A 
ENDBRANCH  11  25
TORSDOF 3
ENDMDL
MODEL 4
REMARK VINA RESULT:      -9.3      1.262      1.640
REMARK  3 active torsions:
REMARK  status: ('A' for Active; 'I' for Inactive)
REMARK    1  A    between atoms: C_4  and  C_5 
REMARK    2  A    between atoms: C_5  and  N_6 
REMARK    3  A    between atoms: C_16  and  C_17 
ROOT
HETATM    1  N   UNL     1       7.764  26.470  55.264  1.00  0.00    -0.065 N 
HETATM    2  H   UNL     1       8.549  25.832  55.029  1.00  0.00     0.280 HD
HETATM    3  C   UNL     1       7.769  26.649  56.752  1.00  0.00     0.238 C 
HETATM    4  C   UNL     1       8.772  27.726  57.122  1.00  0.00     0.077 C 
HETATM    5  C   UNL     1       8.370  29.121  56.552  1.00  0.00     0.218 C 
HETATM    6  N   UNL     1       9.623  29.872  56.245  1.00  0.00     0.102 N 
HETATM    7  C   UNL     1      10.379  30.205  57.479  1.00  0.00     0.291 C 
HETATM    8  C   UNL     1       9.595  30.893  58.634  1.00  0.00     0.160 C 
HETATM    9  N   UNL     1       8.135  30.634  58.609  1.00  0.00    -0.331 N 
HETATM   10  C   UNL     1       7.566  29.923  57.615  1.00  0.00     0.123 A 
HETATM   11  C   UNL     1       7.144  31.172  59.467  1.00  0.00     0.061 A 
HETATM   12  C   UNL     1       5.958  30.840  58.838  1.00  0.00     0.120 A 
HETATM   13  N   UNL     1       6.247  30.083  57.728  1.00  0.00    -0.351 N 
HETATM   14  H   UNL     1       5.534  29.746  57.088  1.00  0.00     0.166 HD
HETATM   15  C   UNL     1       7.588  28.945  55.223  1.00  0.00     0.077 C 
HETATM   16  C   UNL     1       8.041  27.714  54.448  1.00  0.00     0.238 C 
HETATM   17  H   UNL     1       9.402  30.757  55.774  1.00  0.00     0.317 HD
ENDROOT
BRANCH   1  18
HETATM   18  C   UNL     1       6.571  25.653  54.775  1.00  0.00     0.299 C 
BRANCH  18  19
HETATM   19  C   UNL     1       6.966  24.313  54.284  1.00  0.00     0.079 A 
HETATM   20  O   UNL     1       7.219  23.371  55.242  1.00  0.00    -0.318 OA
HETATM   21  C   UNL     1       7.535  22.217  54.589  1.00  0.00     0.049 A 
HETATM   22  C   UNL     1       7.844  21.035  55.421  1.00  0.00     0.076 C 
HETATM   23  C   UNL     1       7.482  22.415  53.225  1.00  0.00     0.035 A 
HETATM   24  C   UNL     1       7.115  23.768  53.029  1.00  0.00     0.037 A 
ENDBRANCH  18  19
ENDBRANCH   1  18
BRANCH  11  25
HETATM   25  C   UNL     1       7.240  31.932  60.768  1.00  0.00    -0.008 A 
HETATM   26  C   UNL     1       8.163  31.592  61.758  1.00  0.00     0.014 A 
HETATM   27  C   UNL     1       8.186  32.282  62.977  1.00  0.00     0.001 A 
HETATM   28  C   UNL     1       7.290  33.317  63.217  1.00  0.00     0.000 A 
HETATM   29  C   UNL     1       6.369  33.671  62.238  1.00  0.00     0.001 A 
HETATM   30  C   UNL     1       6.341  32.984  61.021  1.00  0.00     0.014 A 
ENDBRANCH  11  25
TORSDOF 3
ENDMDL
MODEL 5
REMARK VINA RESULT:      -9.1      3.624      9.411
REMARK  3 active torsions:
REMARK  status: ('A' for Active; 'I' for Inactive)
REMARK    1  A    between atoms: C_4  and  C_5 
REMARK    2  A    between atoms: C_5  and  N_6 
REMARK    3  A    between atoms: C_16  and  C_17 
ROOT
HETATM    1  N   UNL     1       4.343  30.025  56.485  1.00  0.00    -0.065 N 
HETATM    2  H   UNL     1       3.652  30.592  55.959  1.00  0.00     0.280 HD
HETATM    3  C   UNL     1       4.016  28.584  56.234  1.00  0.00     0.238 C 
HETATM    4  C   UNL     1       4.642  28.151  54.921  1.00  0.00     0.077 C 
HETATM    5  C   UNL     1       6.200  28.206  54.969  1.00  0.00     0.218 C 
HETATM    6  N   UNL     1       6.691  28.552  53.602  1.00  0.00     0.102 N 
HETATM    7  C   UNL     1       6.411  27.467  52.628  1.00  0.00     0.291 C 
HETATM    8  C   UNL     1       6.844  26.025  53.019  1.00  0.00     0.160 C 
HETATM    9  N   UNL     1       6.961  25.806  54.481  1.00  0.00    -0.331 N 
HETATM   10  C   UNL     1       6.773  26.813  55.358  1.00  0.00     0.123 A 
HETATM   11  C   UNL     1       7.405  24.640  55.151  1.00  0.00     0.061 A 
HETATM   12  C   UNL     1       7.590  25.065  56.454  1.00  0.00     0.120 A 
HETATM   13  N   UNL     1       7.194  26.378  56.546  1.00  0.00    -0.351 N 
HETATM   14  H   UNL     1       7.265  26.918  57.404  1.00  0.00     0.166 HD
HETATM   15  C   UNL     1       6.661  29.329  55.935  1.00  0.00     0.077 C 
HETATM   16  C   UNL     1       5.684  30.498  55.966  1.00  0.00     0.238 C 
HETATM   17  H   UNL     1       7.707  28.696  53.615  1.00  0.00     0.317 HD
ENDROOT
BRANCH   1  18
HETATM   18  C   UNL     1       4.039  30.454  57.919  1.00  0.00     0.299 C 
BRANCH  18  19
HETATM   19  C   UNL     1       4.101  31.923  58.093  1.00  0.00     0.079 A 
HETATM   20  O   UNL     1       3.111  32.644  57.486  1.00  0.00    -0.318 OA
HETATM   21  C   UNL     1       3.333  33.954  57.789  1.00  0.00     0.049 A 
HETATM   22  C   UNL     1       2.376  34.943  57.247  1.00  0.00     0.076 C 
HETATM   23  C   UNL     1       4.452  34.073  58.586  1.00  0.00     0.035 A 
HETATM   24  C   UNL     1       4.948  32.763  58.782  1.00  0.00     0.037 A 
ENDBRANCH  18  19
ENDBRANCH   1  18
BRANCH  11  25
HETATM   25  C   UNL     1       7.650  23.230  54.668  1.00  0.00    -0.008 A 
HETATM   26  C   UNL     1       7.853  22.934  53.319  1.00  0.00     0.014 A 
HETATM   27  C   UNL     1       8.020  21.608  52.899  1.00  0.00     0.001 A 
HETATM   28  C   UNL     1       7.986  20.567  53.820  1.00  0.00     0.000 A 
HETATM   29  C   UNL     1       7.790  20.847  55.167  1.00  0.00     0.001 A 
HETATM   30  C   UNL     1       7.621  22.169  55.591  1.00  0.00     0.014 A 
ENDBRANCH  11  25
TORSDOF 3
ENDMDL
MODEL 6
REMARK VINA RESULT:      -9.0      5.683      9.624
REMARK  3 active torsions:
REMARK  status: ('A' for Active; 'I' for Inactive)
REMARK    1  A    between atoms: C_4  and  C_5 
REMARK    2  A    between atoms: C_5  and  N_6 
REMARK    3  A    between atoms: C_16  and  C_17 
ROOT
HETATM    1  N   UNL     1       6.862  26.233  55.660  1.00  0.00    -0.065 N 
HETATM    2  H   UNL     1       6.570  26.460  56.630  1.00  0.00     0.280 HD
HETATM    3  C   UNL     1       5.629  25.827  54.911  1.00  0.00     0.238 C 
HETATM    4  C   UNL     1       4.911  27.070  54.418  1.00  0.00     0.077 C 
HETATM    5  C   UNL     1       5.764  27.866  53.383  1.00  0.00     0.218 C 
HETATM    6  N   UNL     1       5.446  29.316  53.542  1.00  0.00     0.102 N 
HETATM    7  C   UNL     1       4.047  29.617  53.145  1.00  0.00     0.291 C 
HETATM    8  C   UNL     1       3.570  29.098  51.758  1.00  0.00     0.160 C 
HETATM    9  N   UNL     1       4.333  27.931  51.256  1.00  0.00    -0.331 N 
HETATM   10  C   UNL     1       5.388  27.438  51.936  1.00  0.00     0.123 A 
HETATM   11  C   UNL     1       4.199  27.278  50.006  1.00  0.00     0.061 A 
HETATM   12  C   UNL     1       5.316  26.467  49.942  1.00  0.00     0.120 A 
HETATM   13  N   UNL     1       6.009  26.582  51.124  1.00  0.00    -0.351 N 
HETATM   14  H   UNL     1       6.885  26.099  51.299  1.00  0.00     0.166 HD
HETATM   15  C   UNL     1       7.274  27.678  53.685  1.00  0.00     0.077 C 
HETATM   16  C   UNL     1       7.544  27.493  55.173  1.00  0.00     0.238 C 
HETATM   17  H   UNL     1       6.061  29.883  52.947  1.00  0.00     0.317 HD
ENDROOT
BRANCH   1  18
HETATM   18  C   UNL     1       7.810  25.062  55.909  1.00  0.00     0.299 C 
BRANCH  18  19
HETATM   19  C   UNL     1       7.885  24.142  54.751  1.00  0.00     0.079 A 
HETATM   20  O   UNL     1       7.788  22.808  55.035  1.00  0.00    -0.318 OA
HETATM   21  C   UNL     1       7.852  22.145  53.845  1.00  0.00     0.049 A 
HETATM   22  C   UNL     1       7.758  20.670  53.891  1.00  0.00     0.076 C 
HETATM   23  C   UNL     1       7.985  23.044  52.809  1.00  0.00     0.035 A 
HETATM   24  C   UNL     1       8.007  24.333  53.393  1.00  0.00     0.037 A 
ENDBRANCH  18  19
ENDBRANCH   1  18
BRANCH  11  25
HETATM   25  C   UNL     1       3.142  27.366  48.931  1.00  0.00    -0.008 A 
HETATM   26  C   UNL     1       2.136  28.334  48.957  1.00  0.00     0.014 A 
HETATM   27  C   UNL     1       1.138  28.351  47.975  1.00  0.00     0.001 A 
HETATM   28  C   UNL     1       1.134  27.403  46.958  1.00  0.00     0.000 A 
HETATM   29  C   UNL     1       2.132  26.436  46.915  1.00  0.00     0.001 A 
HETATM   30  C   UNL     1       3.130  26.415  47.895  1.00  0.00     0.014 A 
ENDBRANCH  11  25
TORSDOF 3
ENDMDL
MODEL 7
REMARK VINA RESULT:      -8.6      3.167      9.823
REMARK  3 active torsions:
REMARK  status: ('A' for Active; 'I' for Inactive)
REMARK    1  A    between atoms: C_4  and  C_5 
REMARK    2  A    between atoms: C_5  and  N_6 
REMARK    3  A    between atoms: C_16  and  C_17 
ROOT
HETATM    1  N   UNL     1       7.470  28.930  57.306  1.00  0.00    -0.065 N 
HETATM    2  H   UNL     1       8.417  28.812  57.713  1.00  0.00     0.280 HD
HETATM    3  C   UNL     1       7.652  29.336  55.874  1.00  0.00     0.238 C 
HETATM    4  C   UNL     1       7.877  28.097  55.028  1.00  0.00     0.077 C 
HETATM    5  C   UNL     1       6.631  27.159  55.022  1.00  0.00     0.218 C 
HETATM    6  N   UNL     1       7.115  25.751  54.905  1.00  0.00     0.102 N 
HETATM    7  C   UNL     1       7.748  25.498  53.586  1.00  0.00     0.291 C 
HETATM    8  C   UNL     1       6.949  25.911  52.317  1.00  0.00     0.160 C 
HETATM    9  N   UNL     1       5.949  26.980  52.556  1.00  0.00    -0.331 N 
HETATM   10  C   UNL     1       5.731  27.471  53.793  1.00  0.00     0.123 A 
HETATM   11  C   UNL     1       5.017  27.519  51.635  1.00  0.00     0.061 A 
HETATM   12  C   UNL     1       4.160  28.254  52.434  1.00  0.00     0.120 A 
HETATM   13  N   UNL     1       4.622  28.209  53.728  1.00  0.00    -0.351 N 
HETATM   14  H   UNL     1       4.138  28.654  54.503  1.00  0.00     0.166 HD
HETATM   15  C   UNL     1       5.867  27.284  56.366  1.00  0.00     0.077 C 
HETATM   16  C   UNL     1       6.800  27.592  57.531  1.00  0.00     0.238 C 
HETATM   17  H   UNL     1       6.331  25.096  54.998  1.00  0.00     0.317 HD
ENDROOT
BRANCH   1  18
HETATM   18  C   UNL     1       6.920  30.061  58.171  1.00  0.00     0.299 C 
BRANCH  18  19
HETATM   19  C   UNL     1       7.983  30.765  58.924  1.00  0.00     0.079 A 
HETATM   20  O   UNL     1       7.730  31.000  60.246  1.00  0.00    -0.318 OA
HETATM   21  C   UNL     1       8.830  31.624  60.755  1.00  0.00     0.049 A 
HETATM   22  C   UNL     1       8.800  31.978  62.190  1.00  0.00     0.076 C 
HETATM   23  C   UNL     1       9.781  31.784  59.770  1.00  0.00     0.035 A 
HETATM   24  C   UNL     1       9.235  31.230  58.588  1.00  0.00     0.037 A 
ENDBRANCH  18  19
ENDBRANCH   1  18
BRANCH  11  25
HETATM   25  C   UNL     1       4.893  27.394  50.135  1.00  0.00    -0.008 A 
HETATM   26  C   UNL     1       4.337  26.266  49.530  1.00  0.00     0.014 A 
HETATM   27  C   UNL     1       4.290  26.157  48.134  1.00  0.00     0.001 A 
HETATM   28  C   UNL     1       4.796  27.173  47.331  1.00  0.00     0.000 A 
HETATM   29  C   UNL     1       5.348  28.305  47.920  1.00  0.00     0.001 A 
HETATM   30  C   UNL     1       5.398  28.416  49.313  1.00  0.00     0.014 A 
ENDBRANCH  11  25
TORSDOF 3
ENDMDL
MODEL 8
REMARK VINA RESULT:      -8.5      4.738      8.586
REMARK  3 active torsions:
REMARK  status: ('A' for Active; 'I' for Inactive)
REMARK    1  A    between atoms: C_4  and  C_5 
REMARK    2  A    between atoms: C_5  and  N_6 
REMARK    3  A    between atoms: C_16  and  C_17 
ROOT
HETATM    1  N   UNL     1       5.161  30.310  55.069  1.00  0.00    -0.065 N 
HETATM    2  H   UNL     1       5.679  31.120  55.458  1.00  0.00     0.280 HD
HETATM    3  C   UNL     1       6.161  29.439  54.369  1.00  0.00     0.238 C 
HETATM    4  C   UNL     1       6.836  28.537  55.385  1.00  0.00     0.077 C 
HETATM    5  C   UNL     1       5.832  27.543  56.043  1.00  0.00     0.218 C 
HETATM    6  N   UNL     1       6.280  27.294  57.445  1.00  0.00     0.102 N 
HETATM    7  C   UNL     1       7.571  26.562  57.485  1.00  0.00     0.291 C 
HETATM    8  C   UNL     1       7.685  25.265  56.634  1.00  0.00     0.160 C 
HETATM    9  N   UNL     1       6.747  25.212  55.487  1.00  0.00    -0.331 N 
HETATM   10  C   UNL     1       5.840  26.188  55.278  1.00  0.00     0.123 A 
HETATM   11  C   UNL     1       6.549  24.146  54.575  1.00  0.00     0.061 A 
HETATM   12  C   UNL     1       5.390  24.501  53.909  1.00  0.00     0.120 A 
HETATM   13  N   UNL     1       4.992  25.740  54.352  1.00  0.00    -0.351 N 
HETATM   14  H   UNL     1       4.146  26.197  54.026  1.00  0.00     0.166 HD
HETATM   15  C   UNL     1       4.419  28.181  56.106  1.00  0.00     0.077 C 
HETATM   16  C   UNL     1       4.479  29.695  56.271  1.00  0.00     0.238 C 
HETATM   17  H   UNL     1       5.589  26.722  57.944  1.00  0.00     0.317 HD
ENDROOT
BRANCH   1  18
HETATM   18  C   UNL     1       4.213  31.010  54.099  1.00  0.00     0.299 C 
BRANCH  18  19
HETATM   19  C   UNL     1       3.961  30.209  52.879  1.00  0.00     0.079 A 
HETATM   20  O   UNL     1       4.565  30.649  51.734  1.00  0.00    -0.318 OA
HETATM   21  C   UNL     1       4.232  29.769  50.748  1.00  0.00     0.049 A 
HETATM   22  C   UNL     1       4.780  30.030  49.399  1.00  0.00     0.076 C 
HETATM   23  C   UNL     1       3.425  28.773  51.255  1.00  0.00     0.035 A 
HETATM   24  C   UNL     1       3.250  29.056  52.630  1.00  0.00     0.037 A 
ENDBRANCH  18  19
ENDBRANCH   1  18
BRANCH  11  25
HETATM   25  C   UNL     1       7.340  22.888  54.307  1.00  0.00    -0.008 A 
HETATM   26  C   UNL     1       7.810  22.566  53.033  1.00  0.00     0.014 A 
HETATM   27  C   UNL     1       8.490  21.363  52.808  1.00  0.00     0.001 A 
HETATM   28  C   UNL     1       8.708  20.471  53.852  1.00  0.00     0.000 A 
HETATM   29  C   UNL     1       8.251  20.780  55.128  1.00  0.00     0.001 A 
HETATM   30  C   UNL     1       7.570  21.980  55.356  1.00  0.00     0.014 A 
ENDBRANCH  11  25
TORSDOF 3
ENDMDL
MODEL 9
REMARK VINA RESULT:      -8.4      2.605      3.537
REMARK  3 active torsions:
REMARK  status: ('A' for Active; 'I' for Inactive)
REMARK    1  A    between atoms: C_4  and  C_5 
REMARK    2  A    between atoms: C_5  and  N_6 
REMARK    3  A    between atoms: C_16  and  C_17 
ROOT
HETATM    1  N   UNL     1       6.320  26.210  55.638  1.00  0.00    -0.065 N 
HETATM    2  H   UNL     1       6.603  25.420  56.247  1.00  0.00     0.280 HD
HETATM    3  C   UNL     1       5.311  27.017  56.399  1.00  0.00     0.238 C 
HETATM    4  C   UNL     1       6.034  27.974  57.328  1.00  0.00     0.077 C 
HETATM    5  C   UNL     1       6.877  29.026  56.544  1.00  0.00     0.218 C 
HETATM    6  N   UNL     1       8.077  29.360  57.366  1.00  0.00     0.102 N 
HETATM    7  C   UNL     1       7.705  30.073  58.614  1.00  0.00     0.291 C 
HETATM    8  C   UNL     1       6.769  31.309  58.481  1.00  0.00     0.160 C 
HETATM    9  N   UNL     1       5.930  31.299  57.259  1.00  0.00    -0.331 N 
HETATM   10  C   UNL     1       6.050  30.326  56.333  1.00  0.00     0.123 A 
HETATM   11  C   UNL     1       5.039  32.305  56.810  1.00  0.00     0.061 A 
HETATM   12  C   UNL     1       4.749  31.925  55.512  1.00  0.00     0.120 A 
HETATM   13  N   UNL     1       5.369  30.725  55.258  1.00  0.00    -0.351 N 
HETATM   14  H   UNL     1       5.325  30.260  54.356  1.00  0.00     0.166 HD
HETATM   15  C   UNL     1       7.376  28.415  55.208  1.00  0.00     0.077 C 
HETATM   16  C   UNL     1       7.620  26.915  55.317  1.00  0.00     0.238 C 
HETATM   17  H   UNL     1       8.710  29.974  56.841  1.00  0.00     0.317 HD
ENDROOT
BRANCH   1  18
HETATM   18  C   UNL     1       5.704  25.462  54.458  1.00  0.00     0.299 C 
BRANCH  18  19
HETATM   19  C   UNL     1       6.575  24.371  53.965  1.00  0.00     0.079 A 
HETATM   20  O   UNL     1       6.825  23.356  54.845  1.00  0.00    -0.318 OA
HETATM   21  C   UNL     1       7.613  22.453  54.194  1.00  0.00     0.049 A 
HETATM   22  C   UNL     1       8.015  21.245  54.946  1.00  0.00     0.076 C 
HETATM   23  C   UNL     1       7.862  22.883  52.909  1.00  0.00     0.035 A 
HETATM   24  C   UNL     1       7.193  24.121  52.760  1.00  0.00     0.037 A 
ENDBRANCH  18  19
ENDBRANCH   1  18
BRANCH  11  25
HETATM   25  C   UNL     1       4.476  33.530  57.489  1.00  0.00    -0.008 A 
HETATM   26  C   UNL     1       4.693  34.818  56.995  1.00  0.00     0.014 A 
HETATM   27  C   UNL     1       4.205  35.936  57.681  1.00  0.00     0.001 A 
HETATM   28  C   UNL     1       3.495  35.780  58.866  1.00  0.00     0.000 A 
HETATM   29  C   UNL     1       3.265  34.505  59.368  1.00  0.00     0.001 A 
HETATM   30  C   UNL     1       3.753  33.385  58.686  1.00  0.00     0.014 A 
ENDBRANCH  11  25
TORSDOF 3
ENDMDL
MODEL 10
REMARK VINA RESULT:      -8.4      2.811      8.735
REMARK  3 active torsions:
REMARK  status: ('A' for Active; 'I' for Inactive)
REMARK    1  A    between atoms: C_4  and  C_5 
REMARK    2  A    between atoms: C_5  and  N_6 
REMARK    3  A    between atoms: C_16  and  C_17 
ROOT
HETATM    1  N   UNL     1       4.071  31.925  57.885  1.00  0.00    -0.065 N 
HETATM    2  H   UNL     1       3.076  32.089  58.129  1.00  0.00     0.280 HD
HETATM    3  C   UNL     1       4.309  30.447  57.969  1.00  0.00     0.238 C 
HETATM    4  C   UNL     1       3.868  29.795  56.672  1.00  0.00     0.077 C 
HETATM    5  C   UNL     1       4.725  30.269  55.458  1.00  0.00     0.218 C 
HETATM    6  N   UNL     1       3.850  30.273  54.249  1.00  0.00     0.102 N 
HETATM    7  C   UNL     1       3.437  28.899  53.867  1.00  0.00     0.291 C 
HETATM    8  C   UNL     1       4.556  27.826  53.732  1.00  0.00     0.160 C 
HETATM    9  N   UNL     1       5.778  28.129  54.515  1.00  0.00    -0.331 N 
HETATM   10  C   UNL     1       5.898  29.278  55.211  1.00  0.00     0.123 A 
HETATM   11  C   UNL     1       6.993  27.400  54.545  1.00  0.00     0.061 A 
HETATM   12  C   UNL     1       7.868  28.255  55.190  1.00  0.00     0.120 A 
HETATM   13  N   UNL     1       7.175  29.375  55.584  1.00  0.00    -0.351 N 
HETATM   14  H   UNL     1       7.616  30.161  56.053  1.00  0.00     0.166 HD
HETATM   15  C   UNL     1       5.214  31.723  55.691  1.00  0.00     0.077 C 
HETATM   16  C   UNL     1       4.222  32.539  56.510  1.00  0.00     0.238 C 
HETATM   17  H   UNL     1       4.350  30.675  53.448  1.00  0.00     0.317 HD
ENDROOT
BRANCH   1  18
HETATM   18  C   UNL     1       4.775  32.697  58.998  1.00  0.00     0.299 C 
BRANCH  18  19
HETATM   19  C   UNL     1       6.071  32.087  59.375  1.00  0.00     0.079 A 
HETATM   20  O   UNL     1       6.352  32.052  60.712  1.00  0.00    -0.318 OA
HETATM   21  C   UNL     1       7.561  31.435  60.845  1.00  0.00     0.049 A 
HETATM   22  C   UNL     1       8.084  31.266  62.219  1.00  0.00     0.076 C 
HETATM   23  C   UNL     1       8.048  31.075  59.607  1.00  0.00     0.035 A 
HETATM   24  C   UNL     1       7.086  31.496  58.658  1.00  0.00     0.037 A 
ENDBRANCH  18  19
ENDBRANCH   1  18
BRANCH  11  25
HETATM   25  C   UNL     1       7.358  26.027  54.035  1.00  0.00    -0.008 A 
HETATM   26  C   UNL     1       7.647  25.789  52.690  1.00  0.00     0.014 A 
HETATM   27  C   UNL     1       7.925  24.492  52.240  1.00  0.00     0.001 A 
HETATM   28  C   UNL     1       7.919  23.422  53.128  1.00  0.00     0.000 A 
HETATM   29  C   UNL     1       7.639  23.644  54.471  1.00  0.00     0.001 A 
HETATM   30  C   UNL     1       7.359  24.937  54.924  1.00  0.00     0.014 A 
ENDBRANCH  11  25
TORSDOF 3
ENDMDL
