MODEL 1
REMARK VINA RESULT:     -10.4      0.000      0.000
REMARK  5 active torsions:
REMARK  status: ('A' for Active; 'I' for Inactive)
REMARK    1  A    between atoms: N_4  and  C_5 
REMARK    2  A    between atoms: C_15  and  N_16 
REMARK       I    between atoms: N_16  and  C_17 
REMARK    3  A    between atoms: C_17  and  C_18 
REMARK    4  A    between atoms: C_20  and  C_21 
REMARK    5  A    between atoms: C_26  and  C_27 
ROOT
HETATM    1  N   UNL     1       5.681  25.449  52.325  1.00  0.00    -0.307 N 
HETATM    2  C   UNL     1       7.053  25.374  52.511  1.00  0.00     0.257 C 
HETATM    3  O   UNL     1       7.881  26.145  52.034  1.00  0.00    -0.267 OA
HETATM    4  H   UNL     1       5.062  24.957  52.953  1.00  0.00     0.170 HD
ENDROOT
BRANCH   1   5
HETATM    5  C   UNL     1       5.127  26.446  51.536  1.00  0.00     0.152 C 
HETATM    6  N   UNL     1       4.543  27.635  51.968  1.00  0.00    -0.045 N 
HETATM    7  N   UNL     1       3.821  28.221  50.951  1.00  0.00    -0.156 NA
HETATM    8  C   UNL     1       4.210  27.562  49.854  1.00  0.00     0.055 C 
HETATM    9  C   UNL     1       3.713  27.974  48.518  1.00  0.00     0.072 C 
HETATM   10  C   UNL     1       5.058  26.476  50.161  1.00  0.00     0.079 C 
BRANCH   6  11
HETATM   11  C   UNL     1       4.749  28.381  53.150  1.00  0.00     0.732 A 
HETATM   12  N   UNL     1       5.759  28.222  53.956  1.00  0.00    -0.067 NA
HETATM   13  C   UNL     1       5.775  29.089  55.012  1.00  0.00     0.065 A 
HETATM   14  C   UNL     1       4.882  30.049  55.255  1.00  0.00     0.036 A 
HETATM   15  C   UNL     1       6.860  29.090  56.035  1.00  0.00     0.061 C 
HETATM   16  C   UNL     1       5.185  30.854  56.458  1.00  0.00     0.047 C 
HETATM   17  C   UNL     1       3.767  30.233  54.330  1.00  0.00     0.268 A 
HETATM   18  C   UNL     1       6.313  30.043  57.108  1.00  0.00     0.011 C 
HETATM   19  O   UNL     1       2.929  31.113  54.474  1.00  0.00    -0.267 OA
HETATM   20  N   UNL     1       3.774  29.346  53.293  1.00  0.00    -0.152 N 
HETATM   21  H   UNL     1       3.057  29.420  52.578  1.00  0.00     0.188 HD
ENDBRANCH   6  11
ENDBRANCH   1   5
BRANCH   2  22
HETATM   22  C   UNL     1       7.535  24.300  53.423  1.00  0.00     0.034 A 
HETATM   23  C   UNL     1       7.793  24.640  54.758  1.00  0.00     0.033 A 
HETATM   24  C   UNL     1       8.215  23.669  55.678  1.00  0.00     0.049 A 
HETATM   25  C   UNL     1       8.368  22.342  55.240  1.00  0.00     0.032 A 
HETATM   26  C   UNL     1       8.105  21.981  53.908  1.00  0.00     0.049 A 
HETATM   27  C   UNL     1       7.678  22.971  53.005  1.00  0.00     0.033 A 
BRANCH  24  28
HETATM   28  C   UNL     1       8.486  24.024  57.121  1.00  0.00     0.417 C 
HETATM   29  F   UNL     1       8.488  22.953  57.961  1.00  0.00    -0.166 F 
HETATM   30  F   UNL     1       9.692  24.633  57.283  1.00  0.00    -0.166 F 
HETATM   31  F   UNL     1       7.560  24.889  57.619  1.00  0.00    -0.166 F 
ENDBRANCH  24  28
BRANCH  26  32
HETATM   32  C   UNL     1       8.231  20.546  53.448  1.00  0.00     0.417 C 
HETATM   33  F   UNL     1       9.290  20.332  52.622  1.00  0.00    -0.166 F 
HETATM   34  F   UNL     1       8.378  19.684  54.489  1.00  0.00    -0.166 F 
HETATM   35  F   UNL     1       7.130  20.126  52.766  1.00  0.00    -0.166 F 
ENDBRANCH  26  32
ENDBRANCH   2  22
TORSDOF 5
ENDMDL
MODEL 2
REMARK VINA RESULT:     -10.3      0.211      3.052
REMARK  5 active torsions:
REMARK  status: ('A' for Active; 'I' for Inactive)
REMARK    1  A    between atoms: N_4  and  C_5 
REMARK    2  A    between atoms: C_15  and  N_16 
REMARK       I    between atoms: N_16  and  C_17 
REMARK    3  A    between atoms: C_17  and  C_18 
REMARK    4  A    between atoms: C_20  and  C_21 
REMARK    5  A    between atoms: C_26  and  C_27 
ROOT
HETATM    1  N   UNL     1       5.591  25.490  52.354  1.00  0.00    -0.307 N 
HETATM    2  C   UNL     1       6.961  25.372  52.537  1.00  0.00     0.257 C 
HETATM    3  O   UNL     1       7.815  26.072  52.003  1.00  0.00    -0.267 OA
HETATM    4  H   UNL     1       4.958  25.068  53.019  1.00  0.00     0.170 HD
ENDROOT
BRANCH   1   5
HETATM    5  C   UNL     1       5.071  26.451  51.500  1.00  0.00     0.152 C 
HETATM    6  N   UNL     1       4.473  27.658  51.856  1.00  0.00    -0.045 N 
HETATM    7  N   UNL     1       3.793  28.198  50.785  1.00  0.00    -0.156 NA
HETATM    8  C   UNL     1       4.224  27.491  49.735  1.00  0.00     0.055 C 
HETATM    9  C   UNL     1       3.782  27.844  48.364  1.00  0.00     0.072 C 
HETATM   10  C   UNL     1       5.057  26.420  50.124  1.00  0.00     0.079 C 
BRANCH   6  11
HETATM   11  C   UNL     1       4.634  28.455  53.011  1.00  0.00     0.732 A 
HETATM   12  N   UNL     1       5.564  28.281  53.905  1.00  0.00    -0.067 NA
HETATM   13  C   UNL     1       5.553  29.204  54.912  1.00  0.00     0.065 A 
HETATM   14  C   UNL     1       4.710  30.229  55.031  1.00  0.00     0.036 A 
HETATM   15  C   UNL     1       6.552  29.196  56.020  1.00  0.00     0.061 C 
HETATM   16  C   UNL     1       4.968  31.081  56.212  1.00  0.00     0.047 C 
HETATM   17  C   UNL     1       3.686  30.429  54.009  1.00  0.00     0.268 A 
HETATM   18  C   UNL     1       5.986  30.240  56.993  1.00  0.00     0.011 C 
HETATM   19  O   UNL     1       2.899  31.365  54.038  1.00  0.00    -0.267 OA
HETATM   20  N   UNL     1       3.716  29.485  53.022  1.00  0.00    -0.152 N 
HETATM   21  H   UNL     1       3.065  29.562  52.248  1.00  0.00     0.188 HD
ENDBRANCH   6  11
ENDBRANCH   1   5
BRANCH   2  22
HETATM   22  C   UNL     1       7.407  24.345  53.520  1.00  0.00     0.034 A 
HETATM   23  C   UNL     1       7.569  23.030  53.066  1.00  0.00     0.033 A 
HETATM   24  C   UNL     1       8.021  22.022  53.932  1.00  0.00     0.049 A 
HETATM   25  C   UNL     1       8.317  22.356  55.264  1.00  0.00     0.032 A 
HETATM   26  C   UNL     1       8.169  23.671  55.735  1.00  0.00     0.049 A 
HETATM   27  C   UNL     1       7.720  24.666  54.847  1.00  0.00     0.033 A 
BRANCH  24  28
HETATM   28  C   UNL     1       8.209  20.603  53.449  1.00  0.00     0.417 C 
HETATM   29  F   UNL     1       9.307  20.430  52.664  1.00  0.00    -0.166 F 
HETATM   30  F   UNL     1       8.338  19.722  54.479  1.00  0.00    -0.166 F 
HETATM   31  F   UNL     1       7.150  20.166  52.713  1.00  0.00    -0.166 F 
ENDBRANCH  24  28
BRANCH  26  32
HETATM   32  C   UNL     1       8.525  24.037  57.158  1.00  0.00     0.417 C 
HETATM   33  F   UNL     1       9.757  24.601  57.280  1.00  0.00    -0.166 F 
HETATM   34  F   UNL     1       7.645  24.921  57.697  1.00  0.00    -0.166 F 
HETATM   35  F   UNL     1       8.523  22.953  57.983  1.00  0.00    -0.166 F 
ENDBRANCH  26  32
ENDBRANCH   2  22
TORSDOF 5
ENDMDL
MODEL 3
REMARK VINA RESULT:     -10.2      4.679      8.413
REMARK  5 active torsions:
REMARK  status: ('A' for Active; 'I' for Inactive)
REMARK    1  A    between atoms: N_4  and  C_5 
REMARK    2  A    between atoms: C_15  and  N_16 
REMARK       I    between atoms: N_16  and  C_17 
REMARK    3  A    between atoms: C_17  and  C_18 
REMARK    4  A    between atoms: C_20  and  C_21 
REMARK    5  A    between atoms: C_26  and  C_27 
ROOT
HETATM    1  N   UNL     1       6.988  28.360  53.664  1.00  0.00    -0.307 N 
HETATM    2  C   UNL     1       5.663  28.271  53.265  1.00  0.00     0.257 C 
HETATM    3  O   UNL     1       4.703  28.104  54.011  1.00  0.00    -0.267 OA
HETATM    4  H   UNL     1       7.674  28.759  53.040  1.00  0.00     0.170 HD
ENDROOT
BRANCH   1   5
HETATM    5  C   UNL     1       7.333  28.246  55.002  1.00  0.00     0.152 C 
HETATM    6  N   UNL     1       7.378  27.081  55.765  1.00  0.00    -0.045 N 
HETATM    7  N   UNL     1       7.443  27.380  57.108  1.00  0.00    -0.156 NA
HETATM    8  C   UNL     1       7.738  28.685  57.138  1.00  0.00     0.055 C 
HETATM    9  C   UNL     1       7.986  29.367  58.432  1.00  0.00     0.072 C 
HETATM   10  C   UNL     1       7.724  29.259  55.848  1.00  0.00     0.079 C 
BRANCH   6  11
HETATM   11  C   UNL     1       7.571  25.737  55.374  1.00  0.00     0.732 A 
HETATM   12  N   UNL     1       7.567  25.318  54.141  1.00  0.00    -0.067 NA
HETATM   13  C   UNL     1       7.822  23.984  54.001  1.00  0.00     0.065 A 
HETATM   14  C   UNL     1       8.078  23.124  54.988  1.00  0.00     0.036 A 
HETATM   15  C   UNL     1       7.888  23.313  52.671  1.00  0.00     0.061 C 
HETATM   16  C   UNL     1       8.353  21.747  54.524  1.00  0.00     0.047 C 
HETATM   17  C   UNL     1       8.105  23.610  56.365  1.00  0.00     0.268 A 
HETATM   18  C   UNL     1       7.951  21.825  53.045  1.00  0.00     0.011 C 
HETATM   19  O   UNL     1       8.363  22.885  57.316  1.00  0.00    -0.267 OA
HETATM   20  N   UNL     1       7.836  24.944  56.472  1.00  0.00    -0.152 N 
HETATM   21  H   UNL     1       7.867  25.381  57.387  1.00  0.00     0.188 HD
ENDBRANCH   6  11
ENDBRANCH   1   5
BRANCH   2  22
HETATM   22  C   UNL     1       5.399  28.465  51.812  1.00  0.00     0.034 A 
HETATM   23  C   UNL     1       4.909  27.373  51.083  1.00  0.00     0.033 A 
HETATM   24  C   UNL     1       4.606  27.498  49.719  1.00  0.00     0.049 A 
HETATM   25  C   UNL     1       4.795  28.742  49.094  1.00  0.00     0.032 A 
HETATM   26  C   UNL     1       5.277  29.851  49.811  1.00  0.00     0.049 A 
HETATM   27  C   UNL     1       5.568  29.703  51.179  1.00  0.00     0.033 A 
BRANCH  24  28
HETATM   28  C   UNL     1       4.068  26.329  48.927  1.00  0.00     0.417 C 
HETATM   29  F   UNL     1       4.772  26.062  47.793  1.00  0.00    -0.166 F 
HETATM   30  F   UNL     1       4.065  25.176  49.651  1.00  0.00    -0.166 F 
HETATM   31  F   UNL     1       2.781  26.526  48.532  1.00  0.00    -0.166 F 
ENDBRANCH  24  28
BRANCH  26  32
HETATM   32  C   UNL     1       5.441  31.199  49.147  1.00  0.00     0.417 C 
HETATM   33  F   UNL     1       4.575  32.140  49.609  1.00  0.00    -0.166 F 
HETATM   34  F   UNL     1       6.689  31.709  49.321  1.00  0.00    -0.166 F 
HETATM   35  F   UNL     1       5.246  31.136  47.800  1.00  0.00    -0.166 F 
ENDBRANCH  26  32
ENDBRANCH   2  22
TORSDOF 5
ENDMDL
MODEL 4
REMARK VINA RESULT:     -10.2      4.665      7.998
REMARK  5 active torsions:
REMARK  status: ('A' for Active; 'I' for Inactive)
REMARK    1  A    between atoms: N_4  and  C_5 
REMARK    2  A    between atoms: C_15  and  N_16 
REMARK       I    between atoms: N_16  and  C_17 
REMARK    3  A    between atoms: C_17  and  C_18 
REMARK    4  A    between atoms: C_20  and  C_21 
REMARK    5  A    between atoms: C_26  and  C_27 
ROOT
HETATM    1  N   UNL     1       6.902  28.355  53.654  1.00  0.00    -0.307 N 
HETATM    2  C   UNL     1       5.578  28.183  53.283  1.00  0.00     0.257 C 
HETATM    3  O   UNL     1       4.647  27.948  54.048  1.00  0.00    -0.267 OA
HETATM    4  H   UNL     1       7.548  28.803  53.019  1.00  0.00     0.170 HD
ENDROOT
BRANCH   1   5
HETATM    5  C   UNL     1       7.284  28.256  54.984  1.00  0.00     0.152 C 
HETATM    6  N   UNL     1       7.358  27.097  55.755  1.00  0.00    -0.045 N 
HETATM    7  N   UNL     1       7.456  27.409  57.094  1.00  0.00    -0.156 NA
HETATM    8  C   UNL     1       7.740  28.716  57.104  1.00  0.00     0.055 C 
HETATM    9  C   UNL     1       8.015  29.411  58.386  1.00  0.00     0.072 C 
HETATM   10  C   UNL     1       7.688  29.279  55.811  1.00  0.00     0.079 C 
BRANCH   6  11
HETATM   11  C   UNL     1       7.552  25.752  55.371  1.00  0.00     0.732 A 
HETATM   12  N   UNL     1       7.541  25.326  54.140  1.00  0.00    -0.067 NA
HETATM   13  C   UNL     1       7.799  23.992  54.006  1.00  0.00     0.065 A 
HETATM   14  C   UNL     1       8.063  23.138  54.996  1.00  0.00     0.036 A 
HETATM   15  C   UNL     1       7.858  23.314  52.679  1.00  0.00     0.061 C 
HETATM   16  C   UNL     1       8.338  21.759  54.538  1.00  0.00     0.047 C 
HETATM   17  C   UNL     1       8.097  23.632  56.370  1.00  0.00     0.268 A 
HETATM   18  C   UNL     1       7.926  21.827  53.061  1.00  0.00     0.011 C 
HETATM   19  O   UNL     1       8.363  22.913  57.323  1.00  0.00    -0.267 OA
HETATM   20  N   UNL     1       7.825  24.966  56.471  1.00  0.00    -0.152 N 
HETATM   21  H   UNL     1       7.862  25.408  57.384  1.00  0.00     0.188 HD
ENDBRANCH   6  11
ENDBRANCH   1   5
BRANCH   2  22
HETATM   22  C   UNL     1       5.271  28.368  51.837  1.00  0.00     0.034 A 
HETATM   23  C   UNL     1       5.498  29.631  51.275  1.00  0.00     0.033 A 
HETATM   24  C   UNL     1       5.264  29.863  49.911  1.00  0.00     0.049 A 
HETATM   25  C   UNL     1       4.803  28.803  49.113  1.00  0.00     0.032 A 
HETATM   26  C   UNL     1       4.578  27.527  49.657  1.00  0.00     0.049 A 
HETATM   27  C   UNL     1       4.826  27.317  51.026  1.00  0.00     0.033 A 
BRANCH  24  28
HETATM   28  C   UNL     1       5.516  31.219  49.294  1.00  0.00     0.417 C 
HETATM   29  F   UNL     1       4.806  32.227  49.871  1.00  0.00    -0.166 F 
HETATM   30  F   UNL     1       6.825  31.585  49.375  1.00  0.00    -0.166 F 
HETATM   31  F   UNL     1       5.201  31.248  47.971  1.00  0.00    -0.166 F 
ENDBRANCH  24  28
BRANCH  26  32
HETATM   32  C   UNL     1       4.120  26.377  48.789  1.00  0.00     0.417 C 
HETATM   33  F   UNL     1       4.966  26.105  47.760  1.00  0.00    -0.166 F 
HETATM   34  F   UNL     1       3.991  25.222  49.493  1.00  0.00    -0.166 F 
HETATM   35  F   UNL     1       2.903  26.611  48.225  1.00  0.00    -0.166 F 
ENDBRANCH  26  32
ENDBRANCH   2  22
TORSDOF 5
ENDMDL
MODEL 5
REMARK VINA RESULT:     -10.0      1.358      1.639
REMARK  5 active torsions:
REMARK  status: ('A' for Active; 'I' for Inactive)
REMARK    1  A    between atoms: N_4  and  C_5 
REMARK    2  A    between atoms: C_15  and  N_16 
REMARK       I    between atoms: N_16  and  C_17 
REMARK    3  A    between atoms: C_17  and  C_18 
REMARK    4  A    between atoms: C_20  and  C_21 
REMARK    5  A    between atoms: C_26  and  C_27 
ROOT
HETATM    1  N   UNL     1       6.076  26.515  52.509  1.00  0.00    -0.307 N 
HETATM    2  C   UNL     1       5.628  25.338  53.088  1.00  0.00     0.257 C 
HETATM    3  O   UNL     1       4.538  24.814  52.886  1.00  0.00    -0.267 OA
HETATM    4  H   UNL     1       7.063  26.734  52.514  1.00  0.00     0.170 HD
ENDROOT
BRANCH   1   5
HETATM    5  C   UNL     1       5.273  27.220  51.624  1.00  0.00     0.152 C 
HETATM    6  N   UNL     1       4.243  28.103  51.942  1.00  0.00    -0.045 N 
HETATM    7  N   UNL     1       3.464  28.361  50.835  1.00  0.00    -0.156 NA
HETATM    8  C   UNL     1       4.185  27.889  49.812  1.00  0.00     0.055 C 
HETATM    9  C   UNL     1       3.712  28.070  48.417  1.00  0.00     0.072 C 
HETATM   10  C   UNL     1       5.342  27.209  50.249  1.00  0.00     0.079 C 
BRANCH   6  11
HETATM   11  C   UNL     1       4.028  28.882  53.101  1.00  0.00     0.732 A 
HETATM   12  N   UNL     1       4.400  28.539  54.301  1.00  0.00    -0.067 NA
HETATM   13  C   UNL     1       4.129  29.472  55.260  1.00  0.00     0.065 A 
HETATM   14  C   UNL     1       3.553  30.658  55.063  1.00  0.00     0.036 A 
HETATM   15  C   UNL     1       4.498  29.283  56.693  1.00  0.00     0.061 C 
HETATM   16  C   UNL     1       3.423  31.471  56.292  1.00  0.00     0.047 C 
HETATM   17  C   UNL     1       3.163  31.043  53.709  1.00  0.00     0.268 A 
HETATM   18  C   UNL     1       3.783  30.454  57.384  1.00  0.00     0.011 C 
HETATM   19  O   UNL     1       2.659  32.127  53.451  1.00  0.00    -0.267 OA
HETATM   20  N   UNL     1       3.437  30.085  52.775  1.00  0.00    -0.152 N 
HETATM   21  H   UNL     1       3.235  30.277  51.800  1.00  0.00     0.188 HD
ENDBRANCH   6  11
ENDBRANCH   1   5
BRANCH   2  22
HETATM   22  C   UNL     1       6.594  24.634  53.977  1.00  0.00     0.034 A 
HETATM   23  C   UNL     1       6.976  25.271  55.165  1.00  0.00     0.033 A 
HETATM   24  C   UNL     1       7.854  24.646  56.064  1.00  0.00     0.049 A 
HETATM   25  C   UNL     1       8.340  23.364  55.756  1.00  0.00     0.032 A 
HETATM   26  C   UNL     1       7.961  22.707  54.574  1.00  0.00     0.049 A 
HETATM   27  C   UNL     1       7.074  23.350  53.691  1.00  0.00     0.033 A 
BRANCH  24  28
HETATM   28  C   UNL     1       8.264  25.321  57.353  1.00  0.00     0.417 C 
HETATM   29  F   UNL     1       8.959  26.476  57.171  1.00  0.00    -0.166 F 
HETATM   30  F   UNL     1       7.192  25.642  58.128  1.00  0.00    -0.166 F 
HETATM   31  F   UNL     1       9.056  24.523  58.120  1.00  0.00    -0.166 F 
ENDBRANCH  24  28
BRANCH  26  32
HETATM   32  C   UNL     1       8.453  21.311  54.264  1.00  0.00     0.417 C 
HETATM   33  F   UNL     1       8.946  21.178  53.004  1.00  0.00    -0.166 F 
HETATM   34  F   UNL     1       9.444  20.917  55.107  1.00  0.00    -0.166 F 
HETATM   35  F   UNL     1       7.466  20.380  54.383  1.00  0.00    -0.166 F 
ENDBRANCH  26  32
ENDBRANCH   2  22
TORSDOF 5
ENDMDL
MODEL 6
REMARK VINA RESULT:      -9.6      3.827      7.288
REMARK  5 active torsions:
REMARK  status: ('A' for Active; 'I' for Inactive)
REMARK    1  A    between atoms: N_4  and  C_5 
REMARK    2  A    between atoms: C_15  and  N_16 
REMARK       I    between atoms: N_16  and  C_17 
REMARK    3  A    between atoms: C_17  and  C_18 
REMARK    4  A    between atoms: C_20  and  C_21 
REMARK    5  A    between atoms: C_26  and  C_27 
ROOT
HETATM    1  N   UNL     1       6.575  28.513  53.857  1.00  0.00    -0.307 N 
HETATM    2  C   UNL     1       5.826  28.641  55.016  1.00  0.00     0.257 C 
HETATM    3  O   UNL     1       4.757  28.082  55.240  1.00  0.00    -0.267 OA
HETATM    4  H   UNL     1       7.550  28.780  53.856  1.00  0.00     0.170 HD
ENDROOT
BRANCH   1   5
HETATM    5  C   UNL     1       6.135  27.711  52.814  1.00  0.00     0.152 C 
HETATM    6  N   UNL     1       6.494  26.389  52.558  1.00  0.00    -0.045 N 
HETATM    7  N   UNL     1       6.126  26.023  51.281  1.00  0.00    -0.156 NA
HETATM    8  C   UNL     1       5.297  26.997  50.889  1.00  0.00     0.055 C 
HETATM    9  C   UNL     1       4.608  26.910  49.578  1.00  0.00     0.072 C 
HETATM   10  C   UNL     1       5.236  28.049  51.828  1.00  0.00     0.079 C 
BRANCH   6  11
HETATM   11  C   UNL     1       6.953  25.379  53.432  1.00  0.00     0.732 A 
HETATM   12  N   UNL     1       7.106  25.526  54.716  1.00  0.00    -0.067 NA
HETATM   13  C   UNL     1       7.517  24.397  55.366  1.00  0.00     0.065 A 
HETATM   14  C   UNL     1       7.746  23.208  54.808  1.00  0.00     0.036 A 
HETATM   15  C   UNL     1       7.725  24.350  56.842  1.00  0.00     0.061 C 
HETATM   16  C   UNL     1       8.147  22.162  55.774  1.00  0.00     0.047 C 
HETATM   17  C   UNL     1       7.547  23.048  53.370  1.00  0.00     0.268 A 
HETATM   18  C   UNL     1       8.400  22.985  57.044  1.00  0.00     0.011 C 
HETATM   19  O   UNL     1       7.709  21.979  52.796  1.00  0.00    -0.267 OA
HETATM   20  N   UNL     1       7.148  24.196  52.748  1.00  0.00    -0.152 N 
HETATM   21  H   UNL     1       6.949  24.174  51.754  1.00  0.00     0.188 HD
ENDBRANCH   6  11
ENDBRANCH   1   5
BRANCH   2  22
HETATM   22  C   UNL     1       6.421  29.480  56.094  1.00  0.00     0.034 A 
HETATM   23  C   UNL     1       5.559  30.287  56.848  1.00  0.00     0.033 A 
HETATM   24  C   UNL     1       6.049  31.074  57.901  1.00  0.00     0.049 A 
HETATM   25  C   UNL     1       7.423  31.034  58.194  1.00  0.00     0.032 A 
HETATM   26  C   UNL     1       8.301  30.223  57.454  1.00  0.00     0.049 A 
HETATM   27  C   UNL     1       7.785  29.438  56.408  1.00  0.00     0.033 A 
BRANCH  24  28
HETATM   28  C   UNL     1       5.125  31.940  58.726  1.00  0.00     0.417 C 
HETATM   29  F   UNL     1       3.830  31.522  58.722  1.00  0.00    -0.166 F 
HETATM   30  F   UNL     1       5.502  31.994  60.032  1.00  0.00    -0.166 F 
HETATM   31  F   UNL     1       5.104  33.229  58.289  1.00  0.00    -0.166 F 
ENDBRANCH  24  28
BRANCH  26  32
HETATM   32  C   UNL     1       9.772  30.151  57.797  1.00  0.00     0.417 C 
HETATM   33  F   UNL     1      10.504  31.164  57.262  1.00  0.00    -0.166 F 
HETATM   34  F   UNL     1       9.989  30.188  59.138  1.00  0.00    -0.166 F 
HETATM   35  F   UNL     1      10.346  28.997  57.355  1.00  0.00    -0.166 F 
ENDBRANCH  26  32
ENDBRANCH   2  22
TORSDOF 5
ENDMDL
MODEL 7
REMARK VINA RESULT:      -9.6      5.317      8.394
REMARK  5 active torsions:
REMARK  status: ('A' for Active; 'I' for Inactive)
REMARK    1  A    between atoms: N_4  and  C_5 
REMARK    2  A    between atoms: C_15  and  N_16 
REMARK       I    between atoms: N_16  and  C_17 
REMARK    3  A    between atoms: C_17  and  C_18 
REMARK    4  A    between atoms: C_20  and  C_21 
REMARK    5  A    between atoms: C_26  and  C_27 
ROOT
HETATM    1  N   UNL     1       7.290  27.387  57.934  1.00  0.00    -0.307 N 
HETATM    2  C   UNL     1       8.085  28.473  57.600  1.00  0.00     0.257 C 
HETATM    3  O   UNL     1       8.913  28.501  56.695  1.00  0.00    -0.267 OA
HETATM    4  H   UNL     1       6.463  27.525  58.498  1.00  0.00     0.170 HD
ENDROOT
BRANCH   1   5
HETATM    5  C   UNL     1       7.393  26.194  57.235  1.00  0.00     0.152 C 
HETATM    6  N   UNL     1       6.596  25.767  56.174  1.00  0.00    -0.045 N 
HETATM    7  N   UNL     1       6.771  24.419  55.946  1.00  0.00    -0.156 NA
HETATM    8  C   UNL     1       7.867  24.109  56.647  1.00  0.00     0.055 C 
HETATM    9  C   UNL     1       8.437  22.741  56.578  1.00  0.00     0.072 C 
HETATM   10  C   UNL     1       8.317  25.193  57.432  1.00  0.00     0.079 C 
BRANCH   6  11
HETATM   11  C   UNL     1       5.853  26.509  55.230  1.00  0.00     0.732 A 
HETATM   12  N   UNL     1       5.419  27.722  55.421  1.00  0.00    -0.067 NA
HETATM   13  C   UNL     1       4.764  28.258  54.349  1.00  0.00     0.065 A 
HETATM   14  C   UNL     1       4.559  27.663  53.173  1.00  0.00     0.036 A 
HETATM   15  C   UNL     1       4.214  29.644  54.354  1.00  0.00     0.061 C 
HETATM   16  C   UNL     1       3.848  28.509  52.191  1.00  0.00     0.047 C 
HETATM   17  C   UNL     1       5.072  26.311  52.963  1.00  0.00     0.268 A 
HETATM   18  C   UNL     1       3.384  29.684  53.062  1.00  0.00     0.011 C 
HETATM   19  O   UNL     1       4.948  25.717  51.901  1.00  0.00    -0.267 OA
HETATM   20  N   UNL     1       5.712  25.800  54.055  1.00  0.00    -0.152 N 
HETATM   21  H   UNL     1       6.134  24.880  53.992  1.00  0.00     0.188 HD
ENDBRANCH   6  11
ENDBRANCH   1   5
BRANCH   2  22
HETATM   22  C   UNL     1       7.851  29.722  58.377  1.00  0.00     0.034 A 
HETATM   23  C   UNL     1       6.759  30.523  58.018  1.00  0.00     0.033 A 
HETATM   24  C   UNL     1       6.461  31.694  58.731  1.00  0.00     0.049 A 
HETATM   25  C   UNL     1       7.274  32.048  59.821  1.00  0.00     0.032 A 
HETATM   26  C   UNL     1       8.368  31.253  60.202  1.00  0.00     0.049 A 
HETATM   27  C   UNL     1       8.643  30.080  59.476  1.00  0.00     0.033 A 
BRANCH  24  28
HETATM   28  C   UNL     1       5.279  32.558  58.357  1.00  0.00     0.417 C 
HETATM   29  F   UNL     1       4.099  31.883  58.306  1.00  0.00    -0.166 F 
HETATM   30  F   UNL     1       5.092  33.581  59.236  1.00  0.00    -0.166 F 
HETATM   31  F   UNL     1       5.434  33.138  57.135  1.00  0.00    -0.166 F 
ENDBRANCH  24  28
BRANCH  26  32
HETATM   32  C   UNL     1       9.217  31.614  61.400  1.00  0.00     0.417 C 
HETATM   33  F   UNL     1      10.340  32.309  61.078  1.00  0.00    -0.166 F 
HETATM   34  F   UNL     1       8.540  32.377  62.298  1.00  0.00    -0.166 F 
HETATM   35  F   UNL     1       9.637  30.513  62.083  1.00  0.00    -0.166 F 
ENDBRANCH  26  32
ENDBRANCH   2  22
TORSDOF 5
ENDMDL
MODEL 8
REMARK VINA RESULT:      -9.3      3.327      5.978
REMARK  5 active torsions:
REMARK  status: ('A' for Active; 'I' for Inactive)
REMARK    1  A    between atoms: N_4  and  C_5 
REMARK    2  A    between atoms: C_15  and  N_16 
REMARK       I    between atoms: N_16  and  C_17 
REMARK    3  A    between atoms: C_17  and  C_18 
REMARK    4  A    between atoms: C_20  and  C_21 
REMARK    5  A    between atoms: C_26  and  C_27 
ROOT
HETATM    1  N   UNL     1       7.113  28.478  57.470  1.00  0.00    -0.307 N 
HETATM    2  C   UNL     1       7.668  28.210  56.228  1.00  0.00     0.257 C 
HETATM    3  O   UNL     1       8.438  28.945  55.617  1.00  0.00    -0.267 OA
HETATM    4  H   UNL     1       6.715  27.726  58.015  1.00  0.00     0.170 HD
ENDROOT
BRANCH   1   5
HETATM    5  C   UNL     1       7.399  29.663  58.132  1.00  0.00     0.152 C 
HETATM    6  N   UNL     1       6.925  30.936  57.823  1.00  0.00    -0.045 N 
HETATM    7  N   UNL     1       7.660  31.901  58.479  1.00  0.00    -0.156 NA
HETATM    8  C   UNL     1       8.356  31.216  59.392  1.00  0.00     0.055 C 
HETATM    9  C   UNL     1       9.210  31.931  60.372  1.00  0.00     0.072 C 
HETATM   10  C   UNL     1       8.192  29.821  59.246  1.00  0.00     0.079 C 
BRANCH   6  11
HETATM   11  C   UNL     1       5.749  31.339  57.153  1.00  0.00     0.732 A 
HETATM   12  N   UNL     1       5.429  30.981  55.943  1.00  0.00    -0.067 NA
HETATM   13  C   UNL     1       4.220  31.455  55.519  1.00  0.00     0.065 A 
HETATM   14  C   UNL     1       3.378  32.207  56.227  1.00  0.00     0.036 A 
HETATM   15  C   UNL     1       3.659  31.137  54.174  1.00  0.00     0.061 C 
HETATM   16  C   UNL     1       2.125  32.536  55.512  1.00  0.00     0.047 C 
HETATM   17  C   UNL     1       3.736  32.582  57.593  1.00  0.00     0.268 A 
HETATM   18  C   UNL     1       2.444  32.072  54.085  1.00  0.00     0.011 C 
HETATM   19  O   UNL     1       2.998  33.244  58.310  1.00  0.00    -0.267 OA
HETATM   20  N   UNL     1       4.954  32.103  57.983  1.00  0.00    -0.152 N 
HETATM   21  H   UNL     1       5.272  32.281  58.929  1.00  0.00     0.188 HD
ENDBRANCH   6  11
ENDBRANCH   1   5
BRANCH   2  22
HETATM   22  C   UNL     1       7.339  26.885  55.633  1.00  0.00     0.034 A 
HETATM   23  C   UNL     1       6.526  26.861  54.492  1.00  0.00     0.033 A 
HETATM   24  C   UNL     1       6.208  25.649  53.862  1.00  0.00     0.049 A 
HETATM   25  C   UNL     1       6.727  24.454  54.390  1.00  0.00     0.032 A 
HETATM   26  C   UNL     1       7.551  24.459  55.528  1.00  0.00     0.049 A 
HETATM   27  C   UNL     1       7.861  25.687  56.139  1.00  0.00     0.033 A 
BRANCH  24  28
HETATM   28  C   UNL     1       5.340  25.614  52.625  1.00  0.00     0.417 C 
HETATM   29  F   UNL     1       4.548  26.711  52.479  1.00  0.00    -0.166 F 
HETATM   30  F   UNL     1       6.076  25.524  51.484  1.00  0.00    -0.166 F 
HETATM   31  F   UNL     1       4.502  24.542  52.617  1.00  0.00    -0.166 F 
ENDBRANCH  24  28
BRANCH  26  32
HETATM   32  C   UNL     1       8.141  23.178  56.071  1.00  0.00     0.417 C 
HETATM   33  F   UNL     1       8.328  23.194  57.418  1.00  0.00    -0.166 F 
HETATM   34  F   UNL     1       7.356  22.099  55.808  1.00  0.00    -0.166 F 
HETATM   35  F   UNL     1       9.357  22.899  55.524  1.00  0.00    -0.166 F 
ENDBRANCH  26  32
ENDBRANCH   2  22
TORSDOF 5
ENDMDL
MODEL 9
REMARK VINA RESULT:      -9.3      3.247      4.935
REMARK  5 active torsions:
REMARK  status: ('A' for Active; 'I' for Inactive)
REMARK    1  A    between atoms: N_4  and  C_5 
REMARK    2  A    between atoms: C_15  and  N_16 
REMARK       I    between atoms: N_16  and  C_17 
REMARK    3  A    between atoms: C_17  and  C_18 
REMARK    4  A    between atoms: C_20  and  C_21 
REMARK    5  A    between atoms: C_26  and  C_27 
ROOT
HETATM    1  N   UNL     1       5.718  29.114  55.319  1.00  0.00    -0.307 N 
HETATM    2  C   UNL     1       5.382  27.863  55.813  1.00  0.00     0.257 C 
HETATM    3  O   UNL     1       4.375  27.599  56.463  1.00  0.00    -0.267 OA
HETATM    4  H   UNL     1       6.404  29.196  54.582  1.00  0.00     0.170 HD
ENDROOT
BRANCH   1   5
HETATM    5  C   UNL     1       4.900  30.210  55.551  1.00  0.00     0.152 C 
HETATM    6  N   UNL     1       4.792  30.947  56.729  1.00  0.00    -0.045 N 
HETATM    7  N   UNL     1       3.668  31.743  56.705  1.00  0.00    -0.156 NA
HETATM    8  C   UNL     1       3.277  31.716  55.426  1.00  0.00     0.055 C 
HETATM    9  C   UNL     1       2.131  32.543  54.976  1.00  0.00     0.072 C 
HETATM   10  C   UNL     1       4.041  30.810  54.658  1.00  0.00     0.079 C 
BRANCH   6  11
HETATM   11  C   UNL     1       5.720  31.140  57.777  1.00  0.00     0.732 A 
HETATM   12  N   UNL     1       6.907  30.607  57.821  1.00  0.00    -0.067 NA
HETATM   13  C   UNL     1       7.647  30.974  58.908  1.00  0.00     0.065 A 
HETATM   14  C   UNL     1       7.266  31.811  59.873  1.00  0.00     0.036 A 
HETATM   15  C   UNL     1       9.042  30.494  59.130  1.00  0.00     0.061 C 
HETATM   16  C   UNL     1       8.300  32.045  60.904  1.00  0.00     0.047 C 
HETATM   17  C   UNL     1       5.942  32.423  59.800  1.00  0.00     0.268 A 
HETATM   18  C   UNL     1       9.339  30.970  60.560  1.00  0.00     0.011 C 
HETATM   19  O   UNL     1       5.538  33.224  60.633  1.00  0.00    -0.267 OA
HETATM   20  N   UNL     1       5.223  32.028  58.709  1.00  0.00    -0.152 N 
HETATM   21  H   UNL     1       4.304  32.429  58.554  1.00  0.00     0.188 HD
ENDBRANCH   6  11
ENDBRANCH   1   5
BRANCH   2  22
HETATM   22  C   UNL     1       6.301  26.747  55.455  1.00  0.00     0.034 A 
HETATM   23  C   UNL     1       7.039  26.149  56.486  1.00  0.00     0.033 A 
HETATM   24  C   UNL     1       7.896  25.070  56.223  1.00  0.00     0.049 A 
HETATM   25  C   UNL     1       7.997  24.590  54.906  1.00  0.00     0.032 A 
HETATM   26  C   UNL     1       7.259  25.171  53.862  1.00  0.00     0.049 A 
HETATM   27  C   UNL     1       6.401  26.248  54.150  1.00  0.00     0.033 A 
BRANCH  24  28
HETATM   28  C   UNL     1       8.687  24.413  57.330  1.00  0.00     0.417 C 
HETATM   29  F   UNL     1       8.470  24.955  58.559  1.00  0.00    -0.166 F 
HETATM   30  F   UNL     1       8.405  23.087  57.446  1.00  0.00    -0.166 F 
HETATM   31  F   UNL     1      10.030  24.492  57.118  1.00  0.00    -0.166 F 
ENDBRANCH  24  28
BRANCH  26  32
HETATM   32  C   UNL     1       7.338  24.628  52.453  1.00  0.00     0.417 C 
HETATM   33  F   UNL     1       7.473  23.277  52.399  1.00  0.00    -0.166 F 
HETATM   34  F   UNL     1       6.233  24.932  51.722  1.00  0.00    -0.166 F 
HETATM   35  F   UNL     1       8.396  25.141  51.764  1.00  0.00    -0.166 F 
ENDBRANCH  26  32
ENDBRANCH   2  22
TORSDOF 5
ENDMDL
MODEL 10
REMARK VINA RESULT:      -9.2      5.220      8.201
REMARK  5 active torsions:
REMARK  status: ('A' for Active; 'I' for Inactive)
REMARK    1  A    between atoms: N_4  and  C_5 
REMARK    2  A    between atoms: C_15  and  N_16 
REMARK       I    between atoms: N_16  and  C_17 
REMARK    3  A    between atoms: C_17  and  C_18 
REMARK    4  A    between atoms: C_20  and  C_21 
REMARK    5  A    between atoms: C_26  and  C_27 
ROOT
HETATM    1  N   UNL     1       7.338  27.462  57.878  1.00  0.00    -0.307 N 
HETATM    2  C   UNL     1       8.000  28.639  57.564  1.00  0.00     0.257 C 
HETATM    3  O   UNL     1       8.750  28.801  56.606  1.00  0.00    -0.267 OA
HETATM    4  H   UNL     1       6.547  27.484  58.507  1.00  0.00     0.170 HD
ENDROOT
BRANCH   1   5
HETATM    5  C   UNL     1       7.498  26.329  57.095  1.00  0.00     0.152 C 
HETATM    6  N   UNL     1       6.717  25.937  56.009  1.00  0.00    -0.045 N 
HETATM    7  N   UNL     1       6.960  24.620  55.684  1.00  0.00    -0.156 NA
HETATM    8  C   UNL     1       8.075  24.319  56.358  1.00  0.00     0.055 C 
HETATM    9  C   UNL     1       8.715  22.991  56.188  1.00  0.00     0.072 C 
HETATM   10  C   UNL     1       8.474  25.366  57.217  1.00  0.00     0.079 C 
BRANCH   6  11
HETATM   11  C   UNL     1       5.929  26.706  55.124  1.00  0.00     0.732 A 
HETATM   12  N   UNL     1       5.881  26.528  53.835  1.00  0.00    -0.067 NA
HETATM   13  C   UNL     1       5.012  27.359  53.186  1.00  0.00     0.065 A 
HETATM   14  C   UNL     1       4.236  28.283  53.753  1.00  0.00     0.036 A 
HETATM   15  C   UNL     1       4.790  27.299  51.713  1.00  0.00     0.061 C 
HETATM   16  C   UNL     1       3.370  29.006  52.795  1.00  0.00     0.047 C 
HETATM   17  C   UNL     1       4.280  28.456  55.203  1.00  0.00     0.268 A 
HETATM   18  C   UNL     1       3.943  28.552  51.446  1.00  0.00     0.011 C 
HETATM   19  O   UNL     1       3.573  29.262  55.793  1.00  0.00    -0.267 OA
HETATM   20  N   UNL     1       5.164  27.619  55.820  1.00  0.00    -0.152 N 
HETATM   21  H   UNL     1       5.238  27.641  56.832  1.00  0.00     0.188 HD
ENDBRANCH   6  11
ENDBRANCH   1   5
BRANCH   2  22
HETATM   22  C   UNL     1       7.711  29.810  58.437  1.00  0.00     0.034 A 
HETATM   23  C   UNL     1       8.586  30.066  59.502  1.00  0.00     0.033 A 
HETATM   24  C   UNL     1       8.391  31.174  60.340  1.00  0.00     0.049 A 
HETATM   25  C   UNL     1       7.305  32.030  60.091  1.00  0.00     0.032 A 
HETATM   26  C   UNL     1       6.422  31.794  59.024  1.00  0.00     0.049 A 
HETATM   27  C   UNL     1       6.641  30.681  58.192  1.00  0.00     0.033 A 
BRANCH  24  28
HETATM   28  C   UNL     1       9.335  31.464  61.484  1.00  0.00     0.417 C 
HETATM   29  F   UNL     1       9.925  30.354  62.006  1.00  0.00    -0.166 F 
HETATM   30  F   UNL     1      10.348  32.294  61.116  1.00  0.00    -0.166 F 
HETATM   31  F   UNL     1       8.707  32.078  62.524  1.00  0.00    -0.166 F 
ENDBRANCH  24  28
BRANCH  26  32
HETATM   32  C   UNL     1       5.278  32.738  58.732  1.00  0.00     0.417 C 
HETATM   33  F   UNL     1       5.163  33.746  59.637  1.00  0.00    -0.166 F 
HETATM   34  F   UNL     1       5.397  33.329  57.514  1.00  0.00    -0.166 F 
HETATM   35  F   UNL     1       4.074  32.100  58.724  1.00  0.00    -0.166 F 
ENDBRANCH  26  32
ENDBRANCH   2  22
TORSDOF 5
ENDMDL
