MODEL 1
REMARK VINA RESULT:      -9.5      0.000      0.000
REMARK  6 active torsions:
REMARK  status: ('A' for Active; 'I' for Inactive)
REMARK    1  A    between atoms: C_2  and  O_3 
REMARK    2  A    between atoms: C_2  and  C_4 
REMARK    3  A    between atoms: C_7  and  N_8 
REMARK       I    between atoms: N_8  and  C_9 
REMARK    4  A    between atoms: C_9  and  C_10 
REMARK    5  A    between atoms: C_13  and  C_14 
REMARK    6  A    between atoms: C_19  and  C_20 
ROOT
HETATM    1  C   UNL     1       5.235  27.338  52.446  1.00  0.00     0.096 A 
HETATM    2  C   UNL     1       5.026  27.735  51.138  1.00  0.00     0.138 A 
HETATM    3  N   UNL     1       3.876  28.490  51.150  1.00  0.00    -0.240 N 
HETATM    4  C   UNL     1       3.256  29.060  49.966  1.00  0.00     0.221 C 
HETATM    5  C   UNL     1       4.242  29.043  48.781  1.00  0.00     0.068 C 
HETATM    6  C   UNL     1       5.001  27.714  48.696  1.00  0.00     0.143 C 
HETATM    7  N   UNL     1       5.695  27.481  49.976  1.00  0.00    -0.363 N 
HETATM    8  N   UNL     1       3.247  28.477  52.335  1.00  0.00    -0.181 NA
HETATM    9  C   UNL     1       4.087  27.804  53.127  1.00  0.00     0.160 A 
HETATM   10  H   UNL     1       6.262  26.631  49.933  1.00  0.00     0.162 HD
ENDROOT
BRANCH   1  11
HETATM   11  C   UNL     1       6.332  26.562  53.004  1.00  0.00     0.261 C 
HETATM   12  N   UNL     1       6.077  25.204  53.013  1.00  0.00    -0.323 N 
HETATM   13  H   UNL     1       5.248  24.916  52.503  1.00  0.00     0.169 HD
HETATM   14  O   UNL     1       7.355  27.111  53.391  1.00  0.00    -0.267 OA
BRANCH  12  15
HETATM   15  C   UNL     1       6.832  24.182  53.613  1.00  0.00     0.035 A 
HETATM   16  C   UNL     1       6.830  23.912  54.982  1.00  0.00     0.030 A 
HETATM   17  C   UNL     1       7.569  22.839  55.493  1.00  0.00     0.012 A 
HETATM   18  C   UNL     1       8.328  22.018  54.647  1.00  0.00    -0.030 A 
HETATM   19  C   UNL     1       8.331  22.297  53.276  1.00  0.00     0.012 A 
HETATM   20  C   UNL     1       7.592  23.369  52.765  1.00  0.00     0.030 A 
BRANCH  18  21
HETATM   21  C   UNL     1       9.077  20.832  55.215  1.00  0.00     0.147 C 
HETATM   22  C   UNL     1       8.671  20.564  56.659  1.00  0.00     0.044 C 
BRANCH  21  23
HETATM   23  O   UNL     1       8.812  19.668  54.434  1.00  0.00    -0.391 OA
HETATM   24  H   UNL     1       7.881  19.714  54.160  1.00  0.00     0.210 HD
ENDBRANCH  21  23
ENDBRANCH  18  21
ENDBRANCH  12  15
ENDBRANCH   1  11
BRANCH   4  25
HETATM   25  C   UNL     1       2.786  30.478  50.209  1.00  0.00     0.409 C 
HETATM   26  F   UNL     1       2.747  31.208  49.071  1.00  0.00    -0.169 F 
HETATM   27  F   UNL     1       1.515  30.459  50.697  1.00  0.00    -0.169 F 
HETATM   28  F   UNL     1       3.526  31.147  51.116  1.00  0.00    -0.169 F 
ENDBRANCH   4  25
BRANCH   6  29
HETATM   29  C   UNL     1       4.114  26.593  48.247  1.00  0.00     0.075 A 
HETATM   30  O   UNL     1       3.522  26.747  47.026  1.00  0.00    -0.325 OA
HETATM   31  C   UNL     1       2.770  25.639  46.804  1.00  0.00     0.142 A 
HETATM   32  C   UNL     1       2.867  24.771  47.865  1.00  0.00     0.027 A 
HETATM   33  C   UNL     1       3.736  25.385  48.799  1.00  0.00     0.037 A 
ENDBRANCH   6  29
TORSDOF 6
ENDMDL
MODEL 2
REMARK VINA RESULT:      -9.5      1.728      2.023
REMARK  6 active torsions:
REMARK  status: ('A' for Active; 'I' for Inactive)
REMARK    1  A    between atoms: C_2  and  O_3 
REMARK    2  A    between atoms: C_2  and  C_4 
REMARK    3  A    between atoms: C_7  and  N_8 
REMARK       I    between atoms: N_8  and  C_9 
REMARK    4  A    between atoms: C_9  and  C_10 
REMARK    5  A    between atoms: C_13  and  C_14 
REMARK    6  A    between atoms: C_19  and  C_20 
ROOT
HETATM    1  C   UNL     1       5.130  27.076  51.462  1.00  0.00     0.096 A 
HETATM    2  C   UNL     1       5.042  27.525  50.158  1.00  0.00     0.138 A 
HETATM    3  N   UNL     1       4.867  28.887  50.236  1.00  0.00    -0.240 N 
HETATM    4  C   UNL     1       4.668  29.757  49.089  1.00  0.00     0.221 C 
HETATM    5  C   UNL     1       5.063  29.031  47.788  1.00  0.00     0.068 C 
HETATM    6  C   UNL     1       4.547  27.588  47.767  1.00  0.00     0.143 C 
HETATM    7  N   UNL     1       5.062  26.881  48.954  1.00  0.00    -0.363 N 
HETATM    8  N   UNL     1       4.678  29.325  51.490  1.00  0.00    -0.181 NA
HETATM    9  C   UNL     1       4.868  28.232  52.234  1.00  0.00     0.160 A 
HETATM   10  H   UNL     1       4.787  25.897  48.940  1.00  0.00     0.162 HD
ENDROOT
BRANCH   1  11
HETATM   11  C   UNL     1       5.363  25.727  51.953  1.00  0.00     0.261 C 
HETATM   12  N   UNL     1       6.381  25.663  52.885  1.00  0.00    -0.323 N 
HETATM   13  H   UNL     1       6.722  26.560  53.215  1.00  0.00     0.169 HD
HETATM   14  O   UNL     1       4.682  24.790  51.557  1.00  0.00    -0.267 OA
BRANCH  12  15
HETATM   15  C   UNL     1       6.977  24.521  53.446  1.00  0.00     0.035 A 
HETATM   16  C   UNL     1       6.798  24.119  54.769  1.00  0.00     0.030 A 
HETATM   17  C   UNL     1       7.385  22.936  55.236  1.00  0.00     0.012 A 
HETATM   18  C   UNL     1       8.165  22.136  54.389  1.00  0.00    -0.030 A 
HETATM   19  C   UNL     1       8.345  22.548  53.064  1.00  0.00     0.012 A 
HETATM   20  C   UNL     1       7.759  23.729  52.599  1.00  0.00     0.030 A 
BRANCH  18  21
HETATM   21  C   UNL     1       8.745  20.836  54.900  1.00  0.00     0.147 C 
HETATM   22  C   UNL     1       7.963  20.316  56.100  1.00  0.00     0.044 C 
BRANCH  21  23
HETATM   23  O   UNL     1       8.721  19.851  53.868  1.00  0.00    -0.391 OA
HETATM   24  H   UNL     1       8.527  18.999  54.293  1.00  0.00     0.210 HD
ENDBRANCH  21  23
ENDBRANCH  18  21
ENDBRANCH  12  15
ENDBRANCH   1  11
BRANCH   4  25
HETATM   25  C   UNL     1       5.466  31.037  49.213  1.00  0.00     0.409 C 
HETATM   26  F   UNL     1       6.737  30.812  49.617  1.00  0.00    -0.169 F 
HETATM   27  F   UNL     1       5.550  31.642  47.996  1.00  0.00    -0.169 F 
HETATM   28  F   UNL     1       4.912  31.943  50.043  1.00  0.00    -0.169 F 
ENDBRANCH   4  25
BRANCH   6  29
HETATM   29  C   UNL     1       3.059  27.530  47.595  1.00  0.00     0.075 A 
HETATM   30  O   UNL     1       2.504  28.518  46.834  1.00  0.00    -0.325 OA
HETATM   31  C   UNL     1       1.166  28.291  46.799  1.00  0.00     0.142 A 
HETATM   32  C   UNL     1       0.849  27.170  47.528  1.00  0.00     0.027 A 
HETATM   33  C   UNL     1       2.072  26.676  48.043  1.00  0.00     0.037 A 
ENDBRANCH   6  29
TORSDOF 6
ENDMDL
MODEL 3
REMARK VINA RESULT:      -9.4      5.071      7.351
REMARK  6 active torsions:
REMARK  status: ('A' for Active; 'I' for Inactive)
REMARK    1  A    between atoms: C_2  and  O_3 
REMARK    2  A    between atoms: C_2  and  C_4 
REMARK    3  A    between atoms: C_7  and  N_8 
REMARK       I    between atoms: N_8  and  C_9 
REMARK    4  A    between atoms: C_9  and  C_10 
REMARK    5  A    between atoms: C_13  and  C_14 
REMARK    6  A    between atoms: C_19  and  C_20 
ROOT
HETATM    1  C   UNL     1       5.887  27.818  56.209  1.00  0.00     0.096 A 
HETATM    2  C   UNL     1       6.397  28.707  57.137  1.00  0.00     0.138 A 
HETATM    3  N   UNL     1       6.043  29.961  56.695  1.00  0.00    -0.240 N 
HETATM    4  C   UNL     1       6.431  31.200  57.347  1.00  0.00     0.221 C 
HETATM    5  C   UNL     1       6.938  30.922  58.775  1.00  0.00     0.068 C 
HETATM    6  C   UNL     1       7.864  29.701  58.818  1.00  0.00     0.143 C 
HETATM    7  N   UNL     1       7.142  28.538  58.268  1.00  0.00    -0.363 N 
HETATM    8  N   UNL     1       5.484  29.954  55.476  1.00  0.00    -0.181 NA
HETATM    9  C   UNL     1       5.363  28.653  55.196  1.00  0.00     0.160 A 
HETATM   10  H   UNL     1       7.710  27.691  58.338  1.00  0.00     0.162 HD
ENDROOT
BRANCH   1  11
HETATM   11  C   UNL     1       5.931  26.364  56.213  1.00  0.00     0.261 C 
HETATM   12  N   UNL     1       7.090  25.861  55.652  1.00  0.00    -0.323 N 
HETATM   13  H   UNL     1       7.810  26.549  55.456  1.00  0.00     0.169 HD
HETATM   14  O   UNL     1       5.015  25.710  56.694  1.00  0.00    -0.267 OA
BRANCH  12  15
HETATM   15  C   UNL     1       7.400  24.524  55.348  1.00  0.00     0.035 A 
HETATM   16  C   UNL     1       7.781  23.577  56.298  1.00  0.00     0.030 A 
HETATM   17  C   UNL     1       8.021  22.251  55.919  1.00  0.00     0.012 A 
HETATM   18  C   UNL     1       7.889  21.848  54.583  1.00  0.00    -0.030 A 
HETATM   19  C   UNL     1       7.513  22.805  53.633  1.00  0.00     0.012 A 
HETATM   20  C   UNL     1       7.273  24.129  54.012  1.00  0.00     0.030 A 
BRANCH  18  21
HETATM   21  C   UNL     1       8.102  20.398  54.205  1.00  0.00     0.147 C 
HETATM   22  C   UNL     1       8.538  20.266  52.750  1.00  0.00     0.044 C 
BRANCH  21  23
HETATM   23  O   UNL     1       9.098  19.815  55.043  1.00  0.00    -0.391 OA
HETATM   24  H   UNL     1       8.745  19.818  55.948  1.00  0.00     0.210 HD
ENDBRANCH  21  23
ENDBRANCH  18  21
ENDBRANCH  12  15
ENDBRANCH   1  11
BRANCH   4  25
HETATM   25  C   UNL     1       5.282  32.184  57.404  1.00  0.00     0.409 C 
HETATM   26  F   UNL     1       4.100  31.578  57.661  1.00  0.00    -0.169 F 
HETATM   27  F   UNL     1       5.489  33.069  58.418  1.00  0.00    -0.169 F 
HETATM   28  F   UNL     1       5.144  32.923  56.286  1.00  0.00    -0.169 F 
ENDBRANCH   4  25
BRANCH   6  29
HETATM   29  C   UNL     1       9.188  29.982  58.176  1.00  0.00     0.075 A 
HETATM   30  O   UNL     1       9.689  28.996  57.375  1.00  0.00    -0.325 OA
HETATM   31  C   UNL     1      10.878  29.438  56.893  1.00  0.00     0.142 A 
HETATM   32  C   UNL     1      11.153  30.696  57.372  1.00  0.00     0.027 A 
HETATM   33  C   UNL     1      10.062  31.051  58.202  1.00  0.00     0.037 A 
ENDBRANCH   6  29
TORSDOF 6
ENDMDL
MODEL 4
REMARK VINA RESULT:      -9.2      8.238     10.413
REMARK  6 active torsions:
REMARK  status: ('A' for Active; 'I' for Inactive)
REMARK    1  A    between atoms: C_2  and  O_3 
REMARK    2  A    between atoms: C_2  and  C_4 
REMARK    3  A    between atoms: C_7  and  N_8 
REMARK       I    between atoms: N_8  and  C_9 
REMARK    4  A    between atoms: C_9  and  C_10 
REMARK    5  A    between atoms: C_13  and  C_14 
REMARK    6  A    between atoms: C_19  and  C_20 
ROOT
HETATM    1  C   UNL     1       7.559  29.809  58.266  1.00  0.00     0.096 A 
HETATM    2  C   UNL     1       6.604  28.960  57.739  1.00  0.00     0.138 A 
HETATM    3  N   UNL     1       7.298  27.932  57.143  1.00  0.00    -0.240 N 
HETATM    4  C   UNL     1       6.679  26.841  56.409  1.00  0.00     0.221 C 
HETATM    5  C   UNL     1       5.171  26.773  56.717  1.00  0.00     0.068 C 
HETATM    6  C   UNL     1       4.531  28.165  56.721  1.00  0.00     0.143 C 
HETATM    7  N   UNL     1       5.241  29.011  57.699  1.00  0.00    -0.363 N 
HETATM    8  N   UNL     1       8.623  28.138  57.109  1.00  0.00    -0.181 NA
HETATM    9  C   UNL     1       8.783  29.261  57.817  1.00  0.00     0.160 A 
HETATM   10  H   UNL     1       4.800  29.931  57.772  1.00  0.00     0.162 HD
ENDROOT
BRANCH   1  11
HETATM   11  C   UNL     1       7.375  31.026  59.041  1.00  0.00     0.261 C 
HETATM   12  N   UNL     1       7.439  30.809  60.404  1.00  0.00    -0.323 N 
HETATM   13  H   UNL     1       7.752  29.884  60.681  1.00  0.00     0.169 HD
HETATM   14  O   UNL     1       7.202  32.103  58.485  1.00  0.00    -0.267 OA
BRANCH  12  15
HETATM   15  C   UNL     1       7.153  31.711  61.443  1.00  0.00     0.035 A 
HETATM   16  C   UNL     1       5.951  32.409  61.561  1.00  0.00     0.030 A 
HETATM   17  C   UNL     1       5.725  33.250  62.657  1.00  0.00     0.012 A 
HETATM   18  C   UNL     1       6.697  33.411  63.655  1.00  0.00    -0.030 A 
HETATM   19  C   UNL     1       7.903  32.713  63.528  1.00  0.00     0.012 A 
HETATM   20  C   UNL     1       8.129  31.874  62.432  1.00  0.00     0.030 A 
BRANCH  18  21
HETATM   21  C   UNL     1       6.409  34.283  64.857  1.00  0.00     0.147 C 
HETATM   22  C   UNL     1       5.166  33.807  65.599  1.00  0.00     0.044 C 
BRANCH  21  23
HETATM   23  O   UNL     1       7.520  34.262  65.753  1.00  0.00    -0.391 OA
HETATM   24  H   UNL     1       8.169  33.640  65.386  1.00  0.00     0.210 HD
ENDBRANCH  21  23
ENDBRANCH  18  21
ENDBRANCH  12  15
ENDBRANCH   1  11
BRANCH   4  25
HETATM   25  C   UNL     1       7.321  25.511  56.740  1.00  0.00     0.409 C 
HETATM   26  F   UNL     1       6.436  24.489  56.697  1.00  0.00    -0.169 F 
HETATM   27  F   UNL     1       8.283  25.227  55.819  1.00  0.00    -0.169 F 
HETATM   28  F   UNL     1       7.935  25.488  57.940  1.00  0.00    -0.169 F 
ENDBRANCH   4  25
BRANCH   6  29
HETATM   29  C   UNL     1       4.438  28.740  55.341  1.00  0.00     0.075 A 
HETATM   30  O   UNL     1       4.178  27.852  54.336  1.00  0.00    -0.325 OA
HETATM   31  C   UNL     1       4.131  28.560  53.179  1.00  0.00     0.142 A 
HETATM   32  C   UNL     1       4.358  29.893  53.422  1.00  0.00     0.027 A 
HETATM   33  C   UNL     1       4.555  30.013  54.818  1.00  0.00     0.037 A 
ENDBRANCH   6  29
TORSDOF 6
ENDMDL
MODEL 5
REMARK VINA RESULT:      -8.6      3.332      5.901
REMARK  6 active torsions:
REMARK  status: ('A' for Active; 'I' for Inactive)
REMARK    1  A    between atoms: C_2  and  O_3 
REMARK    2  A    between atoms: C_2  and  C_4 
REMARK    3  A    between atoms: C_7  and  N_8 
REMARK       I    between atoms: N_8  and  C_9 
REMARK    4  A    between atoms: C_9  and  C_10 
REMARK    5  A    between atoms: C_13  and  C_14 
REMARK    6  A    between atoms: C_19  and  C_20 
ROOT
HETATM    1  C   UNL     1       4.837  27.610  53.599  1.00  0.00     0.096 A 
HETATM    2  C   UNL     1       4.519  28.346  54.726  1.00  0.00     0.138 A 
HETATM    3  N   UNL     1       4.348  29.642  54.296  1.00  0.00    -0.240 N 
HETATM    4  C   UNL     1       4.061  30.766  55.171  1.00  0.00     0.221 C 
HETATM    5  C   UNL     1       3.593  30.267  56.551  1.00  0.00     0.068 C 
HETATM    6  C   UNL     1       4.447  29.096  57.049  1.00  0.00     0.143 C 
HETATM    7  N   UNL     1       4.404  28.017  56.045  1.00  0.00    -0.363 N 
HETATM    8  N   UNL     1       4.686  29.822  53.010  1.00  0.00    -0.181 NA
HETATM    9  C   UNL     1       4.953  28.584  52.581  1.00  0.00     0.160 A 
HETATM   10  H   UNL     1       4.915  27.194  56.373  1.00  0.00     0.162 HD
ENDROOT
BRANCH   1  11
HETATM   11  C   UNL     1       5.074  26.180  53.477  1.00  0.00     0.261 C 
HETATM   12  N   UNL     1       6.253  25.779  54.075  1.00  0.00    -0.323 N 
HETATM   13  H   UNL     1       6.713  26.484  54.642  1.00  0.00     0.169 HD
HETATM   14  O   UNL     1       4.267  25.458  52.907  1.00  0.00    -0.267 OA
BRANCH  12  15
HETATM   15  C   UNL     1       6.873  24.518  54.018  1.00  0.00     0.035 A 
HETATM   16  C   UNL     1       7.430  23.975  52.861  1.00  0.00     0.030 A 
HETATM   17  C   UNL     1       8.078  22.735  52.901  1.00  0.00     0.012 A 
HETATM   18  C   UNL     1       8.177  22.012  54.098  1.00  0.00    -0.030 A 
HETATM   19  C   UNL     1       7.610  22.559  55.255  1.00  0.00     0.012 A 
HETATM   20  C   UNL     1       6.963  23.798  55.214  1.00  0.00     0.030 A 
BRANCH  18  21
HETATM   21  C   UNL     1       8.927  20.699  54.129  1.00  0.00     0.147 C 
HETATM   22  C   UNL     1       8.671  19.948  55.431  1.00  0.00     0.044 C 
BRANCH  21  23
HETATM   23  O   UNL     1       8.524  19.879  53.034  1.00  0.00    -0.391 OA
HETATM   24  H   UNL     1       7.561  19.772  53.098  1.00  0.00     0.210 HD
ENDBRANCH  21  23
ENDBRANCH  18  21
ENDBRANCH  12  15
ENDBRANCH   1  11
BRANCH   4  25
HETATM   25  C   UNL     1       3.006  31.677  54.581  1.00  0.00     0.409 C 
HETATM   26  F   UNL     1       1.980  31.894  55.435  1.00  0.00    -0.169 F 
HETATM   27  F   UNL     1       3.552  32.896  54.317  1.00  0.00    -0.169 F 
HETATM   28  F   UNL     1       2.498  31.235  53.413  1.00  0.00    -0.169 F 
ENDBRANCH   4  25
BRANCH   6  29
HETATM   29  C   UNL     1       5.824  29.537  57.441  1.00  0.00     0.075 A 
HETATM   30  O   UNL     1       5.905  30.715  58.127  1.00  0.00    -0.325 OA
HETATM   31  C   UNL     1       7.219  30.937  58.388  1.00  0.00     0.142 A 
HETATM   32  C   UNL     1       7.988  29.918  57.879  1.00  0.00     0.027 A 
HETATM   33  C   UNL     1       7.089  29.012  57.266  1.00  0.00     0.037 A 
ENDBRANCH   6  29
TORSDOF 6
ENDMDL
MODEL 6
REMARK VINA RESULT:      -8.4      3.096      8.475
REMARK  6 active torsions:
REMARK  status: ('A' for Active; 'I' for Inactive)
REMARK    1  A    between atoms: C_2  and  O_3 
REMARK    2  A    between atoms: C_2  and  C_4 
REMARK    3  A    between atoms: C_7  and  N_8 
REMARK       I    between atoms: N_8  and  C_9 
REMARK    4  A    between atoms: C_9  and  C_10 
REMARK    5  A    between atoms: C_13  and  C_14 
REMARK    6  A    between atoms: C_19  and  C_20 
ROOT
HETATM    1  C   UNL     1       5.101  27.437  51.301  1.00  0.00     0.096 A 
HETATM    2  C   UNL     1       5.145  26.709  52.477  1.00  0.00     0.138 A 
HETATM    3  N   UNL     1       5.843  27.483  53.376  1.00  0.00    -0.240 N 
HETATM    4  C   UNL     1       6.176  27.070  54.728  1.00  0.00     0.221 C 
HETATM    5  C   UNL     1       5.328  25.852  55.144  1.00  0.00     0.068 C 
HETATM    6  C   UNL     1       5.235  24.817  54.017  1.00  0.00     0.143 C 
HETATM    7  N   UNL     1       4.685  25.470  52.816  1.00  0.00    -0.363 N 
HETATM    8  N   UNL     1       6.385  28.578  52.822  1.00  0.00    -0.181 NA
HETATM    9  C   UNL     1       5.910  28.565  51.573  1.00  0.00     0.160 A 
HETATM   10  H   UNL     1       4.552  24.793  52.061  1.00  0.00     0.162 HD
ENDROOT
BRANCH   1  11
HETATM   11  C   UNL     1       4.446  27.108  50.045  1.00  0.00     0.261 C 
HETATM   12  N   UNL     1       3.437  27.994  49.718  1.00  0.00    -0.323 N 
HETATM   13  H   UNL     1       3.385  28.824  50.299  1.00  0.00     0.169 HD
HETATM   14  O   UNL     1       4.809  26.145  49.383  1.00  0.00    -0.267 OA
BRANCH  12  15
HETATM   15  C   UNL     1       2.501  27.899  48.674  1.00  0.00     0.035 A 
HETATM   16  C   UNL     1       2.218  26.720  47.985  1.00  0.00     0.030 A 
HETATM   17  C   UNL     1       1.231  26.699  46.993  1.00  0.00     0.012 A 
HETATM   18  C   UNL     1       0.511  27.857  46.667  1.00  0.00    -0.030 A 
HETATM   19  C   UNL     1       0.805  29.039  47.358  1.00  0.00     0.012 A 
HETATM   20  C   UNL     1       1.791  29.059  48.349  1.00  0.00     0.030 A 
BRANCH  18  21
HETATM   21  C   UNL     1      -0.587  27.799  45.629  1.00  0.00     0.147 C 
HETATM   22  C   UNL     1      -0.901  29.186  45.080  1.00  0.00     0.044 C 
BRANCH  21  23
HETATM   23  O   UNL     1      -0.197  26.950  44.551  1.00  0.00    -0.391 OA
HETATM   24  H   UNL     1       0.210  27.517  43.875  1.00  0.00     0.210 HD
ENDBRANCH  21  23
ENDBRANCH  18  21
ENDBRANCH  12  15
ENDBRANCH   1  11
BRANCH   4  25
HETATM   25  C   UNL     1       5.967  28.192  55.722  1.00  0.00     0.409 C 
HETATM   26  F   UNL     1       6.927  29.140  55.635  1.00  0.00    -0.169 F 
HETATM   27  F   UNL     1       4.785  28.816  55.463  1.00  0.00    -0.169 F 
HETATM   28  F   UNL     1       5.897  27.777  57.002  1.00  0.00    -0.169 F 
ENDBRANCH   4  25
BRANCH   6  29
HETATM   29  C   UNL     1       6.537  24.104  53.807  1.00  0.00     0.075 A 
HETATM   30  O   UNL     1       7.138  23.609  54.928  1.00  0.00    -0.325 OA
HETATM   31  C   UNL     1       8.288  23.006  54.531  1.00  0.00     0.142 A 
HETATM   32  C   UNL     1       8.438  23.105  53.169  1.00  0.00     0.027 A 
HETATM   33  C   UNL     1       7.306  23.814  52.698  1.00  0.00     0.037 A 
ENDBRANCH   6  29
TORSDOF 6
ENDMDL
MODEL 7
REMARK VINA RESULT:      -8.4      2.280      3.629
REMARK  6 active torsions:
REMARK  status: ('A' for Active; 'I' for Inactive)
REMARK    1  A    between atoms: C_2  and  O_3 
REMARK    2  A    between atoms: C_2  and  C_4 
REMARK    3  A    between atoms: C_7  and  N_8 
REMARK       I    between atoms: N_8  and  C_9 
REMARK    4  A    between atoms: C_9  and  C_10 
REMARK    5  A    between atoms: C_13  and  C_14 
REMARK    6  A    between atoms: C_19  and  C_20 
ROOT
HETATM    1  C   UNL     1       4.956  27.031  50.699  1.00  0.00     0.096 A 
HETATM    2  C   UNL     1       4.206  28.180  50.534  1.00  0.00     0.138 A 
HETATM    3  N   UNL     1       3.596  28.062  49.306  1.00  0.00    -0.240 N 
HETATM    4  C   UNL     1       2.755  29.083  48.705  1.00  0.00     0.221 C 
HETATM    5  C   UNL     1       2.326  30.118  49.763  1.00  0.00     0.068 C 
HETATM    6  C   UNL     1       3.493  30.512  50.675  1.00  0.00     0.143 C 
HETATM    7  N   UNL     1       4.036  29.294  51.304  1.00  0.00    -0.363 N 
HETATM    8  N   UNL     1       4.022  27.000  48.605  1.00  0.00    -0.181 NA
HETATM    9  C   UNL     1       4.822  26.360  49.462  1.00  0.00     0.160 A 
HETATM   10  H   UNL     1       4.779  29.527  51.967  1.00  0.00     0.162 HD
ENDROOT
BRANCH   1  11
HETATM   11  C   UNL     1       5.762  26.619  51.839  1.00  0.00     0.261 C 
HETATM   12  N   UNL     1       6.027  25.263  51.846  1.00  0.00    -0.323 N 
HETATM   13  H   UNL     1       5.766  24.767  51.000  1.00  0.00     0.169 HD
HETATM   14  O   UNL     1       6.149  27.439  52.661  1.00  0.00    -0.267 OA
BRANCH  12  15
HETATM   15  C   UNL     1       6.631  24.500  52.860  1.00  0.00     0.035 A 
HETATM   16  C   UNL     1       6.238  24.531  54.197  1.00  0.00     0.030 A 
HETATM   17  C   UNL     1       6.858  23.698  55.137  1.00  0.00     0.012 A 
HETATM   18  C   UNL     1       7.885  22.823  54.757  1.00  0.00    -0.030 A 
HETATM   19  C   UNL     1       8.280  22.801  53.415  1.00  0.00     0.012 A 
HETATM   20  C   UNL     1       7.660  23.633  52.477  1.00  0.00     0.030 A 
BRANCH  18  21
HETATM   21  C   UNL     1       8.504  21.894  55.779  1.00  0.00     0.147 C 
HETATM   22  C   UNL     1       7.642  20.655  55.992  1.00  0.00     0.044 C 
BRANCH  21  23
HETATM   23  O   UNL     1       9.802  21.488  55.348  1.00  0.00    -0.391 OA
HETATM   24  H   UNL     1      10.324  21.310  56.147  1.00  0.00     0.210 HD
ENDBRANCH  21  23
ENDBRANCH  18  21
ENDBRANCH  12  15
ENDBRANCH   1  11
BRANCH   4  25
HETATM   25  C   UNL     1       1.524  28.484  48.059  1.00  0.00     0.409 C 
HETATM   26  F   UNL     1       0.967  27.513  48.818  1.00  0.00    -0.169 F 
HETATM   27  F   UNL     1       0.574  29.447  47.908  1.00  0.00    -0.169 F 
HETATM   28  F   UNL     1       1.747  27.983  46.828  1.00  0.00    -0.169 F 
ENDBRANCH   4  25
BRANCH   6  29
HETATM   29  C   UNL     1       4.503  31.354  49.955  1.00  0.00     0.075 A 
HETATM   30  O   UNL     1       4.006  32.396  49.225  1.00  0.00    -0.325 OA
HETATM   31  C   UNL     1       5.065  33.028  48.659  1.00  0.00     0.142 A 
HETATM   32  C   UNL     1       6.240  32.408  49.012  1.00  0.00     0.027 A 
HETATM   33  C   UNL     1       5.879  31.326  49.850  1.00  0.00     0.037 A 
ENDBRANCH   6  29
TORSDOF 6
ENDMDL
MODEL 8
REMARK VINA RESULT:      -8.4      3.304      8.488
REMARK  6 active torsions:
REMARK  status: ('A' for Active; 'I' for Inactive)
REMARK    1  A    between atoms: C_2  and  O_3 
REMARK    2  A    between atoms: C_2  and  C_4 
REMARK    3  A    between atoms: C_7  and  N_8 
REMARK       I    between atoms: N_8  and  C_9 
REMARK    4  A    between atoms: C_9  and  C_10 
REMARK    5  A    between atoms: C_13  and  C_14 
REMARK    6  A    between atoms: C_19  and  C_20 
ROOT
HETATM    1  C   UNL     1       5.912  26.647  52.718  1.00  0.00     0.096 A 
HETATM    2  C   UNL     1       6.133  26.012  53.927  1.00  0.00     0.138 A 
HETATM    3  N   UNL     1       7.039  26.794  54.606  1.00  0.00    -0.240 N 
HETATM    4  C   UNL     1       7.597  26.462  55.906  1.00  0.00     0.221 C 
HETATM    5  C   UNL     1       6.766  25.353  56.581  1.00  0.00     0.068 C 
HETATM    6  C   UNL     1       6.393  24.244  55.591  1.00  0.00     0.143 C 
HETATM    7  N   UNL     1       5.666  24.845  54.458  1.00  0.00    -0.363 N 
HETATM    8  N   UNL     1       7.535  27.795  53.863  1.00  0.00    -0.181 NA
HETATM    9  C   UNL     1       6.829  27.723  52.731  1.00  0.00     0.160 A 
HETATM   10  H   UNL     1       5.347  24.123  53.806  1.00  0.00     0.162 HD
ENDROOT
BRANCH   1  11
HETATM   11  C   UNL     1       5.009  26.276  51.640  1.00  0.00     0.261 C 
HETATM   12  N   UNL     1       4.689  27.339  50.819  1.00  0.00    -0.323 N 
HETATM   13  H   UNL     1       5.230  28.184  50.973  1.00  0.00     0.169 HD
HETATM   14  O   UNL     1       4.622  25.121  51.516  1.00  0.00    -0.267 OA
BRANCH  12  15
HETATM   15  C   UNL     1       3.735  27.386  49.788  1.00  0.00     0.035 A 
HETATM   16  C   UNL     1       3.769  26.572  48.656  1.00  0.00     0.030 A 
HETATM   17  C   UNL     1       2.749  26.644  47.699  1.00  0.00     0.012 A 
HETATM   18  C   UNL     1       1.677  27.534  47.855  1.00  0.00    -0.030 A 
HETATM   19  C   UNL     1       1.651  28.353  48.990  1.00  0.00     0.012 A 
HETATM   20  C   UNL     1       2.670  28.280  49.944  1.00  0.00     0.030 A 
BRANCH  18  21
HETATM   21  C   UNL     1       0.559  27.557  46.836  1.00  0.00     0.147 C 
HETATM   22  C   UNL     1       0.426  28.933  46.195  1.00  0.00     0.044 C 
BRANCH  21  23
HETATM   23  O   UNL     1       0.807  26.591  45.816  1.00  0.00    -0.391 OA
HETATM   24  H   UNL     1       1.672  26.802  45.428  1.00  0.00     0.210 HD
ENDBRANCH  21  23
ENDBRANCH  18  21
ENDBRANCH  12  15
ENDBRANCH   1  11
BRANCH   4  25
HETATM   25  C   UNL     1       7.655  27.671  56.814  1.00  0.00     0.409 C 
HETATM   26  F   UNL     1       8.764  28.417  56.604  1.00  0.00    -0.169 F 
HETATM   27  F   UNL     1       6.592  28.483  56.561  1.00  0.00    -0.169 F 
HETATM   28  F   UNL     1       7.590  27.368  58.126  1.00  0.00    -0.169 F 
ENDBRANCH   4  25
BRANCH   6  29
HETATM   29  C   UNL     1       7.580  23.414  55.210  1.00  0.00     0.075 A 
HETATM   30  O   UNL     1       7.574  22.901  53.945  1.00  0.00    -0.325 OA
HETATM   31  C   UNL     1       8.721  22.191  53.795  1.00  0.00     0.142 A 
HETATM   32  C   UNL     1       9.468  22.236  54.948  1.00  0.00     0.027 A 
HETATM   33  C   UNL     1       8.734  23.027  55.864  1.00  0.00     0.037 A 
ENDBRANCH   6  29
TORSDOF 6
ENDMDL
MODEL 9
REMARK VINA RESULT:      -8.2     11.511     13.685
REMARK  6 active torsions:
REMARK  status: ('A' for Active; 'I' for Inactive)
REMARK    1  A    between atoms: C_2  and  O_3 
REMARK    2  A    between atoms: C_2  and  C_4 
REMARK    3  A    between atoms: C_7  and  N_8 
REMARK       I    between atoms: N_8  and  C_9 
REMARK    4  A    between atoms: C_9  and  C_10 
REMARK    5  A    between atoms: C_13  and  C_14 
REMARK    6  A    between atoms: C_19  and  C_20 
ROOT
HETATM    1  C   UNL     1       6.425  32.884  62.869  1.00  0.00     0.096 A 
HETATM    2  C   UNL     1       6.006  34.175  63.133  1.00  0.00     0.138 A 
HETATM    3  N   UNL     1       4.886  34.057  63.923  1.00  0.00    -0.240 N 
HETATM    4  C   UNL     1       4.086  35.177  64.386  1.00  0.00     0.221 C 
HETATM    5  C   UNL     1       4.859  36.499  64.212  1.00  0.00     0.068 C 
HETATM    6  C   UNL     1       5.572  36.562  62.857  1.00  0.00     0.143 C 
HETATM    7  N   UNL     1       6.467  35.397  62.736  1.00  0.00    -0.363 N 
HETATM    8  N   UNL     1       4.464  32.790  64.056  1.00  0.00    -0.181 NA
HETATM    9  C   UNL     1       5.414  32.078  63.443  1.00  0.00     0.160 A 
HETATM   10  H   UNL     1       7.006  35.439  61.868  1.00  0.00     0.162 HD
ENDROOT
BRANCH   1  11
HETATM   11  C   UNL     1       7.587  32.433  62.120  1.00  0.00     0.261 C 
HETATM   12  N   UNL     1       7.300  32.164  60.795  1.00  0.00    -0.323 N 
HETATM   13  H   UNL     1       6.378  32.455  60.485  1.00  0.00     0.169 HD
HETATM   14  O   UNL     1       8.682  32.339  62.658  1.00  0.00    -0.267 OA
BRANCH  12  15
HETATM   15  C   UNL     1       8.128  31.569  59.829  1.00  0.00     0.035 A 
HETATM   16  C   UNL     1       9.386  32.054  59.473  1.00  0.00     0.030 A 
HETATM   17  C   UNL     1      10.172  31.370  58.538  1.00  0.00     0.012 A 
HETATM   18  C   UNL     1       9.713  30.189  57.938  1.00  0.00    -0.030 A 
HETATM   19  C   UNL     1       8.447  29.710  58.294  1.00  0.00     0.012 A 
HETATM   20  C   UNL     1       7.663  30.394  59.228  1.00  0.00     0.030 A 
BRANCH  18  21
HETATM   21  C   UNL     1      10.600  29.438  56.970  1.00  0.00     0.147 C 
HETATM   22  C   UNL     1      10.087  29.562  55.540  1.00  0.00     0.044 C 
BRANCH  21  23
HETATM   23  O   UNL     1      11.932  29.947  57.031  1.00  0.00    -0.391 OA
HETATM   24  H   UNL     1      11.929  30.672  57.678  1.00  0.00     0.210 HD
ENDBRANCH  21  23
ENDBRANCH  18  21
ENDBRANCH  12  15
ENDBRANCH   1  11
BRANCH   4  25
HETATM   25  C   UNL     1       3.685  35.017  65.837  1.00  0.00     0.409 C 
HETATM   26  F   UNL     1       4.527  34.203  66.514  1.00  0.00    -0.169 F 
HETATM   27  F   UNL     1       3.734  36.226  66.460  1.00  0.00    -0.169 F 
HETATM   28  F   UNL     1       2.428  34.560  66.005  1.00  0.00    -0.169 F 
ENDBRANCH   4  25
BRANCH   6  29
HETATM   29  C   UNL     1       4.605  36.734  61.725  1.00  0.00     0.075 A 
HETATM   30  O   UNL     1       3.916  37.912  61.697  1.00  0.00    -0.325 OA
HETATM   31  C   UNL     1       3.104  37.875  60.610  1.00  0.00     0.142 A 
HETATM   32  C   UNL     1       3.258  36.688  59.935  1.00  0.00     0.027 A 
HETATM   33  C   UNL     1       4.229  35.948  60.653  1.00  0.00     0.037 A 
ENDBRANCH   6  29
TORSDOF 6
ENDMDL
MODEL 10
REMARK VINA RESULT:      -8.0      4.241      6.037
REMARK  6 active torsions:
REMARK  status: ('A' for Active; 'I' for Inactive)
REMARK    1  A    between atoms: C_2  and  O_3 
REMARK    2  A    between atoms: C_2  and  C_4 
REMARK    3  A    between atoms: C_7  and  N_8 
REMARK       I    between atoms: N_8  and  C_9 
REMARK    4  A    between atoms: C_9  and  C_10 
REMARK    5  A    between atoms: C_13  and  C_14 
REMARK    6  A    between atoms: C_19  and  C_20 
ROOT
HETATM    1  C   UNL     1       5.588  27.174  52.796  1.00  0.00     0.096 A 
HETATM    2  C   UNL     1       4.745  27.766  51.873  1.00  0.00     0.138 A 
HETATM    3  N   UNL     1       4.916  27.068  50.700  1.00  0.00    -0.240 N 
HETATM    4  C   UNL     1       4.260  27.396  49.446  1.00  0.00     0.221 C 
HETATM    5  C   UNL     1       3.079  28.356  49.692  1.00  0.00     0.068 C 
HETATM    6  C   UNL     1       3.446  29.461  50.688  1.00  0.00     0.143 C 
HETATM    7  N   UNL     1       3.901  28.837  51.943  1.00  0.00    -0.363 N 
HETATM    8  N   UNL     1       5.918  26.177  50.756  1.00  0.00    -0.181 NA
HETATM    9  C   UNL     1       6.304  26.221  52.035  1.00  0.00     0.160 A 
HETATM   10  H   UNL     1       4.097  29.547  52.653  1.00  0.00     0.162 HD
ENDROOT
BRANCH   1  11
HETATM   11  C   UNL     1       5.769  27.488  54.204  1.00  0.00     0.261 C 
HETATM   12  N   UNL     1       6.542  28.614  54.408  1.00  0.00    -0.323 N 
HETATM   13  H   UNL     1       6.750  29.154  53.573  1.00  0.00     0.169 HD
HETATM   14  O   UNL     1       5.250  26.797  55.072  1.00  0.00    -0.267 OA
BRANCH  12  15
HETATM   15  C   UNL     1       7.048  29.115  55.620  1.00  0.00     0.035 A 
HETATM   16  C   UNL     1       6.310  29.894  56.510  1.00  0.00     0.030 A 
HETATM   17  C   UNL     1       6.872  30.309  57.724  1.00  0.00     0.012 A 
HETATM   18  C   UNL     1       8.185  29.956  58.067  1.00  0.00    -0.030 A 
HETATM   19  C   UNL     1       8.923  29.179  57.167  1.00  0.00     0.012 A 
HETATM   20  C   UNL     1       8.360  28.766  55.955  1.00  0.00     0.030 A 
BRANCH  18  21
HETATM   21  C   UNL     1       8.754  30.370  59.406  1.00  0.00     0.147 C 
HETATM   22  C   UNL     1       9.533  31.674  59.295  1.00  0.00     0.044 C 
BRANCH  21  23
HETATM   23  O   UNL     1       7.701  30.538  60.354  1.00  0.00    -0.391 OA
HETATM   24  H   UNL     1       6.994  29.920  60.106  1.00  0.00     0.210 HD
ENDBRANCH  21  23
ENDBRANCH  18  21
ENDBRANCH  12  15
ENDBRANCH   1  11
BRANCH   4  25
HETATM   25  C   UNL     1       3.762  26.157  48.735  1.00  0.00     0.409 C 
HETATM   26  F   UNL     1       2.507  26.311  48.253  1.00  0.00    -0.169 F 
HETATM   27  F   UNL     1       4.557  25.897  47.661  1.00  0.00    -0.169 F 
HETATM   28  F   UNL     1       3.789  25.046  49.498  1.00  0.00    -0.169 F 
ENDBRANCH   4  25
BRANCH   6  29
HETATM   29  C   UNL     1       4.402  30.452  50.094  1.00  0.00     0.075 A 
HETATM   30  O   UNL     1       3.866  31.353  49.220  1.00  0.00    -0.325 OA
HETATM   31  C   UNL     1       4.879  32.153  48.800  1.00  0.00     0.142 A 
HETATM   32  C   UNL     1       6.063  31.780  49.390  1.00  0.00     0.027 A 
HETATM   33  C   UNL     1       5.757  30.681  50.228  1.00  0.00     0.037 A 
ENDBRANCH   6  29
TORSDOF 6
ENDMDL
