MODEL 1
REMARK VINA RESULT:      -9.0      0.000      0.000
REMARK  7 active torsions:
REMARK  status: ('A' for Active; 'I' for Inactive)
REMARK       I    between atoms: N_2  and  C_3 
REMARK    1  A    between atoms: N_2  and  C_17 
REMARK       I    between atoms: C_3  and  N_4 
REMARK    2  A    between atoms: N_4  and  C_5 
REMARK    3  A    between atoms: N_6  and  C_7 
REMARK    4  A    between atoms: C_17  and  C_18 
REMARK    5  A    between atoms: C_18  and  C_19 
REMARK    6  A    between atoms: C_19  and  O_20 
REMARK    7  A    between atoms: C_19  and  C_21 
ROOT
HETATM    1  C   UNL     1       6.467  26.813  53.820  1.00  0.00     0.154 C 
HETATM    2  N   UNL     1       6.013  26.655  55.194  1.00  0.00    -0.343 N 
HETATM    3  C   UNL     1       5.719  27.727  56.035  1.00  0.00     0.301 C 
HETATM    4  N   UNL     1       6.464  28.861  55.742  1.00  0.00    -0.194 NA
HETATM    5  O   UNL     1       4.948  27.627  56.985  1.00  0.00    -0.254 OA
HETATM    6  H   UNL     1       7.425  28.607  55.553  1.00  0.00     0.140 HD
ENDROOT
BRANCH   2   7
HETATM    7  C   UNL     1       5.758  25.295  55.663  1.00  0.00     0.129 C 
BRANCH   7   8
HETATM    8  C   UNL     1       6.810  24.773  56.639  1.00  0.00     0.056 C 
BRANCH   8   9
HETATM    9  C   UNL     1       8.071  24.283  55.908  1.00  0.00     0.152 C 
BRANCH   9  10
HETATM   10  O   UNL     1       9.105  24.086  56.874  1.00  0.00    -0.391 OA
HETATM   11  H   UNL     1       8.730  23.541  57.587  1.00  0.00     0.210 HD
ENDBRANCH   9  10
BRANCH   9  12
HETATM   12  C   UNL     1       7.970  22.995  55.113  1.00  0.00    -0.030 A 
HETATM   13  C   UNL     1       7.921  21.722  55.701  1.00  0.00     0.010 A 
HETATM   14  C   UNL     1       7.869  20.569  54.912  1.00  0.00     0.001 A 
HETATM   15  C   UNL     1       7.877  20.666  53.524  1.00  0.00     0.000 A 
HETATM   16  C   UNL     1       7.938  21.918  52.920  1.00  0.00     0.001 A 
HETATM   17  C   UNL     1       7.985  23.071  53.708  1.00  0.00     0.010 A 
ENDBRANCH   9  12
ENDBRANCH   8   9
ENDBRANCH   7   8
ENDBRANCH   2   7
BRANCH   4  18
HETATM   18  C   UNL     1       6.305  29.999  56.521  1.00  0.00     0.109 A 
HETATM   19  N   UNL     1       7.121  30.392  57.568  1.00  0.00    -0.254 N 
HETATM   20  N   UNL     1       6.720  31.570  58.105  1.00  0.00    -0.183 NA
HETATM   21  C   UNL     1       5.608  31.875  57.440  1.00  0.00     0.142 A 
HETATM   22  C   UNL     1       5.274  30.909  56.480  1.00  0.00     0.065 A 
BRANCH  19  23
HETATM   23  C   UNL     1       8.167  29.604  58.231  1.00  0.00     0.111 C 
HETATM   24  C   UNL     1       9.075  28.791  57.278  1.00  0.00     0.027 C 
HETATM   25  C   UNL     1      10.137  29.627  56.551  1.00  0.00     0.002 C 
HETATM   26  C   UNL     1      10.928  30.524  57.496  1.00  0.00     0.000 C 
HETATM   27  C   UNL     1      10.017  31.355  58.390  1.00  0.00     0.002 C 
HETATM   28  C   UNL     1       9.042  30.468  59.161  1.00  0.00     0.027 C 
ENDBRANCH  19  23
ENDBRANCH   4  18
TORSDOF 7
ENDMDL
MODEL 2
REMARK VINA RESULT:      -8.9      1.709      2.846
REMARK  7 active torsions:
REMARK  status: ('A' for Active; 'I' for Inactive)
REMARK       I    between atoms: N_2  and  C_3 
REMARK    1  A    between atoms: N_2  and  C_17 
REMARK       I    between atoms: C_3  and  N_4 
REMARK    2  A    between atoms: N_4  and  C_5 
REMARK    3  A    between atoms: N_6  and  C_7 
REMARK    4  A    between atoms: C_17  and  C_18 
REMARK    5  A    between atoms: C_18  and  C_19 
REMARK    6  A    between atoms: C_19  and  O_20 
REMARK    7  A    between atoms: C_19  and  C_21 
ROOT
HETATM    1  C   UNL     1       4.880  27.639  56.724  1.00  0.00     0.154 C 
HETATM    2  N   UNL     1       6.069  26.834  56.963  1.00  0.00    -0.343 N 
HETATM    3  C   UNL     1       7.303  27.373  57.324  1.00  0.00     0.301 C 
HETATM    4  N   UNL     1       7.497  28.654  56.827  1.00  0.00    -0.194 NA
HETATM    5  O   UNL     1       8.149  26.728  57.938  1.00  0.00    -0.254 OA
HETATM    6  H   UNL     1       7.175  28.708  55.870  1.00  0.00     0.140 HD
ENDROOT
BRANCH   2   7
HETATM    7  C   UNL     1       5.915  25.381  56.921  1.00  0.00     0.129 C 
BRANCH   7   8
HETATM    8  C   UNL     1       6.422  24.746  55.628  1.00  0.00     0.056 C 
BRANCH   8   9
HETATM    9  C   UNL     1       7.739  23.984  55.847  1.00  0.00     0.152 C 
BRANCH   9  10
HETATM   10  O   UNL     1       7.833  23.632  57.229  1.00  0.00    -0.391 OA
HETATM   11  H   UNL     1       6.987  23.223  57.477  1.00  0.00     0.210 HD
ENDBRANCH   9  10
BRANCH   9  12
HETATM   12  C   UNL     1       7.954  22.706  55.060  1.00  0.00    -0.030 A 
HETATM   13  C   UNL     1       7.823  22.622  53.666  1.00  0.00     0.010 A 
HETATM   14  C   UNL     1       7.995  21.405  53.000  1.00  0.00     0.001 A 
HETATM   15  C   UNL     1       8.289  20.248  53.716  1.00  0.00     0.000 A 
HETATM   16  C   UNL     1       8.410  20.306  55.100  1.00  0.00     0.001 A 
HETATM   17  C   UNL     1       8.243  21.523  55.766  1.00  0.00     0.010 A 
ENDBRANCH   9  12
ENDBRANCH   8   9
ENDBRANCH   7   8
ENDBRANCH   2   7
BRANCH   4  18
HETATM   18  C   UNL     1       8.698  29.304  57.075  1.00  0.00     0.109 A 
HETATM   19  N   UNL     1       9.113  29.817  58.293  1.00  0.00    -0.254 N 
HETATM   20  N   UNL     1      10.352  30.361  58.215  1.00  0.00    -0.183 NA
HETATM   21  C   UNL     1      10.679  30.255  56.930  1.00  0.00     0.142 A 
HETATM   22  C   UNL     1       9.669  29.653  56.165  1.00  0.00     0.065 A 
BRANCH  19  23
HETATM   23  C   UNL     1       8.309  29.998  59.507  1.00  0.00     0.111 C 
HETATM   24  C   UNL     1       9.107  30.427  60.761  1.00  0.00     0.027 C 
HETATM   25  C   UNL     1       9.505  31.908  60.779  1.00  0.00     0.002 C 
HETATM   26  C   UNL     1       8.334  32.836  60.481  1.00  0.00     0.000 C 
HETATM   27  C   UNL     1       7.592  32.430  59.214  1.00  0.00     0.002 C 
HETATM   28  C   UNL     1       7.136  30.974  59.286  1.00  0.00     0.027 C 
ENDBRANCH  19  23
ENDBRANCH   4  18
TORSDOF 7
ENDMDL
MODEL 3
REMARK VINA RESULT:      -8.7      2.581      8.500
REMARK  7 active torsions:
REMARK  status: ('A' for Active; 'I' for Inactive)
REMARK       I    between atoms: N_2  and  C_3 
REMARK    1  A    between atoms: N_2  and  C_17 
REMARK       I    between atoms: C_3  and  N_4 
REMARK    2  A    between atoms: N_4  and  C_5 
REMARK    3  A    between atoms: N_6  and  C_7 
REMARK    4  A    between atoms: C_17  and  C_18 
REMARK    5  A    between atoms: C_18  and  C_19 
REMARK    6  A    between atoms: C_19  and  O_20 
REMARK    7  A    between atoms: C_19  and  C_21 
ROOT
HETATM    1  C   UNL     1       9.112  29.293  56.073  1.00  0.00     0.154 C 
HETATM    2  N   UNL     1       7.994  28.739  56.822  1.00  0.00    -0.343 N 
HETATM    3  C   UNL     1       7.190  27.703  56.350  1.00  0.00     0.301 C 
HETATM    4  N   UNL     1       7.094  27.684  54.966  1.00  0.00    -0.194 NA
HETATM    5  O   UNL     1       6.569  26.956  57.102  1.00  0.00    -0.254 OA
HETATM    6  H   UNL     1       6.977  28.625  54.613  1.00  0.00     0.140 HD
ENDROOT
BRANCH   2   7
HETATM    7  C   UNL     1       7.785  29.236  58.181  1.00  0.00     0.129 C 
BRANCH   7   8
HETATM    8  C   UNL     1       7.834  30.758  58.294  1.00  0.00     0.056 C 
BRANCH   8   9
HETATM    9  C   UNL     1       8.833  31.217  59.367  1.00  0.00     0.152 C 
BRANCH   9  10
HETATM   10  O   UNL     1       9.712  32.181  58.784  1.00  0.00    -0.391 OA
HETATM   11  H   UNL     1      10.620  31.885  58.966  1.00  0.00     0.210 HD
ENDBRANCH   9  10
BRANCH   9  12
HETATM   12  C   UNL     1       8.274  31.848  60.628  1.00  0.00    -0.030 A 
HETATM   13  C   UNL     1       8.924  31.804  61.871  1.00  0.00     0.010 A 
HETATM   14  C   UNL     1       8.339  32.370  63.008  1.00  0.00     0.001 A 
HETATM   15  C   UNL     1       7.090  32.979  62.926  1.00  0.00     0.000 A 
HETATM   16  C   UNL     1       6.422  33.022  61.706  1.00  0.00     0.001 A 
HETATM   17  C   UNL     1       7.009  32.461  60.568  1.00  0.00     0.010 A 
ENDBRANCH   9  12
ENDBRANCH   8   9
ENDBRANCH   7   8
ENDBRANCH   2   7
BRANCH   4  18
HETATM   18  C   UNL     1       6.296  26.729  54.352  1.00  0.00     0.109 A 
HETATM   19  N   UNL     1       6.646  25.414  54.097  1.00  0.00    -0.254 N 
HETATM   20  N   UNL     1       5.632  24.725  53.518  1.00  0.00    -0.183 NA
HETATM   21  C   UNL     1       4.673  25.631  53.345  1.00  0.00     0.142 A 
HETATM   22  C   UNL     1       5.049  26.905  53.797  1.00  0.00     0.065 A 
BRANCH  19  23
HETATM   23  C   UNL     1       7.980  24.809  54.194  1.00  0.00     0.111 C 
HETATM   24  C   UNL     1       8.257  24.048  55.512  1.00  0.00     0.027 C 
HETATM   25  C   UNL     1       7.601  22.663  55.591  1.00  0.00     0.002 C 
HETATM   26  C   UNL     1       7.867  21.814  54.354  1.00  0.00     0.000 C 
HETATM   27  C   UNL     1       7.538  22.562  53.068  1.00  0.00     0.002 C 
HETATM   28  C   UNL     1       8.288  23.890  52.996  1.00  0.00     0.027 C 
ENDBRANCH  19  23
ENDBRANCH   4  18
TORSDOF 7
ENDMDL
MODEL 4
REMARK VINA RESULT:      -8.6      3.179      8.925
REMARK  7 active torsions:
REMARK  status: ('A' for Active; 'I' for Inactive)
REMARK       I    between atoms: N_2  and  C_3 
REMARK    1  A    between atoms: N_2  and  C_17 
REMARK       I    between atoms: C_3  and  N_4 
REMARK    2  A    between atoms: N_4  and  C_5 
REMARK    3  A    between atoms: N_6  and  C_7 
REMARK    4  A    between atoms: C_17  and  C_18 
REMARK    5  A    between atoms: C_18  and  C_19 
REMARK    6  A    between atoms: C_19  and  O_20 
REMARK    7  A    between atoms: C_19  and  C_21 
ROOT
HETATM    1  C   UNL     1       5.969  30.072  57.471  1.00  0.00     0.154 C 
HETATM    2  N   UNL     1       7.353  29.715  57.743  1.00  0.00    -0.343 N 
HETATM    3  C   UNL     1       7.939  28.525  57.315  1.00  0.00     0.301 C 
HETATM    4  N   UNL     1       7.028  27.484  57.209  1.00  0.00    -0.194 NA
HETATM    5  O   UNL     1       9.150  28.411  57.145  1.00  0.00    -0.254 OA
HETATM    6  H   UNL     1       6.400  27.490  58.003  1.00  0.00     0.140 HD
ENDROOT
BRANCH   2   7
HETATM    7  C   UNL     1       8.185  30.716  58.409  1.00  0.00     0.129 C 
BRANCH   7   8
HETATM    8  C   UNL     1       8.379  30.459  59.902  1.00  0.00     0.056 C 
BRANCH   8   9
HETATM    9  C   UNL     1       8.937  31.696  60.624  1.00  0.00     0.152 C 
BRANCH   9  10
HETATM   10  O   UNL     1       9.242  32.692  59.645  1.00  0.00    -0.391 OA
HETATM   11  H   UNL     1       8.935  33.543  59.999  1.00  0.00     0.210 HD
ENDBRANCH   9  10
BRANCH   9  12
HETATM   12  C   UNL     1       8.056  32.366  61.661  1.00  0.00    -0.030 A 
HETATM   13  C   UNL     1       6.904  33.101  61.342  1.00  0.00     0.010 A 
HETATM   14  C   UNL     1       6.154  33.730  62.341  1.00  0.00     0.001 A 
HETATM   15  C   UNL     1       6.548  33.644  63.673  1.00  0.00     0.000 A 
HETATM   16  C   UNL     1       7.693  32.931  64.010  1.00  0.00     0.001 A 
HETATM   17  C   UNL     1       8.440  32.298  63.013  1.00  0.00     0.010 A 
ENDBRANCH   9  12
ENDBRANCH   8   9
ENDBRANCH   7   8
ENDBRANCH   2   7
BRANCH   4  18
HETATM   18  C   UNL     1       7.474  26.226  56.828  1.00  0.00     0.109 A 
HETATM   19  N   UNL     1       7.657  25.784  55.529  1.00  0.00    -0.254 N 
HETATM   20  N   UNL     1       8.137  24.517  55.492  1.00  0.00    -0.183 NA
HETATM   21  C   UNL     1       8.184  24.142  56.768  1.00  0.00     0.142 A 
HETATM   22  C   UNL     1       7.734  25.145  57.639  1.00  0.00     0.065 A 
BRANCH  19  23
HETATM   23  C   UNL     1       7.212  26.435  54.292  1.00  0.00     0.111 C 
HETATM   24  C   UNL     1       7.812  25.848  52.992  1.00  0.00     0.027 C 
HETATM   25  C   UNL     1       7.180  24.523  52.547  1.00  0.00     0.002 C 
HETATM   26  C   UNL     1       5.657  24.578  52.520  1.00  0.00     0.000 C 
HETATM   27  C   UNL     1       5.082  25.109  53.827  1.00  0.00     0.002 C 
HETATM   28  C   UNL     1       5.675  26.471  54.176  1.00  0.00     0.027 C 
ENDBRANCH  19  23
ENDBRANCH   4  18
TORSDOF 7
ENDMDL
MODEL 5
REMARK VINA RESULT:      -8.4      3.894      6.371
REMARK  7 active torsions:
REMARK  status: ('A' for Active; 'I' for Inactive)
REMARK       I    between atoms: N_2  and  C_3 
REMARK    1  A    between atoms: N_2  and  C_17 
REMARK       I    between atoms: C_3  and  N_4 
REMARK    2  A    between atoms: N_4  and  C_5 
REMARK    3  A    between atoms: N_6  and  C_7 
REMARK    4  A    between atoms: C_17  and  C_18 
REMARK    5  A    between atoms: C_18  and  C_19 
REMARK    6  A    between atoms: C_19  and  O_20 
REMARK    7  A    between atoms: C_19  and  C_21 
ROOT
HETATM    1  C   UNL     1       7.974  27.934  54.037  1.00  0.00     0.154 C 
HETATM    2  N   UNL     1       6.685  27.278  54.203  1.00  0.00    -0.343 N 
HETATM    3  C   UNL     1       5.588  27.518  53.378  1.00  0.00     0.301 C 
HETATM    4  N   UNL     1       5.579  28.802  52.854  1.00  0.00    -0.194 NA
HETATM    5  O   UNL     1       4.689  26.695  53.222  1.00  0.00    -0.254 OA
HETATM    6  H   UNL     1       5.839  29.471  53.567  1.00  0.00     0.140 HD
ENDROOT
BRANCH   2   7
HETATM    7  C   UNL     1       6.589  26.240  55.228  1.00  0.00     0.129 C 
BRANCH   7   8
HETATM    8  C   UNL     1       7.528  25.058  54.998  1.00  0.00     0.056 C 
BRANCH   8   9
HETATM    9  C   UNL     1       6.822  23.905  54.268  1.00  0.00     0.152 C 
BRANCH   9  10
HETATM   10  O   UNL     1       6.641  24.279  52.901  1.00  0.00    -0.391 OA
HETATM   11  H   UNL     1       7.484  24.650  52.592  1.00  0.00     0.210 HD
ENDBRANCH   9  10
BRANCH   9  12
HETATM   12  C   UNL     1       7.507  22.552  54.259  1.00  0.00    -0.030 A 
HETATM   13  C   UNL     1       7.889  21.883  53.086  1.00  0.00     0.010 A 
HETATM   14  C   UNL     1       8.481  20.618  53.141  1.00  0.00     0.001 A 
HETATM   15  C   UNL     1       8.691  19.993  54.366  1.00  0.00     0.000 A 
HETATM   16  C   UNL     1       8.308  20.632  55.541  1.00  0.00     0.001 A 
HETATM   17  C   UNL     1       7.721  21.899  55.487  1.00  0.00     0.010 A 
ENDBRANCH   9  12
ENDBRANCH   8   9
ENDBRANCH   7   8
ENDBRANCH   2   7
BRANCH   4  18
HETATM   18  C   UNL     1       4.526  29.198  52.041  1.00  0.00     0.109 A 
HETATM   19  N   UNL     1       4.306  28.795  50.735  1.00  0.00    -0.254 N 
HETATM   20  N   UNL     1       3.169  29.331  50.227  1.00  0.00    -0.183 NA
HETATM   21  C   UNL     1       2.719  30.128  51.192  1.00  0.00     0.142 A 
HETATM   22  C   UNL     1       3.549  30.126  52.322  1.00  0.00     0.065 A 
BRANCH  19  23
HETATM   23  C   UNL     1       5.230  28.069  49.856  1.00  0.00     0.111 C 
HETATM   24  C   UNL     1       4.940  26.557  49.708  1.00  0.00     0.027 C 
HETATM   25  C   UNL     1       3.765  26.227  48.779  1.00  0.00     0.002 C 
HETATM   26  C   UNL     1       3.857  26.942  47.437  1.00  0.00     0.000 C 
HETATM   27  C   UNL     1       4.090  28.438  47.602  1.00  0.00     0.002 C 
HETATM   28  C   UNL     1       5.325  28.712  48.457  1.00  0.00     0.027 C 
ENDBRANCH  19  23
ENDBRANCH   4  18
TORSDOF 7
ENDMDL
MODEL 6
REMARK VINA RESULT:      -8.2      1.651      2.436
REMARK  7 active torsions:
REMARK  status: ('A' for Active; 'I' for Inactive)
REMARK       I    between atoms: N_2  and  C_3 
REMARK    1  A    between atoms: N_2  and  C_17 
REMARK       I    between atoms: C_3  and  N_4 
REMARK    2  A    between atoms: N_4  and  C_5 
REMARK    3  A    between atoms: N_6  and  C_7 
REMARK    4  A    between atoms: C_17  and  C_18 
REMARK    5  A    between atoms: C_18  and  C_19 
REMARK    6  A    between atoms: C_19  and  O_20 
REMARK    7  A    between atoms: C_19  and  C_21 
ROOT
HETATM    1  C   UNL     1       4.754  29.439  52.356  1.00  0.00     0.154 C 
HETATM    2  N   UNL     1       4.477  28.670  53.560  1.00  0.00    -0.343 N 
HETATM    3  C   UNL     1       4.509  29.211  54.844  1.00  0.00     0.301 C 
HETATM    4  N   UNL     1       5.404  30.265  54.961  1.00  0.00    -0.194 NA
HETATM    5  O   UNL     1       3.873  28.730  55.778  1.00  0.00    -0.254 OA
HETATM    6  H   UNL     1       6.264  30.047  54.475  1.00  0.00     0.140 HD
ENDROOT
BRANCH   2   7
HETATM    7  C   UNL     1       4.040  27.285  53.385  1.00  0.00     0.129 C 
BRANCH   7   8
HETATM    8  C   UNL     1       5.170  26.326  53.015  1.00  0.00     0.056 C 
BRANCH   8   9
HETATM    9  C   UNL     1       5.960  25.875  54.253  1.00  0.00     0.152 C 
BRANCH   9  10
HETATM   10  O   UNL     1       5.055  25.770  55.354  1.00  0.00    -0.391 OA
HETATM   11  H   UNL     1       4.778  24.840  55.408  1.00  0.00     0.210 HD
ENDBRANCH   9  10
BRANCH   9  12
HETATM   12  C   UNL     1       6.701  24.553  54.174  1.00  0.00    -0.030 A 
HETATM   13  C   UNL     1       7.086  23.951  52.967  1.00  0.00     0.010 A 
HETATM   14  C   UNL     1       7.731  22.710  52.957  1.00  0.00     0.001 A 
HETATM   15  C   UNL     1       7.993  22.045  54.152  1.00  0.00     0.000 A 
HETATM   16  C   UNL     1       7.608  22.619  55.359  1.00  0.00     0.001 A 
HETATM   17  C   UNL     1       6.967  23.861  55.370  1.00  0.00     0.010 A 
ENDBRANCH   9  12
ENDBRANCH   8   9
ENDBRANCH   7   8
ENDBRANCH   2   7
BRANCH   4  18
HETATM   18  C   UNL     1       5.571  30.881  56.193  1.00  0.00     0.109 A 
HETATM   19  N   UNL     1       6.403  30.454  57.214  1.00  0.00    -0.254 N 
HETATM   20  N   UNL     1       6.370  31.294  58.277  1.00  0.00    -0.183 NA
HETATM   21  C   UNL     1       5.459  32.207  57.948  1.00  0.00     0.142 A 
HETATM   22  C   UNL     1       4.892  31.971  56.687  1.00  0.00     0.065 A 
BRANCH  19  23
HETATM   23  C   UNL     1       7.097  29.165  57.321  1.00  0.00     0.111 C 
HETATM   24  C   UNL     1       7.777  28.679  56.019  1.00  0.00     0.027 C 
HETATM   25  C   UNL     1       9.099  29.387  55.695  1.00  0.00     0.002 C 
HETATM   26  C   UNL     1      10.055  29.420  56.882  1.00  0.00     0.000 C 
HETATM   27  C   UNL     1       9.382  29.951  58.141  1.00  0.00     0.002 C 
HETATM   28  C   UNL     1       8.123  29.153  58.472  1.00  0.00     0.027 C 
ENDBRANCH  19  23
ENDBRANCH   4  18
TORSDOF 7
ENDMDL
MODEL 7
REMARK VINA RESULT:      -8.1      4.426      8.127
REMARK  7 active torsions:
REMARK  status: ('A' for Active; 'I' for Inactive)
REMARK       I    between atoms: N_2  and  C_3 
REMARK    1  A    between atoms: N_2  and  C_17 
REMARK       I    between atoms: C_3  and  N_4 
REMARK    2  A    between atoms: N_4  and  C_5 
REMARK    3  A    between atoms: N_6  and  C_7 
REMARK    4  A    between atoms: C_17  and  C_18 
REMARK    5  A    between atoms: C_18  and  C_19 
REMARK    6  A    between atoms: C_19  and  O_20 
REMARK    7  A    between atoms: C_19  and  C_21 
ROOT
HETATM    1  C   UNL     1       4.379  25.198  52.968  1.00  0.00     0.154 C 
HETATM    2  N   UNL     1       5.710  25.779  52.872  1.00  0.00    -0.343 N 
HETATM    3  C   UNL     1       6.785  25.375  53.662  1.00  0.00     0.301 C 
HETATM    4  N   UNL     1       6.392  24.902  54.905  1.00  0.00    -0.194 NA
HETATM    5  O   UNL     1       7.953  25.519  53.309  1.00  0.00    -0.254 OA
HETATM    6  H   UNL     1       5.668  25.496  55.290  1.00  0.00     0.140 HD
ENDROOT
BRANCH   2   7
HETATM    7  C   UNL     1       5.937  26.762  51.814  1.00  0.00     0.129 C 
BRANCH   7   8
HETATM    8  C   UNL     1       5.404  26.331  50.449  1.00  0.00     0.056 C 
BRANCH   8   9
HETATM    9  C   UNL     1       4.809  27.516  49.671  1.00  0.00     0.152 C 
BRANCH   9  10
HETATM   10  O   UNL     1       5.828  28.064  48.832  1.00  0.00    -0.391 OA
HETATM   11  H   UNL     1       6.659  28.034  49.336  1.00  0.00     0.210 HD
ENDBRANCH   9  10
BRANCH   9  12
HETATM   12  C   UNL     1       3.613  27.245  48.779  1.00  0.00    -0.030 A 
HETATM   13  C   UNL     1       3.618  26.302  47.741  1.00  0.00     0.010 A 
HETATM   14  C   UNL     1       2.496  26.126  46.925  1.00  0.00     0.001 A 
HETATM   15  C   UNL     1       1.354  26.897  47.125  1.00  0.00     0.000 A 
HETATM   16  C   UNL     1       1.333  27.848  48.141  1.00  0.00     0.001 A 
HETATM   17  C   UNL     1       2.453  28.020  48.959  1.00  0.00     0.010 A 
ENDBRANCH   9  12
ENDBRANCH   8   9
ENDBRANCH   7   8
ENDBRANCH   2   7
BRANCH   4  18
HETATM   18  C   UNL     1       7.357  24.498  55.816  1.00  0.00     0.109 A 
HETATM   19  N   UNL     1       7.839  23.210  55.978  1.00  0.00    -0.254 N 
HETATM   20  N   UNL     1       8.806  23.148  56.926  1.00  0.00    -0.183 NA
HETATM   21  C   UNL     1       8.874  24.386  57.409  1.00  0.00     0.142 A 
HETATM   22  C   UNL     1       7.961  25.255  56.794  1.00  0.00     0.065 A 
BRANCH  19  23
HETATM   23  C   UNL     1       7.291  21.973  55.410  1.00  0.00     0.111 C 
HETATM   24  C   UNL     1       7.572  21.764  53.903  1.00  0.00     0.027 C 
HETATM   25  C   UNL     1       9.000  21.302  53.585  1.00  0.00     0.002 C 
HETATM   26  C   UNL     1       9.437  20.115  54.435  1.00  0.00     0.000 C 
HETATM   27  C   UNL     1       9.201  20.358  55.920  1.00  0.00     0.002 C 
HETATM   28  C   UNL     1       7.744  20.725  56.194  1.00  0.00     0.027 C 
ENDBRANCH  19  23
ENDBRANCH   4  18
TORSDOF 7
ENDMDL
MODEL 8
REMARK VINA RESULT:      -8.1      3.459      5.881
REMARK  7 active torsions:
REMARK  status: ('A' for Active; 'I' for Inactive)
REMARK       I    between atoms: N_2  and  C_3 
REMARK    1  A    between atoms: N_2  and  C_17 
REMARK       I    between atoms: C_3  and  N_4 
REMARK    2  A    between atoms: N_4  and  C_5 
REMARK    3  A    between atoms: N_6  and  C_7 
REMARK    4  A    between atoms: C_17  and  C_18 
REMARK    5  A    between atoms: C_18  and  C_19 
REMARK    6  A    between atoms: C_19  and  O_20 
REMARK    7  A    between atoms: C_19  and  C_21 
ROOT
HETATM    1  C   UNL     1       5.759  28.100  55.850  1.00  0.00     0.154 C 
HETATM    2  N   UNL     1       6.581  27.110  55.170  1.00  0.00    -0.343 N 
HETATM    3  C   UNL     1       6.598  26.943  53.786  1.00  0.00     0.301 C 
HETATM    4  N   UNL     1       5.392  27.281  53.189  1.00  0.00    -0.194 NA
HETATM    5  O   UNL     1       7.559  26.460  53.193  1.00  0.00    -0.254 OA
HETATM    6  H   UNL     1       4.620  26.925  53.738  1.00  0.00     0.140 HD
ENDROOT
BRANCH   2   7
HETATM    7  C   UNL     1       7.508  26.331  55.990  1.00  0.00     0.129 C 
BRANCH   7   8
HETATM    8  C   UNL     1       7.002  24.930  56.328  1.00  0.00     0.056 C 
BRANCH   8   9
HETATM    9  C   UNL     1       8.137  23.894  56.302  1.00  0.00     0.152 C 
BRANCH   9  10
HETATM   10  O   UNL     1       8.239  23.303  57.600  1.00  0.00    -0.391 OA
HETATM   11  H   UNL     1       7.423  23.524  58.078  1.00  0.00     0.210 HD
ENDBRANCH   9  10
BRANCH   9  12
HETATM   12  C   UNL     1       8.026  22.750  55.313  1.00  0.00    -0.030 A 
HETATM   13  C   UNL     1       8.005  21.398  55.690  1.00  0.00     0.010 A 
HETATM   14  C   UNL     1       7.941  20.385  54.728  1.00  0.00     0.001 A 
HETATM   15  C   UNL     1       7.911  20.704  53.373  1.00  0.00     0.000 A 
HETATM   16  C   UNL     1       7.944  22.038  52.977  1.00  0.00     0.001 A 
HETATM   17  C   UNL     1       8.002  23.050  53.939  1.00  0.00     0.010 A 
ENDBRANCH   9  12
ENDBRANCH   8   9
ENDBRANCH   7   8
ENDBRANCH   2   7
BRANCH   4  18
HETATM   18  C   UNL     1       5.248  27.131  51.816  1.00  0.00     0.109 A 
HETATM   19  N   UNL     1       5.351  28.136  50.870  1.00  0.00    -0.254 N 
HETATM   20  N   UNL     1       5.195  27.661  49.610  1.00  0.00    -0.183 NA
HETATM   21  C   UNL     1       4.920  26.369  49.776  1.00  0.00     0.142 A 
HETATM   22  C   UNL     1       4.889  25.996  51.127  1.00  0.00     0.065 A 
BRANCH  19  23
HETATM   23  C   UNL     1       5.397  29.584  51.105  1.00  0.00     0.111 C 
HETATM   24  C   UNL     1       5.765  30.436  49.867  1.00  0.00     0.027 C 
HETATM   25  C   UNL     1       4.620  30.615  48.862  1.00  0.00     0.002 C 
HETATM   26  C   UNL     1       3.322  31.066  49.521  1.00  0.00     0.000 C 
HETATM   27  C   UNL     1       2.949  30.184  50.706  1.00  0.00     0.002 C 
HETATM   28  C   UNL     1       4.087  30.114  51.722  1.00  0.00     0.027 C 
ENDBRANCH  19  23
ENDBRANCH   4  18
TORSDOF 7
ENDMDL
MODEL 9
REMARK VINA RESULT:      -8.0      1.463      3.364
REMARK  7 active torsions:
REMARK  status: ('A' for Active; 'I' for Inactive)
REMARK       I    between atoms: N_2  and  C_3 
REMARK    1  A    between atoms: N_2  and  C_17 
REMARK       I    between atoms: C_3  and  N_4 
REMARK    2  A    between atoms: N_4  and  C_5 
REMARK    3  A    between atoms: N_6  and  C_7 
REMARK    4  A    between atoms: C_17  and  C_18 
REMARK    5  A    between atoms: C_18  and  C_19 
REMARK    6  A    between atoms: C_19  and  O_20 
REMARK    7  A    between atoms: C_19  and  C_21 
ROOT
HETATM    1  C   UNL     1       5.826  28.234  52.534  1.00  0.00     0.154 C 
HETATM    2  N   UNL     1       5.943  27.366  53.696  1.00  0.00    -0.343 N 
HETATM    3  C   UNL     1       6.148  27.837  54.992  1.00  0.00     0.301 C 
HETATM    4  N   UNL     1       6.850  29.034  55.024  1.00  0.00    -0.194 NA
HETATM    5  O   UNL     1       5.814  27.198  55.986  1.00  0.00    -0.254 OA
HETATM    6  H   UNL     1       7.614  29.007  54.363  1.00  0.00     0.140 HD
ENDROOT
BRANCH   2   7
HETATM    7  C   UNL     1       5.728  25.935  53.488  1.00  0.00     0.129 C 
BRANCH   7   8
HETATM    8  C   UNL     1       7.017  25.142  53.285  1.00  0.00     0.056 C 
BRANCH   8   9
HETATM    9  C   UNL     1       7.393  24.336  54.539  1.00  0.00     0.152 C 
BRANCH   9  10
HETATM   10  O   UNL     1       6.293  24.378  55.450  1.00  0.00    -0.391 OA
HETATM   11  H   UNL     1       6.057  25.313  55.569  1.00  0.00     0.210 HD
ENDBRANCH   9  10
BRANCH   9  12
HETATM   12  C   UNL     1       7.749  22.873  54.357  1.00  0.00    -0.030 A 
HETATM   13  C   UNL     1       7.898  22.261  53.104  1.00  0.00     0.010 A 
HETATM   14  C   UNL     1       8.188  20.897  53.001  1.00  0.00     0.001 A 
HETATM   15  C   UNL     1       8.321  20.118  54.147  1.00  0.00     0.000 A 
HETATM   16  C   UNL     1       8.164  20.703  55.400  1.00  0.00     0.001 A 
HETATM   17  C   UNL     1       7.880  22.067  55.503  1.00  0.00     0.010 A 
ENDBRANCH   9  12
ENDBRANCH   8   9
ENDBRANCH   7   8
ENDBRANCH   2   7
BRANCH   4  18
HETATM   18  C   UNL     1       7.160  29.607  56.250  1.00  0.00     0.109 A 
HETATM   19  N   UNL     1       6.348  30.455  56.984  1.00  0.00    -0.254 N 
HETATM   20  N   UNL     1       6.925  30.815  58.157  1.00  0.00    -0.183 NA
HETATM   21  C   UNL     1       8.129  30.250  58.120  1.00  0.00     0.142 A 
HETATM   22  C   UNL     1       8.350  29.530  56.937  1.00  0.00     0.065 A 
BRANCH  19  23
HETATM   23  C   UNL     1       5.113  31.114  56.543  1.00  0.00     0.111 C 
HETATM   24  C   UNL     1       3.810  30.518  57.127  1.00  0.00     0.027 C 
HETATM   25  C   UNL     1       3.529  30.918  58.581  1.00  0.00     0.002 C 
HETATM   26  C   UNL     1       3.644  32.420  58.811  1.00  0.00     0.000 C 
HETATM   27  C   UNL     1       4.956  32.981  58.276  1.00  0.00     0.002 C 
HETATM   28  C   UNL     1       5.143  32.634  56.801  1.00  0.00     0.027 C 
ENDBRANCH  19  23
ENDBRANCH   4  18
TORSDOF 7
ENDMDL
MODEL 10
REMARK VINA RESULT:      -7.9      2.964      4.151
REMARK  7 active torsions:
REMARK  status: ('A' for Active; 'I' for Inactive)
REMARK       I    between atoms: N_2  and  C_3 
REMARK    1  A    between atoms: N_2  and  C_17 
REMARK       I    between atoms: C_3  and  N_4 
REMARK    2  A    between atoms: N_4  and  C_5 
REMARK    3  A    between atoms: N_6  and  C_7 
REMARK    4  A    between atoms: C_17  and  C_18 
REMARK    5  A    between atoms: C_18  and  C_19 
REMARK    6  A    between atoms: C_19  and  O_20 
REMARK    7  A    between atoms: C_19  and  C_21 
ROOT
HETATM    1  C   UNL     1       8.903  29.408  57.829  1.00  0.00     0.154 C 
HETATM    2  N   UNL     1       7.473  29.143  57.872  1.00  0.00    -0.343 N 
HETATM    3  C   UNL     1       6.520  30.108  58.194  1.00  0.00     0.301 C 
HETATM    4  N   UNL     1       7.008  31.079  59.057  1.00  0.00    -0.194 NA
HETATM    5  O   UNL     1       5.354  30.035  57.816  1.00  0.00    -0.254 OA
HETATM    6  H   UNL     1       7.568  30.650  59.782  1.00  0.00     0.140 HD
ENDROOT
BRANCH   2   7
HETATM    7  C   UNL     1       7.024  27.817  57.450  1.00  0.00     0.129 C 
BRANCH   7   8
HETATM    8  C   UNL     1       8.150  26.919  56.942  1.00  0.00     0.056 C 
BRANCH   8   9
HETATM    9  C   UNL     1       7.801  25.430  57.093  1.00  0.00     0.152 C 
BRANCH   9  10
HETATM   10  O   UNL     1       6.518  25.326  57.713  1.00  0.00    -0.391 OA
HETATM   11  H   UNL     1       5.927  25.944  57.250  1.00  0.00     0.210 HD
ENDBRANCH   9  10
BRANCH   9  12
HETATM   12  C   UNL     1       7.743  24.587  55.833  1.00  0.00    -0.030 A 
HETATM   13  C   UNL     1       8.672  23.581  55.529  1.00  0.00     0.010 A 
HETATM   14  C   UNL     1       8.589  22.864  54.332  1.00  0.00     0.001 A 
HETATM   15  C   UNL     1       7.583  23.149  53.412  1.00  0.00     0.000 A 
HETATM   16  C   UNL     1       6.659  24.151  53.687  1.00  0.00     0.001 A 
HETATM   17  C   UNL     1       6.739  24.864  54.887  1.00  0.00     0.010 A 
ENDBRANCH   9  12
ENDBRANCH   8   9
ENDBRANCH   7   8
ENDBRANCH   2   7
BRANCH   4  18
HETATM   18  C   UNL     1       6.162  32.087  59.495  1.00  0.00     0.109 A 
HETATM   19  N   UNL     1       5.843  32.372  60.812  1.00  0.00    -0.254 N 
HETATM   20  N   UNL     1       5.017  33.442  60.912  1.00  0.00    -0.183 NA
HETATM   21  C   UNL     1       4.760  33.780  59.651  1.00  0.00     0.142 A 
HETATM   22  C   UNL     1       5.403  32.941  58.728  1.00  0.00     0.065 A 
BRANCH  19  23
HETATM   23  C   UNL     1       6.127  31.553  61.997  1.00  0.00     0.111 C 
HETATM   24  C   UNL     1       7.626  31.269  62.251  1.00  0.00     0.027 C 
HETATM   25  C   UNL     1       8.399  32.449  62.856  1.00  0.00     0.002 C 
HETATM   26  C   UNL     1       7.700  33.051  64.069  1.00  0.00     0.000 C 
HETATM   27  C   UNL     1       6.238  33.372  63.784  1.00  0.00     0.002 C 
HETATM   28  C   UNL     1       5.493  32.142  63.273  1.00  0.00     0.027 C 
ENDBRANCH  19  23
ENDBRANCH   4  18
TORSDOF 7
ENDMDL
