MODEL 1
REMARK VINA RESULT:      -9.9      0.000      0.000
REMARK  6 active torsions:
REMARK  status: ('A' for Active; 'I' for Inactive)
REMARK    1  A    between atoms: C_4  and  C_5 
REMARK    2  A    between atoms: C_5  and  N_6 
REMARK    3  A    between atoms: C_10  and  C_11 
REMARK    4  A    between atoms: C_11  and  C_12 
REMARK    5  A    between atoms: N_21  and  C_22 
REMARK    6  A    between atoms: C_22  and  C_23 
ROOT
HETATM    1  C   UNL     1       6.394  26.061  54.316  1.00  0.00     0.149 C 
HETATM    2  N   UNL     1       7.157  27.043  53.562  1.00  0.00    -0.220 NA
HETATM    3  C   UNL     1       7.928  27.822  54.401  1.00  0.00     0.304 C 
HETATM    4  O   UNL     1       8.755  28.609  53.977  1.00  0.00    -0.253 OA
HETATM    5  N   UNL     1       7.570  27.587  55.688  1.00  0.00    -0.270 N 
HETATM    6  C   UNL     1       6.595  26.632  55.735  1.00  0.00     0.257 C 
HETATM    7  O   UNL     1       5.956  26.292  56.722  1.00  0.00    -0.270 OA
HETATM    8  H   UNL     1       7.696  26.705  52.766  1.00  0.00     0.134 HD
ENDROOT
BRANCH   1   9
HETATM    9  C   UNL     1       4.878  26.022  53.928  1.00  0.00     0.028 C 
HETATM   10  C   UNL     1       4.484  24.912  52.935  1.00  0.00     0.035 C 
HETATM   11  C   UNL     1       4.964  25.171  51.516  1.00  0.00     0.235 C 
HETATM   12  N   UNL     1       4.420  26.493  51.023  1.00  0.00    -0.067 N 
HETATM   13  H   UNL     1       3.401  26.381  50.965  1.00  0.00     0.280 HD
HETATM   14  C   UNL     1       4.711  27.657  51.939  1.00  0.00     0.235 C 
HETATM   15  C   UNL     1       4.314  27.350  53.377  1.00  0.00     0.035 C 
BRANCH  12  16
HETATM   16  C   UNL     1       4.884  26.835  49.610  1.00  0.00     0.274 C 
BRANCH  16  17
HETATM   17  C   UNL     1       3.781  27.253  48.669  1.00  0.00    -0.026 A 
HETATM   18  C   UNL     1       3.552  28.628  48.461  1.00  0.00     0.016 A 
HETATM   19  C   UNL     1       2.509  29.072  47.640  1.00  0.00    -0.061 A 
HETATM   20  C   UNL     1       2.285  30.536  47.393  1.00  0.00     0.048 C 
HETATM   21  C   UNL     1       1.706  28.130  46.996  1.00  0.00     0.007 A 
HETATM   22  C   UNL     1       1.929  26.766  47.180  1.00  0.00     0.008 A 
HETATM   23  C   UNL     1       2.959  26.309  48.015  1.00  0.00    -0.054 A 
HETATM   24  C   UNL     1       3.163  24.821  48.146  1.00  0.00     0.049 C 
ENDBRANCH  16  17
ENDBRANCH  12  16
ENDBRANCH   1   9
BRANCH   1  25
HETATM   25  C   UNL     1       7.057  24.693  54.142  1.00  0.00     0.067 A 
HETATM   26  N   UNL     1       6.913  23.842  55.204  1.00  0.00    -0.263 NA
HETATM   27  C   UNL     1       7.488  22.621  55.108  1.00  0.00     0.117 A 
HETATM   28  C   UNL     1       8.227  22.205  54.018  1.00  0.00     0.019 A 
HETATM   29  C   UNL     1       8.387  23.088  52.957  1.00  0.00     0.003 A 
HETATM   30  C   UNL     1       7.801  24.351  53.015  1.00  0.00     0.030 A 
ENDBRANCH   1  25
BRANCH   5  31
HETATM   31  C   UNL     1       8.142  28.281  56.830  1.00  0.00     0.168 C 
BRANCH  31  32
HETATM   32  C   UNL     1       7.599  29.701  57.014  1.00  0.00     0.140 C 
HETATM   33  O   UNL     1       6.169  29.734  56.857  1.00  0.00    -0.384 OA
HETATM   34  C   UNL     1       5.650  30.762  57.719  1.00  0.00     0.168 C 
HETATM   35  C   UNL     1       6.827  31.368  58.461  1.00  0.00     0.029 C 
HETATM   36  C   UNL     1       7.857  30.267  58.399  1.00  0.00     0.036 C 
ENDBRANCH  31  32
ENDBRANCH   5  31
TORSDOF 6
ENDMDL
MODEL 2
REMARK VINA RESULT:      -9.7      0.790      1.679
REMARK  6 active torsions:
REMARK  status: ('A' for Active; 'I' for Inactive)
REMARK    1  A    between atoms: C_4  and  C_5 
REMARK    2  A    between atoms: C_5  and  N_6 
REMARK    3  A    between atoms: C_10  and  C_11 
REMARK    4  A    between atoms: C_11  and  C_12 
REMARK    5  A    between atoms: N_21  and  C_22 
REMARK    6  A    between atoms: C_22  and  C_23 
ROOT
HETATM    1  C   UNL     1       6.296  25.975  54.102  1.00  0.00     0.149 C 
HETATM    2  N   UNL     1       7.144  26.949  53.432  1.00  0.00    -0.220 NA
HETATM    3  C   UNL     1       7.760  27.780  54.346  1.00  0.00     0.304 C 
HETATM    4  O   UNL     1       8.625  28.573  54.019  1.00  0.00    -0.253 OA
HETATM    5  N   UNL     1       7.216  27.584  55.572  1.00  0.00    -0.270 N 
HETATM    6  C   UNL     1       6.266  26.606  55.511  1.00  0.00     0.257 C 
HETATM    7  O   UNL     1       5.492  26.285  56.402  1.00  0.00    -0.270 OA
HETATM    8  H   UNL     1       7.805  26.597  52.742  1.00  0.00     0.134 HD
ENDROOT
BRANCH   1   9
HETATM    9  C   UNL     1       4.858  25.880  53.491  1.00  0.00     0.028 C 
HETATM   10  C   UNL     1       4.759  25.099  52.167  1.00  0.00     0.035 C 
HETATM   11  C   UNL     1       5.345  25.845  50.979  1.00  0.00     0.235 C 
HETATM   12  N   UNL     1       4.652  27.180  50.820  1.00  0.00    -0.067 N 
HETATM   13  H   UNL     1       3.678  26.971  50.575  1.00  0.00     0.280 HD
HETATM   14  C   UNL     1       4.650  28.024  52.071  1.00  0.00     0.235 C 
HETATM   15  C   UNL     1       4.152  27.236  53.276  1.00  0.00     0.035 C 
BRANCH  12  16
HETATM   16  C   UNL     1       5.208  28.001  49.659  1.00  0.00     0.274 C 
BRANCH  16  17
HETATM   17  C   UNL     1       4.166  28.520  48.700  1.00  0.00    -0.026 A 
HETATM   18  C   UNL     1       3.167  27.638  48.240  1.00  0.00     0.016 A 
HETATM   19  C   UNL     1       2.207  28.053  47.310  1.00  0.00    -0.061 A 
HETATM   20  C   UNL     1       1.124  27.123  46.845  1.00  0.00     0.048 C 
HETATM   21  C   UNL     1       2.229  29.373  46.857  1.00  0.00     0.007 A 
HETATM   22  C   UNL     1       3.202  30.262  47.313  1.00  0.00     0.008 A 
HETATM   23  C   UNL     1       4.180  29.852  48.231  1.00  0.00    -0.054 A 
HETATM   24  C   UNL     1       5.184  30.872  48.705  1.00  0.00     0.049 C 
ENDBRANCH  16  17
ENDBRANCH  12  16
ENDBRANCH   1   9
BRANCH   1  25
HETATM   25  C   UNL     1       7.007  24.621  54.087  1.00  0.00     0.067 A 
HETATM   26  N   UNL     1       6.813  23.854  55.204  1.00  0.00    -0.263 NA
HETATM   27  C   UNL     1       7.428  22.649  55.250  1.00  0.00     0.117 A 
HETATM   28  C   UNL     1       8.253  22.172  54.250  1.00  0.00     0.019 A 
HETATM   29  C   UNL     1       8.462  22.971  53.132  1.00  0.00     0.003 A 
HETATM   30  C   UNL     1       7.838  24.214  53.046  1.00  0.00     0.030 A 
ENDBRANCH   1  25
BRANCH   5  31
HETATM   31  C   UNL     1       7.592  28.337  56.758  1.00  0.00     0.168 C 
BRANCH  31  32
HETATM   32  C   UNL     1       6.929  29.715  56.840  1.00  0.00     0.140 C 
HETATM   33  O   UNL     1       5.496  29.599  56.903  1.00  0.00    -0.384 OA
HETATM   34  C   UNL     1       4.995  30.689  57.695  1.00  0.00     0.168 C 
HETATM   35  C   UNL     1       6.192  31.497  58.163  1.00  0.00     0.029 C 
HETATM   36  C   UNL     1       7.316  30.494  58.085  1.00  0.00     0.036 C 
ENDBRANCH  31  32
ENDBRANCH   5  31
TORSDOF 6
ENDMDL
MODEL 3
REMARK VINA RESULT:      -9.5      2.518      7.216
REMARK  6 active torsions:
REMARK  status: ('A' for Active; 'I' for Inactive)
REMARK    1  A    between atoms: C_4  and  C_5 
REMARK    2  A    between atoms: C_5  and  N_6 
REMARK    3  A    between atoms: C_10  and  C_11 
REMARK    4  A    between atoms: C_11  and  C_12 
REMARK    5  A    between atoms: N_21  and  C_22 
REMARK    6  A    between atoms: C_22  and  C_23 
ROOT
HETATM    1  C   UNL     1       6.820  27.714  56.417  1.00  0.00     0.149 C 
HETATM    2  N   UNL     1       7.735  27.151  55.436  1.00  0.00    -0.220 NA
HETATM    3  C   UNL     1       7.393  27.543  54.158  1.00  0.00     0.304 C 
HETATM    4  O   UNL     1       8.105  27.310  53.197  1.00  0.00    -0.253 OA
HETATM    5  N   UNL     1       6.180  28.148  54.181  1.00  0.00    -0.270 N 
HETATM    6  C   UNL     1       5.711  28.205  55.463  1.00  0.00     0.257 C 
HETATM    7  O   UNL     1       4.594  28.557  55.814  1.00  0.00    -0.270 OA
HETATM    8  H   UNL     1       8.733  27.266  55.608  1.00  0.00     0.134 HD
ENDROOT
BRANCH   1   9
HETATM    9  C   UNL     1       6.271  26.657  57.432  1.00  0.00     0.028 C 
HETATM   10  C   UNL     1       7.283  26.174  58.488  1.00  0.00     0.035 C 
HETATM   11  C   UNL     1       8.355  25.254  57.924  1.00  0.00     0.235 C 
HETATM   12  N   UNL     1       7.707  24.052  57.273  1.00  0.00    -0.067 N 
HETATM   13  H   UNL     1       7.247  23.529  58.027  1.00  0.00     0.280 HD
HETATM   14  C   UNL     1       6.662  24.401  56.241  1.00  0.00     0.235 C 
HETATM   15  C   UNL     1       5.649  25.399  56.787  1.00  0.00     0.035 C 
BRANCH  12  16
HETATM   16  C   UNL     1       8.722  23.094  56.658  1.00  0.00     0.274 C 
BRANCH  16  17
HETATM   17  C   UNL     1       8.403  22.657  55.250  1.00  0.00    -0.026 A 
HETATM   18  C   UNL     1       8.362  23.630  54.231  1.00  0.00     0.016 A 
HETATM   19  C   UNL     1       8.020  23.288  52.917  1.00  0.00    -0.061 A 
HETATM   20  C   UNL     1       8.007  24.319  51.825  1.00  0.00     0.048 C 
HETATM   21  C   UNL     1       7.745  21.954  52.614  1.00  0.00     0.007 A 
HETATM   22  C   UNL     1       7.795  20.977  53.608  1.00  0.00     0.008 A 
HETATM   23  C   UNL     1       8.119  21.310  54.931  1.00  0.00    -0.054 A 
HETATM   24  C   UNL     1       8.185  20.201  55.949  1.00  0.00     0.049 C 
ENDBRANCH  16  17
ENDBRANCH  12  16
ENDBRANCH   1   9
BRANCH   1  25
HETATM   25  C   UNL     1       7.525  28.869  57.131  1.00  0.00     0.067 A 
HETATM   26  N   UNL     1       6.694  29.732  57.793  1.00  0.00    -0.263 NA
HETATM   27  C   UNL     1       7.263  30.779  58.435  1.00  0.00     0.117 A 
HETATM   28  C   UNL     1       8.621  31.033  58.432  1.00  0.00     0.019 A 
HETATM   29  C   UNL     1       9.451  30.163  57.735  1.00  0.00     0.003 A 
HETATM   30  C   UNL     1       8.902  29.069  57.070  1.00  0.00     0.030 A 
ENDBRANCH   1  25
BRANCH   5  31
HETATM   31  C   UNL     1       5.491  28.634  52.997  1.00  0.00     0.168 C 
BRANCH  31  32
HETATM   32  C   UNL     1       4.742  27.537  52.235  1.00  0.00     0.140 C 
HETATM   33  O   UNL     1       5.221  27.425  50.882  1.00  0.00    -0.384 OA
HETATM   34  C   UNL     1       5.108  26.048  50.483  1.00  0.00     0.168 C 
HETATM   35  C   UNL     1       4.555  25.276  51.667  1.00  0.00     0.029 C 
HETATM   36  C   UNL     1       4.929  26.155  52.835  1.00  0.00     0.036 C 
ENDBRANCH  31  32
ENDBRANCH   5  31
TORSDOF 6
ENDMDL
MODEL 4
REMARK VINA RESULT:      -9.2      4.237      6.923
REMARK  6 active torsions:
REMARK  status: ('A' for Active; 'I' for Inactive)
REMARK    1  A    between atoms: C_4  and  C_5 
REMARK    2  A    between atoms: C_5  and  N_6 
REMARK    3  A    between atoms: C_10  and  C_11 
REMARK    4  A    between atoms: C_11  and  C_12 
REMARK    5  A    between atoms: N_21  and  C_22 
REMARK    6  A    between atoms: C_22  and  C_23 
ROOT
HETATM    1  C   UNL     1       6.627  29.021  56.803  1.00  0.00     0.149 C 
HETATM    2  N   UNL     1       6.241  28.931  55.403  1.00  0.00    -0.220 NA
HETATM    3  C   UNL     1       5.432  29.990  55.044  1.00  0.00     0.304 C 
HETATM    4  O   UNL     1       5.110  30.196  53.887  1.00  0.00    -0.253 OA
HETATM    5  N   UNL     1       5.058  30.670  56.156  1.00  0.00    -0.270 N 
HETATM    6  C   UNL     1       5.633  30.109  57.261  1.00  0.00     0.257 C 
HETATM    7  O   UNL     1       5.394  30.389  58.427  1.00  0.00    -0.270 OA
HETATM    8  H   UNL     1       6.983  28.780  54.722  1.00  0.00     0.134 HD
ENDROOT
BRANCH   1   9
HETATM    9  C   UNL     1       6.413  27.687  57.592  1.00  0.00     0.028 C 
HETATM   10  C   UNL     1       7.539  26.647  57.439  1.00  0.00     0.035 C 
HETATM   11  C   UNL     1       7.563  25.976  56.074  1.00  0.00     0.235 C 
HETATM   12  N   UNL     1       6.232  25.309  55.809  1.00  0.00    -0.067 N 
HETATM   13  H   UNL     1       6.146  24.553  56.498  1.00  0.00     0.280 HD
HETATM   14  C   UNL     1       5.042  26.224  55.968  1.00  0.00     0.235 C 
HETATM   15  C   UNL     1       5.081  26.964  57.298  1.00  0.00     0.035 C 
BRANCH  12  16
HETATM   16  C   UNL     1       6.170  24.635  54.441  1.00  0.00     0.274 C 
BRANCH  16  17
HETATM   17  C   UNL     1       7.109  23.468  54.271  1.00  0.00    -0.026 A 
HETATM   18  C   UNL     1       7.166  22.489  55.284  1.00  0.00     0.016 A 
HETATM   19  C   UNL     1       8.057  21.413  55.202  1.00  0.00    -0.061 A 
HETATM   20  C   UNL     1       8.095  20.354  56.266  1.00  0.00     0.048 C 
HETATM   21  C   UNL     1       8.879  21.298  54.081  1.00  0.00     0.007 A 
HETATM   22  C   UNL     1       8.826  22.250  53.063  1.00  0.00     0.008 A 
HETATM   23  C   UNL     1       7.950  23.342  53.142  1.00  0.00    -0.054 A 
HETATM   24  C   UNL     1       7.921  24.318  51.993  1.00  0.00     0.049 C 
ENDBRANCH  16  17
ENDBRANCH  12  16
ENDBRANCH   1   9
BRANCH   1  25
HETATM   25  C   UNL     1       8.080  29.494  56.876  1.00  0.00     0.067 A 
HETATM   26  N   UNL     1       8.808  29.299  55.734  1.00  0.00    -0.263 NA
HETATM   27  C   UNL     1      10.104  29.690  55.744  1.00  0.00     0.117 A 
HETATM   28  C   UNL     1      10.727  30.245  56.845  1.00  0.00     0.019 A 
HETATM   29  C   UNL     1       9.983  30.415  58.006  1.00  0.00     0.003 A 
HETATM   30  C   UNL     1       8.644  30.032  58.030  1.00  0.00     0.030 A 
ENDBRANCH   1  25
BRANCH   5  31
HETATM   31  C   UNL     1       4.157  31.811  56.148  1.00  0.00     0.168 C 
BRANCH  31  32
HETATM   32  C   UNL     1       4.870  33.152  56.342  1.00  0.00     0.140 C 
HETATM   33  O   UNL     1       5.052  33.830  55.085  1.00  0.00    -0.384 OA
HETATM   34  C   UNL     1       4.986  35.245  55.330  1.00  0.00     0.168 C 
HETATM   35  C   UNL     1       4.722  35.438  56.812  1.00  0.00     0.029 C 
HETATM   36  C   UNL     1       4.089  34.126  57.206  1.00  0.00     0.036 C 
ENDBRANCH  31  32
ENDBRANCH   5  31
TORSDOF 6
ENDMDL
MODEL 5
REMARK VINA RESULT:      -9.2      1.379      2.299
REMARK  6 active torsions:
REMARK  status: ('A' for Active; 'I' for Inactive)
REMARK    1  A    between atoms: C_4  and  C_5 
REMARK    2  A    between atoms: C_5  and  N_6 
REMARK    3  A    between atoms: C_10  and  C_11 
REMARK    4  A    between atoms: C_11  and  C_12 
REMARK    5  A    between atoms: N_21  and  C_22 
REMARK    6  A    between atoms: C_22  and  C_23 
ROOT
HETATM    1  C   UNL     1       6.473  26.203  54.885  1.00  0.00     0.149 C 
HETATM    2  N   UNL     1       7.405  26.845  53.970  1.00  0.00    -0.220 NA
HETATM    3  C   UNL     1       7.845  28.051  54.476  1.00  0.00     0.304 C 
HETATM    4  O   UNL     1       8.738  28.688  53.947  1.00  0.00    -0.253 OA
HETATM    5  N   UNL     1       7.106  28.379  55.565  1.00  0.00    -0.270 N 
HETATM    6  C   UNL     1       6.197  27.394  55.827  1.00  0.00     0.257 C 
HETATM    7  O   UNL     1       5.290  27.440  56.647  1.00  0.00    -0.270 OA
HETATM    8  H   UNL     1       8.178  26.282  53.620  1.00  0.00     0.134 HD
ENDROOT
BRANCH   1   9
HETATM    9  C   UNL     1       5.160  25.710  54.191  1.00  0.00     0.028 C 
HETATM   10  C   UNL     1       5.370  24.831  52.944  1.00  0.00     0.035 C 
HETATM   11  C   UNL     1       5.863  25.606  51.731  1.00  0.00     0.235 C 
HETATM   12  N   UNL     1       4.887  26.713  51.400  1.00  0.00    -0.067 N 
HETATM   13  H   UNL     1       4.016  26.253  51.111  1.00  0.00     0.280 HD
HETATM   14  C   UNL     1       4.571  27.623  52.562  1.00  0.00     0.235 C 
HETATM   15  C   UNL     1       4.172  26.831  53.800  1.00  0.00     0.035 C 
BRANCH  12  16
HETATM   16  C   UNL     1       5.330  27.555  50.207  1.00  0.00     0.274 C 
BRANCH  16  17
HETATM   17  C   UNL     1       4.302  27.684  49.111  1.00  0.00    -0.026 A 
HETATM   18  C   UNL     1       3.891  26.522  48.426  1.00  0.00     0.016 A 
HETATM   19  C   UNL     1       2.979  26.591  47.366  1.00  0.00    -0.061 A 
HETATM   20  C   UNL     1       2.517  25.350  46.658  1.00  0.00     0.048 C 
HETATM   21  C   UNL     1       2.450  27.831  47.007  1.00  0.00     0.007 A 
HETATM   22  C   UNL     1       2.836  28.988  47.683  1.00  0.00     0.008 A 
HETATM   23  C   UNL     1       3.763  28.934  48.734  1.00  0.00    -0.054 A 
HETATM   24  C   UNL     1       4.113  30.218  49.442  1.00  0.00     0.049 C 
ENDBRANCH  16  17
ENDBRANCH  12  16
ENDBRANCH   1   9
BRANCH   1  25
HETATM   25  C   UNL     1       7.201  25.060  55.594  1.00  0.00     0.067 A 
HETATM   26  N   UNL     1       7.799  25.401  56.777  1.00  0.00    -0.263 NA
HETATM   27  C   UNL     1       8.466  24.431  57.444  1.00  0.00     0.117 A 
HETATM   28  C   UNL     1       8.596  23.135  56.982  1.00  0.00     0.019 A 
HETATM   29  C   UNL     1       8.006  22.808  55.767  1.00  0.00     0.003 A 
HETATM   30  C   UNL     1       7.303  23.779  55.058  1.00  0.00     0.030 A 
ENDBRANCH   1  25
BRANCH   5  31
HETATM   31  C   UNL     1       7.264  29.616  56.312  1.00  0.00     0.168 C 
BRANCH  31  32
HETATM   32  C   UNL     1       8.364  29.550  57.375  1.00  0.00     0.140 C 
HETATM   33  O   UNL     1       9.605  30.079  56.871  1.00  0.00    -0.384 OA
HETATM   34  C   UNL     1      10.307  30.687  57.969  1.00  0.00     0.168 C 
HETATM   35  C   UNL     1       9.433  30.544  59.201  1.00  0.00     0.029 C 
HETATM   36  C   UNL     1       8.056  30.378  58.610  1.00  0.00     0.036 C 
ENDBRANCH  31  32
ENDBRANCH   5  31
TORSDOF 6
ENDMDL
MODEL 6
REMARK VINA RESULT:      -9.1      3.372      8.553
REMARK  6 active torsions:
REMARK  status: ('A' for Active; 'I' for Inactive)
REMARK    1  A    between atoms: C_4  and  C_5 
REMARK    2  A    between atoms: C_5  and  N_6 
REMARK    3  A    between atoms: C_10  and  C_11 
REMARK    4  A    between atoms: C_11  and  C_12 
REMARK    5  A    between atoms: N_21  and  C_22 
REMARK    6  A    between atoms: C_22  and  C_23 
ROOT
HETATM    1  C   UNL     1       4.169  29.757  52.345  1.00  0.00     0.149 C 
HETATM    2  N   UNL     1       5.485  29.629  51.738  1.00  0.00    -0.220 NA
HETATM    3  C   UNL     1       5.385  29.435  50.375  1.00  0.00     0.304 C 
HETATM    4  O   UNL     1       6.361  29.448  49.645  1.00  0.00    -0.253 OA
HETATM    5  N   UNL     1       4.091  29.197  50.048  1.00  0.00    -0.270 N 
HETATM    6  C   UNL     1       3.307  29.265  51.164  1.00  0.00     0.257 C 
HETATM    7  O   UNL     1       2.124  28.964  51.241  1.00  0.00    -0.270 OA
HETATM    8  H   UNL     1       6.176  30.343  51.964  1.00  0.00     0.134 HD
ENDROOT
BRANCH   1   9
HETATM    9  C   UNL     1       3.977  28.850  53.606  1.00  0.00     0.028 C 
HETATM   10  C   UNL     1       5.073  28.981  54.680  1.00  0.00     0.035 C 
HETATM   11  C   UNL     1       6.395  28.347  54.277  1.00  0.00     0.235 C 
HETATM   12  N   UNL     1       6.185  26.883  53.959  1.00  0.00    -0.067 N 
HETATM   13  H   UNL     1       5.908  26.434  54.839  1.00  0.00     0.280 HD
HETATM   14  C   UNL     1       5.102  26.625  52.941  1.00  0.00     0.235 C 
HETATM   15  C   UNL     1       3.810  27.345  53.305  1.00  0.00     0.035 C 
BRANCH  12  16
HETATM   16  C   UNL     1       7.468  26.183  53.518  1.00  0.00     0.274 C 
BRANCH  16  17
HETATM   17  C   UNL     1       7.675  24.814  54.116  1.00  0.00    -0.026 A 
HETATM   18  C   UNL     1       7.713  23.697  53.256  1.00  0.00     0.016 A 
HETATM   19  C   UNL     1       7.851  22.399  53.762  1.00  0.00    -0.061 A 
HETATM   20  C   UNL     1       7.923  21.213  52.844  1.00  0.00     0.048 C 
HETATM   21  C   UNL     1       7.982  22.219  55.139  1.00  0.00     0.007 A 
HETATM   22  C   UNL     1       7.960  23.314  56.002  1.00  0.00     0.008 A 
HETATM   23  C   UNL     1       7.804  24.618  55.509  1.00  0.00    -0.054 A 
HETATM   24  C   UNL     1       7.820  25.759  56.494  1.00  0.00     0.049 C 
ENDBRANCH  16  17
ENDBRANCH  12  16
ENDBRANCH   1   9
BRANCH   1  25
HETATM   25  C   UNL     1       3.926  31.232  52.667  1.00  0.00     0.067 A 
HETATM   26  N   UNL     1       4.667  32.114  51.928  1.00  0.00    -0.263 NA
HETATM   27  C   UNL     1       4.499  33.434  52.177  1.00  0.00     0.117 A 
HETATM   28  C   UNL     1       3.648  33.928  53.147  1.00  0.00     0.019 A 
HETATM   29  C   UNL     1       2.920  33.021  53.907  1.00  0.00     0.003 A 
HETATM   30  C   UNL     1       3.060  31.655  53.672  1.00  0.00     0.030 A 
ENDBRANCH   1  25
BRANCH   5  31
HETATM   31  C   UNL     1       3.635  28.894  48.701  1.00  0.00     0.168 C 
BRANCH  31  32
HETATM   32  C   UNL     1       2.993  27.511  48.572  1.00  0.00     0.140 C 
HETATM   33  O   UNL     1       2.473  27.301  47.245  1.00  0.00    -0.384 OA
HETATM   34  C   UNL     1       2.593  25.902  46.937  1.00  0.00     0.168 C 
HETATM   35  C   UNL     1       3.247  25.228  48.129  1.00  0.00     0.029 C 
HETATM   36  C   UNL     1       3.972  26.371  48.796  1.00  0.00     0.036 C 
ENDBRANCH  31  32
ENDBRANCH   5  31
TORSDOF 6
ENDMDL
MODEL 7
REMARK VINA RESULT:      -9.0      3.169      6.882
REMARK  6 active torsions:
REMARK  status: ('A' for Active; 'I' for Inactive)
REMARK    1  A    between atoms: C_4  and  C_5 
REMARK    2  A    between atoms: C_5  and  N_6 
REMARK    3  A    between atoms: C_10  and  C_11 
REMARK    4  A    between atoms: C_11  and  C_12 
REMARK    5  A    between atoms: N_21  and  C_22 
REMARK    6  A    between atoms: C_22  and  C_23 
ROOT
HETATM    1  C   UNL     1       6.261  27.576  56.041  1.00  0.00     0.149 C 
HETATM    2  N   UNL     1       6.493  26.832  54.812  1.00  0.00    -0.220 NA
HETATM    3  C   UNL     1       5.735  27.339  53.776  1.00  0.00     0.304 C 
HETATM    4  O   UNL     1       5.878  26.965  52.625  1.00  0.00    -0.253 OA
HETATM    5  N   UNL     1       4.839  28.231  54.267  1.00  0.00    -0.270 N 
HETATM    6  C   UNL     1       5.003  28.363  55.616  1.00  0.00     0.257 C 
HETATM    7  O   UNL     1       4.272  28.975  56.382  1.00  0.00    -0.270 OA
HETATM    8  H   UNL     1       7.460  26.684  54.530  1.00  0.00     0.134 HD
ENDROOT
BRANCH   1   9
HETATM    9  C   UNL     1       5.970  26.660  57.276  1.00  0.00     0.028 C 
HETATM   10  C   UNL     1       7.162  26.442  58.226  1.00  0.00     0.035 C 
HETATM   11  C   UNL     1       8.236  25.531  57.652  1.00  0.00     0.235 C 
HETATM   12  N   UNL     1       7.634  24.190  57.297  1.00  0.00    -0.067 N 
HETATM   13  H   UNL     1       7.339  23.763  58.183  1.00  0.00     0.280 HD
HETATM   14  C   UNL     1       6.427  24.277  56.395  1.00  0.00     0.235 C 
HETATM   15  C   UNL     1       5.400  25.267  56.931  1.00  0.00     0.035 C 
BRANCH  12  16
HETATM   16  C   UNL     1       8.650  23.228  56.687  1.00  0.00     0.274 C 
BRANCH  16  17
HETATM   17  C   UNL     1       8.357  22.822  55.265  1.00  0.00    -0.026 A 
HETATM   18  C   UNL     1       8.309  23.820  54.270  1.00  0.00     0.016 A 
HETATM   19  C   UNL     1       7.990  23.506  52.944  1.00  0.00    -0.061 A 
HETATM   20  C   UNL     1       7.970  24.564  51.879  1.00  0.00     0.048 C 
HETATM   21  C   UNL     1       7.746  22.174  52.603  1.00  0.00     0.007 A 
HETATM   22  C   UNL     1       7.803  21.173  53.572  1.00  0.00     0.008 A 
HETATM   23  C   UNL     1       8.103  21.479  54.907  1.00  0.00    -0.054 A 
HETATM   24  C   UNL     1       8.178  20.345  55.898  1.00  0.00     0.049 C 
ENDBRANCH  16  17
ENDBRANCH  12  16
ENDBRANCH   1   9
BRANCH   1  25
HETATM   25  C   UNL     1       7.463  28.490  56.286  1.00  0.00     0.067 A 
HETATM   26  N   UNL     1       8.416  28.468  55.305  1.00  0.00    -0.263 NA
HETATM   27  C   UNL     1       9.507  29.250  55.475  1.00  0.00     0.117 A 
HETATM   28  C   UNL     1       9.716  30.041  56.588  1.00  0.00     0.019 A 
HETATM   29  C   UNL     1       8.752  30.036  57.589  1.00  0.00     0.003 A 
HETATM   30  C   UNL     1       7.612  29.250  57.444  1.00  0.00     0.030 A 
ENDBRANCH   1  25
BRANCH   5  31
HETATM   31  C   UNL     1       3.844  28.914  53.456  1.00  0.00     0.168 C 
BRANCH  31  32
HETATM   32  C   UNL     1       4.336  30.245  52.881  1.00  0.00     0.140 C 
HETATM   33  O   UNL     1       4.911  30.064  51.574  1.00  0.00    -0.384 OA
HETATM   34  C   UNL     1       4.656  31.254  50.808  1.00  0.00     0.168 C 
HETATM   35  C   UNL     1       3.858  32.198  51.688  1.00  0.00     0.029 C 
HETATM   36  C   UNL     1       3.225  31.261  52.686  1.00  0.00     0.036 C 
ENDBRANCH  31  32
ENDBRANCH   5  31
TORSDOF 6
ENDMDL
MODEL 8
REMARK VINA RESULT:      -8.9      4.017      6.789
REMARK  6 active torsions:
REMARK  status: ('A' for Active; 'I' for Inactive)
REMARK    1  A    between atoms: C_4  and  C_5 
REMARK    2  A    between atoms: C_5  and  N_6 
REMARK    3  A    between atoms: C_10  and  C_11 
REMARK    4  A    between atoms: C_11  and  C_12 
REMARK    5  A    between atoms: N_21  and  C_22 
REMARK    6  A    between atoms: C_22  and  C_23 
ROOT
HETATM    1  C   UNL     1       5.162  29.842  56.171  1.00  0.00     0.149 C 
HETATM    2  N   UNL     1       5.195  30.733  55.022  1.00  0.00    -0.220 NA
HETATM    3  C   UNL     1       4.781  32.004  55.369  1.00  0.00     0.304 C 
HETATM    4  O   UNL     1       4.868  32.945  54.601  1.00  0.00    -0.253 OA
HETATM    5  N   UNL     1       4.257  31.981  56.619  1.00  0.00    -0.270 N 
HETATM    6  C   UNL     1       4.343  30.722  57.140  1.00  0.00     0.257 C 
HETATM    7  O   UNL     1       3.840  30.329  58.183  1.00  0.00    -0.270 OA
HETATM    8  H   UNL     1       6.052  30.756  54.472  1.00  0.00     0.134 HD
ENDROOT
BRANCH   1   9
HETATM    9  C   UNL     1       4.437  28.485  55.884  1.00  0.00     0.028 C 
HETATM   10  C   UNL     1       4.795  27.335  56.843  1.00  0.00     0.035 C 
HETATM   11  C   UNL     1       6.191  26.773  56.622  1.00  0.00     0.235 C 
HETATM   12  N   UNL     1       6.329  26.290  55.195  1.00  0.00    -0.067 N 
HETATM   13  H   UNL     1       5.683  25.499  55.096  1.00  0.00     0.280 HD
HETATM   14  C   UNL     1       5.965  27.325  54.158  1.00  0.00     0.235 C 
HETATM   15  C   UNL     1       4.606  27.950  54.445  1.00  0.00     0.035 C 
BRANCH  12  16
HETATM   16  C   UNL     1       7.717  25.737  54.889  1.00  0.00     0.274 C 
BRANCH  16  17
HETATM   17  C   UNL     1       7.739  24.287  54.473  1.00  0.00    -0.026 A 
HETATM   18  C   UNL     1       7.740  23.294  55.474  1.00  0.00     0.016 A 
HETATM   19  C   UNL     1       7.813  21.935  55.146  1.00  0.00    -0.061 A 
HETATM   20  C   UNL     1       7.782  20.877  56.210  1.00  0.00     0.048 C 
HETATM   21  C   UNL     1       7.855  21.565  53.801  1.00  0.00     0.007 A 
HETATM   22  C   UNL     1       7.841  22.534  52.799  1.00  0.00     0.008 A 
HETATM   23  C   UNL     1       7.787  23.899  53.116  1.00  0.00    -0.054 A 
HETATM   24  C   UNL     1       7.744  24.892  51.983  1.00  0.00     0.049 C 
ENDBRANCH  16  17
ENDBRANCH  12  16
ENDBRANCH   1   9
BRANCH   1  25
HETATM   25  C   UNL     1       6.596  29.625  56.657  1.00  0.00     0.067 A 
HETATM   26  N   UNL     1       7.513  29.397  55.666  1.00  0.00    -0.263 NA
HETATM   27  C   UNL     1       8.797  29.188  56.038  1.00  0.00     0.117 A 
HETATM   28  C   UNL     1       9.219  29.166  57.353  1.00  0.00     0.019 A 
HETATM   29  C   UNL     1       8.274  29.374  58.351  1.00  0.00     0.003 A 
HETATM   30  C   UNL     1       6.944  29.602  58.005  1.00  0.00     0.030 A 
ENDBRANCH   1  25
BRANCH   5  31
HETATM   31  C   UNL     1       3.673  33.139  57.277  1.00  0.00     0.168 C 
BRANCH  31  32
HETATM   32  C   UNL     1       3.745  33.072  58.805  1.00  0.00     0.140 C 
HETATM   33  O   UNL     1       5.085  33.312  59.273  1.00  0.00    -0.384 OA
HETATM   34  C   UNL     1       5.000  33.971  60.548  1.00  0.00     0.168 C 
HETATM   35  C   UNL     1       3.528  34.167  60.860  1.00  0.00     0.029 C 
HETATM   36  C   UNL     1       2.894  34.126  59.492  1.00  0.00     0.036 C 
ENDBRANCH  31  32
ENDBRANCH   5  31
TORSDOF 6
ENDMDL
MODEL 9
REMARK VINA RESULT:      -8.9      2.885      9.026
REMARK  6 active torsions:
REMARK  status: ('A' for Active; 'I' for Inactive)
REMARK    1  A    between atoms: C_4  and  C_5 
REMARK    2  A    between atoms: C_5  and  N_6 
REMARK    3  A    between atoms: C_10  and  C_11 
REMARK    4  A    between atoms: C_11  and  C_12 
REMARK    5  A    between atoms: N_21  and  C_22 
REMARK    6  A    between atoms: C_22  and  C_23 
ROOT
HETATM    1  C   UNL     1       5.342  28.293  54.713  1.00  0.00     0.149 C 
HETATM    2  N   UNL     1       6.664  28.900  54.701  1.00  0.00    -0.220 NA
HETATM    3  C   UNL     1       7.589  28.060  54.115  1.00  0.00     0.304 C 
HETATM    4  O   UNL     1       8.726  28.420  53.867  1.00  0.00    -0.253 OA
HETATM    5  N   UNL     1       7.034  26.836  53.932  1.00  0.00    -0.270 N 
HETATM    6  C   UNL     1       5.734  26.845  54.350  1.00  0.00     0.257 C 
HETATM    7  O   UNL     1       4.996  25.876  54.454  1.00  0.00    -0.270 OA
HETATM    8  H   UNL     1       6.740  29.849  54.340  1.00  0.00     0.134 HD
ENDROOT
BRANCH   1   9
HETATM    9  C   UNL     1       4.640  28.360  56.110  1.00  0.00     0.028 C 
HETATM   10  C   UNL     1       3.948  29.698  56.433  1.00  0.00     0.035 C 
HETATM   11  C   UNL     1       4.921  30.827  56.733  1.00  0.00     0.235 C 
HETATM   12  N   UNL     1       5.814  30.439  57.891  1.00  0.00    -0.067 N 
HETATM   13  H   UNL     1       5.204  30.361  58.712  1.00  0.00     0.280 HD
HETATM   14  C   UNL     1       6.521  29.118  57.706  1.00  0.00     0.235 C 
HETATM   15  C   UNL     1       5.549  28.015  57.310  1.00  0.00     0.035 C 
BRANCH  12  16
HETATM   16  C   UNL     1       6.840  31.516  58.234  1.00  0.00     0.274 C 
BRANCH  16  17
HETATM   17  C   UNL     1       7.379  31.446  59.640  1.00  0.00    -0.026 A 
HETATM   18  C   UNL     1       6.552  31.860  60.705  1.00  0.00     0.016 A 
HETATM   19  C   UNL     1       7.019  31.866  62.025  1.00  0.00    -0.061 A 
HETATM   20  C   UNL     1       6.128  32.275  63.162  1.00  0.00     0.048 C 
HETATM   21  C   UNL     1       8.317  31.425  62.285  1.00  0.00     0.007 A 
HETATM   22  C   UNL     1       9.143  31.000  61.245  1.00  0.00     0.008 A 
HETATM   23  C   UNL     1       8.693  31.007  59.918  1.00  0.00    -0.054 A 
HETATM   24  C   UNL     1       9.626  30.506  58.846  1.00  0.00     0.049 C 
ENDBRANCH  16  17
ENDBRANCH  12  16
ENDBRANCH   1   9
BRANCH   1  25
HETATM   25  C   UNL     1       4.496  28.955  53.624  1.00  0.00     0.067 A 
HETATM   26  N   UNL     1       3.501  28.170  53.108  1.00  0.00    -0.263 NA
HETATM   27  C   UNL     1       2.726  28.700  52.133  1.00  0.00     0.117 A 
HETATM   28  C   UNL     1       2.905  29.971  51.620  1.00  0.00     0.019 A 
HETATM   29  C   UNL     1       3.934  30.749  52.136  1.00  0.00     0.003 A 
HETATM   30  C   UNL     1       4.746  30.240  53.146  1.00  0.00     0.030 A 
ENDBRANCH   1  25
BRANCH   5  31
HETATM   31  C   UNL     1       7.749  25.693  53.388  1.00  0.00     0.168 C 
BRANCH  31  32
HETATM   32  C   UNL     1       7.643  24.438  54.260  1.00  0.00     0.140 C 
HETATM   33  O   UNL     1       8.396  23.349  53.695  1.00  0.00    -0.384 OA
HETATM   34  C   UNL     1       8.896  22.546  54.778  1.00  0.00     0.168 C 
HETATM   35  C   UNL     1       8.445  23.197  56.072  1.00  0.00     0.029 C 
HETATM   36  C   UNL     1       8.210  24.628  55.656  1.00  0.00     0.036 C 
ENDBRANCH  31  32
ENDBRANCH   5  31
TORSDOF 6
ENDMDL
MODEL 10
REMARK VINA RESULT:      -8.8      2.017      8.152
REMARK  6 active torsions:
REMARK  status: ('A' for Active; 'I' for Inactive)
REMARK    1  A    between atoms: C_4  and  C_5 
REMARK    2  A    between atoms: C_5  and  N_6 
REMARK    3  A    between atoms: C_10  and  C_11 
REMARK    4  A    between atoms: C_11  and  C_12 
REMARK    5  A    between atoms: N_21  and  C_22 
REMARK    6  A    between atoms: C_22  and  C_23 
ROOT
HETATM    1  C   UNL     1       6.818  26.621  54.784  1.00  0.00     0.149 C 
HETATM    2  N   UNL     1       5.372  26.737  54.891  1.00  0.00    -0.220 NA
HETATM    3  C   UNL     1       4.861  27.518  53.874  1.00  0.00     0.304 C 
HETATM    4  O   UNL     1       3.663  27.630  53.683  1.00  0.00    -0.253 OA
HETATM    5  N   UNL     1       5.880  28.124  53.216  1.00  0.00    -0.270 N 
HETATM    6  C   UNL     1       7.076  27.735  53.749  1.00  0.00     0.257 C 
HETATM    7  O   UNL     1       8.177  28.199  53.483  1.00  0.00    -0.270 OA
HETATM    8  H   UNL     1       4.841  25.875  55.003  1.00  0.00     0.134 HD
ENDROOT
BRANCH   1   9
HETATM    9  C   UNL     1       7.565  26.909  56.129  1.00  0.00     0.028 C 
HETATM   10  C   UNL     1       6.665  26.970  57.378  1.00  0.00     0.035 C 
HETATM   11  C   UNL     1       5.808  28.224  57.446  1.00  0.00     0.235 C 
HETATM   12  N   UNL     1       6.692  29.451  57.410  1.00  0.00    -0.067 N 
HETATM   13  H   UNL     1       7.243  29.434  58.275  1.00  0.00     0.280 HD
HETATM   14  C   UNL     1       7.650  29.485  56.245  1.00  0.00     0.235 C 
HETATM   15  C   UNL     1       8.434  28.185  56.128  1.00  0.00     0.035 C 
BRANCH  12  16
HETATM   16  C   UNL     1       5.897  30.754  57.447  1.00  0.00     0.274 C 
BRANCH  16  17
HETATM   17  C   UNL     1       6.084  31.570  58.702  1.00  0.00    -0.026 A 
HETATM   18  C   UNL     1       7.309  31.478  59.395  1.00  0.00     0.016 A 
HETATM   19  C   UNL     1       7.517  32.173  60.592  1.00  0.00    -0.061 A 
HETATM   20  C   UNL     1       8.832  32.099  61.313  1.00  0.00     0.048 C 
HETATM   21  C   UNL     1       6.501  32.992  61.085  1.00  0.00     0.007 A 
HETATM   22  C   UNL     1       5.289  33.105  60.405  1.00  0.00     0.008 A 
HETATM   23  C   UNL     1       5.062  32.399  59.214  1.00  0.00    -0.054 A 
HETATM   24  C   UNL     1       3.741  32.591  58.513  1.00  0.00     0.049 C 
ENDBRANCH  16  17
ENDBRANCH  12  16
ENDBRANCH   1   9
BRANCH   1  25
HETATM   25  C   UNL     1       7.153  25.232  54.238  1.00  0.00     0.067 A 
HETATM   26  N   UNL     1       6.973  24.204  55.123  1.00  0.00    -0.263 NA
HETATM   27  C   UNL     1       7.264  22.953  54.696  1.00  0.00     0.117 A 
HETATM   28  C   UNL     1       7.753  22.668  53.436  1.00  0.00     0.019 A 
HETATM   29  C   UNL     1       7.955  23.723  52.555  1.00  0.00     0.003 A 
HETATM   30  C   UNL     1       7.658  25.024  52.956  1.00  0.00     0.030 A 
ENDBRANCH   1  25
BRANCH   5  31
HETATM   31  C   UNL     1       5.697  29.064  52.123  1.00  0.00     0.168 C 
BRANCH  31  32
HETATM   32  C   UNL     1       5.448  28.387  50.772  1.00  0.00     0.140 C 
HETATM   33  O   UNL     1       5.677  26.968  50.853  1.00  0.00    -0.384 OA
HETATM   34  C   UNL     1       4.777  26.320  49.938  1.00  0.00     0.168 C 
HETATM   35  C   UNL     1       3.936  27.402  49.285  1.00  0.00     0.029 C 
HETATM   36  C   UNL     1       4.017  28.529  50.285  1.00  0.00     0.036 C 
ENDBRANCH  31  32
ENDBRANCH   5  31
TORSDOF 6
ENDMDL
