MODEL 1
REMARK VINA RESULT:      -9.6      0.000      0.000
REMARK  6 active torsions:
REMARK  status: ('A' for Active; 'I' for Inactive)
REMARK    1  A    between atoms: C_2  and  C_3 
REMARK    2  A    between atoms: C_7  and  O_8 
REMARK    3  A    between atoms: O_8  and  C_9 
REMARK    4  A    between atoms: C_9  and  C_10 
REMARK       I    between atoms: C_10  and  N_11 
REMARK    5  A    between atoms: N_11  and  N_12 
REMARK    6  A    between atoms: C_13  and  C_14 
ROOT
HETATM    1  C   UNL     1       7.233  27.919  55.770  1.00  0.00     0.261 C 
HETATM    2  N   UNL     1       7.918  27.954  56.974  1.00  0.00    -0.246 N 
HETATM    3  O   UNL     1       7.640  28.382  54.705  1.00  0.00    -0.269 OA
HETATM    4  H   UNL     1       7.470  27.598  57.812  1.00  0.00     0.192 HD
ENDROOT
BRANCH   1   5
HETATM    5  C   UNL     1       5.841  27.306  55.884  1.00  0.00     0.280 C 
BRANCH   5   6
HETATM    6  O   UNL     1       5.517  26.506  54.747  1.00  0.00    -0.341 OA
BRANCH   6   7
HETATM    7  C   UNL     1       6.135  25.281  54.716  1.00  0.00     0.086 A 
HETATM    8  C   UNL     1       6.507  24.758  53.474  1.00  0.00     0.044 A 
HETATM    9  C   UNL     1       7.157  23.518  53.388  1.00  0.00     0.029 A 
HETATM   10 BR   UNL     1       6.134  25.686  51.859  1.00  0.00    -0.048 Br
HETATM   11  C   UNL     1       7.477  22.774  54.540  1.00  0.00    -0.049 A 
HETATM   12  C   UNL     1       7.111  23.324  55.778  1.00  0.00     0.011 A 
HETATM   13  C   UNL     1       6.455  24.561  55.867  1.00  0.00     0.039 A 
BRANCH  11  14
HETATM   14  C   UNL     1       8.199  21.419  54.415  1.00  0.00    -0.024 C 
HETATM   15  C   UNL     1       7.772  20.486  55.569  1.00  0.00     0.019 C 
HETATM   16  C   UNL     1       9.724  21.642  54.480  1.00  0.00     0.019 C 
HETATM   17  C   UNL     1       7.898  20.671  53.095  1.00  0.00     0.019 C 
ENDBRANCH  11  14
ENDBRANCH   6   7
ENDBRANCH   5   6
ENDBRANCH   1   5
BRANCH   2  18
HETATM   18  N   UNL     1       9.124  28.578  57.049  1.00  0.00    -0.184 NA
HETATM   19  C   UNL     1       9.245  29.721  57.654  1.00  0.00     0.152 C 
BRANCH  19  20
HETATM   20  C   UNL     1       8.237  30.456  58.394  1.00  0.00     0.011 A 
HETATM   21  C   UNL     1       8.399  31.000  59.712  1.00  0.00     0.004 A 
HETATM   22  C   UNL     1       7.184  31.575  60.085  1.00  0.00     0.043 A 
HETATM   23  C   UNL     1       9.474  31.057  60.625  1.00  0.00     0.014 A 
HETATM   24  C   UNL     1       6.989  32.201  61.322  1.00  0.00     0.030 A 
HETATM   25  N   UNL     1       6.308  31.381  59.042  1.00  0.00    -0.364 N 
HETATM   26  C   UNL     1       8.070  32.240  62.208  1.00  0.00     0.002 A 
HETATM   27  C   UNL     1       9.296  31.678  61.867  1.00  0.00     0.001 A 
HETATM   28  H   UNL     1       5.342  31.678  59.043  1.00  0.00     0.165 HD
HETATM   29  C   UNL     1       6.923  30.690  58.032  1.00  0.00     0.102 A 
ENDBRANCH  19  20
ENDBRANCH   2  18
TORSDOF 6
ENDMDL
MODEL 2
REMARK VINA RESULT:      -9.5      1.348      2.016
REMARK  6 active torsions:
REMARK  status: ('A' for Active; 'I' for Inactive)
REMARK    1  A    between atoms: C_2  and  C_3 
REMARK    2  A    between atoms: C_7  and  O_8 
REMARK    3  A    between atoms: O_8  and  C_9 
REMARK    4  A    between atoms: C_9  and  C_10 
REMARK       I    between atoms: C_10  and  N_11 
REMARK    5  A    between atoms: N_11  and  N_12 
REMARK    6  A    between atoms: C_13  and  C_14 
ROOT
HETATM    1  C   UNL     1       5.246  28.802  56.556  1.00  0.00     0.261 C 
HETATM    2  N   UNL     1       4.893  29.417  57.746  1.00  0.00    -0.246 N 
HETATM    3  O   UNL     1       5.410  29.373  55.479  1.00  0.00    -0.269 OA
HETATM    4  H   UNL     1       4.722  28.849  58.569  1.00  0.00     0.192 HD
ENDROOT
BRANCH   1   5
HETATM    5  C   UNL     1       5.344  27.283  56.666  1.00  0.00     0.280 C 
BRANCH   5   6
HETATM    6  O   UNL     1       5.200  26.647  55.397  1.00  0.00    -0.341 OA
BRANCH   6   7
HETATM    7  C   UNL     1       5.888  25.466  55.268  1.00  0.00     0.086 A 
HETATM    8  C   UNL     1       5.983  24.890  53.998  1.00  0.00     0.044 A 
HETATM    9  C   UNL     1       6.689  23.693  53.809  1.00  0.00     0.029 A 
HETATM   10 BR   UNL     1       5.149  25.684  52.487  1.00  0.00    -0.048 Br
HETATM   11  C   UNL     1       7.343  23.048  54.877  1.00  0.00    -0.049 A 
HETATM   12  C   UNL     1       7.251  23.652  56.140  1.00  0.00     0.011 A 
HETATM   13  C   UNL     1       6.539  24.845  56.333  1.00  0.00     0.039 A 
BRANCH  11  14
HETATM   14  C   UNL     1       8.118  21.740  54.637  1.00  0.00    -0.024 C 
HETATM   15  C   UNL     1       7.685  20.674  55.667  1.00  0.00     0.019 C 
HETATM   16  C   UNL     1       9.631  22.004  54.786  1.00  0.00     0.019 C 
HETATM   17  C   UNL     1       7.893  21.129  53.234  1.00  0.00     0.019 C 
ENDBRANCH  11  14
ENDBRANCH   6   7
ENDBRANCH   5   6
ENDBRANCH   1   5
BRANCH   2  18
HETATM   18  N   UNL     1       4.654  30.756  57.771  1.00  0.00    -0.184 NA
HETATM   19  C   UNL     1       5.492  31.571  58.336  1.00  0.00     0.152 C 
BRANCH  19  20
HETATM   20  C   UNL     1       6.787  31.267  58.917  1.00  0.00     0.011 A 
HETATM   21  C   UNL     1       7.222  31.648  60.230  1.00  0.00     0.004 A 
HETATM   22  C   UNL     1       8.542  31.219  60.379  1.00  0.00     0.043 A 
HETATM   23  C   UNL     1       6.611  32.319  61.312  1.00  0.00     0.014 A 
HETATM   24  C   UNL     1       9.280  31.430  61.550  1.00  0.00     0.030 A 
HETATM   25  N   UNL     1       8.904  30.612  59.200  1.00  0.00    -0.364 N 
HETATM   26  C   UNL     1       8.651  32.099  62.604  1.00  0.00     0.002 A 
HETATM   27  C   UNL     1       7.335  32.538  62.489  1.00  0.00     0.001 A 
HETATM   28  H   UNL     1       9.819  30.222  59.014  1.00  0.00     0.165 HD
HETATM   29  C   UNL     1       7.866  30.656  58.307  1.00  0.00     0.102 A 
ENDBRANCH  19  20
ENDBRANCH   2  18
TORSDOF 6
ENDMDL
MODEL 3
REMARK VINA RESULT:      -9.4      2.356      9.751
REMARK  6 active torsions:
REMARK  status: ('A' for Active; 'I' for Inactive)
REMARK    1  A    between atoms: C_2  and  C_3 
REMARK    2  A    between atoms: C_7  and  O_8 
REMARK    3  A    between atoms: O_8  and  C_9 
REMARK    4  A    between atoms: C_9  and  C_10 
REMARK       I    between atoms: C_10  and  N_11 
REMARK    5  A    between atoms: N_11  and  N_12 
REMARK    6  A    between atoms: C_13  and  C_14 
ROOT
HETATM    1  C   UNL     1       7.040  27.913  56.956  1.00  0.00     0.261 C 
HETATM    2  N   UNL     1       7.370  27.290  55.763  1.00  0.00    -0.246 N 
HETATM    3  O   UNL     1       5.904  28.009  57.419  1.00  0.00    -0.269 OA
HETATM    4  H   UNL     1       8.330  27.318  55.436  1.00  0.00     0.192 HD
ENDROOT
BRANCH   1   5
HETATM    5  C   UNL     1       8.231  28.573  57.644  1.00  0.00     0.280 C 
BRANCH   5   6
HETATM    6  O   UNL     1       8.172  29.997  57.560  1.00  0.00    -0.341 OA
BRANCH   6   7
HETATM    7  C   UNL     1       7.897  30.629  58.747  1.00  0.00     0.086 A 
HETATM    8  C   UNL     1       6.747  31.420  58.825  1.00  0.00     0.044 A 
HETATM    9  C   UNL     1       6.411  32.074  60.019  1.00  0.00     0.029 A 
HETATM   10 BR   UNL     1       5.608  31.660  57.324  1.00  0.00    -0.048 Br
HETATM   11  C   UNL     1       7.199  31.938  61.179  1.00  0.00    -0.049 A 
HETATM   12  C   UNL     1       8.339  31.126  61.085  1.00  0.00     0.011 A 
HETATM   13  C   UNL     1       8.682  30.477  59.890  1.00  0.00     0.039 A 
BRANCH  11  14
HETATM   14  C   UNL     1       6.800  32.661  62.479  1.00  0.00    -0.024 C 
HETATM   15  C   UNL     1       7.962  32.598  63.495  1.00  0.00     0.019 C 
HETATM   16  C   UNL     1       5.557  31.978  63.086  1.00  0.00     0.019 C 
HETATM   17  C   UNL     1       6.455  34.156  62.281  1.00  0.00     0.019 C 
ENDBRANCH  11  14
ENDBRANCH   6   7
ENDBRANCH   5   6
ENDBRANCH   1   5
BRANCH   2  18
HETATM   18  N   UNL     1       6.391  26.760  54.982  1.00  0.00    -0.184 NA
HETATM   19  C   UNL     1       6.309  25.478  54.796  1.00  0.00     0.152 C 
BRANCH  19  20
HETATM   20  C   UNL     1       7.108  24.430  55.404  1.00  0.00     0.011 A 
HETATM   21  C   UNL     1       7.588  23.253  54.737  1.00  0.00     0.004 A 
HETATM   22  C   UNL     1       8.258  22.475  55.682  1.00  0.00     0.043 A 
HETATM   23  C   UNL     1       7.515  22.778  53.410  1.00  0.00     0.014 A 
HETATM   24  C   UNL     1       8.855  21.248  55.369  1.00  0.00     0.030 A 
HETATM   25  N   UNL     1       8.181  23.142  56.882  1.00  0.00    -0.364 N 
HETATM   26  C   UNL     1       8.765  20.801  54.047  1.00  0.00     0.002 A 
HETATM   27  C   UNL     1       8.106  21.552  53.079  1.00  0.00     0.001 A 
HETATM   28  H   UNL     1       8.564  22.801  57.753  1.00  0.00     0.165 HD
HETATM   29  C   UNL     1       7.472  24.305  56.732  1.00  0.00     0.102 A 
ENDBRANCH  19  20
ENDBRANCH   2  18
TORSDOF 6
ENDMDL
MODEL 4
REMARK VINA RESULT:      -9.2      2.467      9.387
REMARK  6 active torsions:
REMARK  status: ('A' for Active; 'I' for Inactive)
REMARK    1  A    between atoms: C_2  and  C_3 
REMARK    2  A    between atoms: C_7  and  O_8 
REMARK    3  A    between atoms: O_8  and  C_9 
REMARK    4  A    between atoms: C_9  and  C_10 
REMARK       I    between atoms: C_10  and  N_11 
REMARK    5  A    between atoms: N_11  and  N_12 
REMARK    6  A    between atoms: C_13  and  C_14 
ROOT
HETATM    1  C   UNL     1       6.989  27.734  54.578  1.00  0.00     0.261 C 
HETATM    2  N   UNL     1       6.090  26.693  54.407  1.00  0.00    -0.246 N 
HETATM    3  O   UNL     1       7.768  28.151  53.722  1.00  0.00    -0.269 OA
HETATM    4  H   UNL     1       5.531  26.383  55.195  1.00  0.00     0.192 HD
ENDROOT
BRANCH   1   5
HETATM    5  C   UNL     1       6.999  28.297  55.996  1.00  0.00     0.280 C 
BRANCH   5   6
HETATM    6  O   UNL     1       7.617  29.582  56.053  1.00  0.00    -0.341 OA
BRANCH   6   7
HETATM    7  C   UNL     1       7.787  30.079  57.322  1.00  0.00     0.086 A 
HETATM    8  C   UNL     1       9.082  30.131  57.846  1.00  0.00     0.044 A 
HETATM    9  C   UNL     1       9.311  30.645  59.130  1.00  0.00     0.029 A 
HETATM   10 BR   UNL     1      10.574  29.493  56.858  1.00  0.00    -0.048 Br
HETATM   11  C   UNL     1       8.259  31.146  59.921  1.00  0.00    -0.049 A 
HETATM   12  C   UNL     1       6.969  31.101  59.371  1.00  0.00     0.011 A 
HETATM   13  C   UNL     1       6.736  30.581  58.089  1.00  0.00     0.039 A 
BRANCH  11  14
HETATM   14  C   UNL     1       8.543  31.712  61.324  1.00  0.00    -0.024 C 
HETATM   15  C   UNL     1       7.647  32.942  61.587  1.00  0.00     0.019 C 
HETATM   16  C   UNL     1      10.024  32.134  61.418  1.00  0.00     0.019 C 
HETATM   17  C   UNL     1       8.276  30.707  62.469  1.00  0.00     0.019 C 
ENDBRANCH  11  14
ENDBRANCH   6   7
ENDBRANCH   5   6
ENDBRANCH   1   5
BRANCH   2  18
HETATM   18  N   UNL     1       6.055  26.016  53.228  1.00  0.00    -0.184 NA
HETATM   19  C   UNL     1       6.499  24.799  53.147  1.00  0.00     0.152 C 
BRANCH  19  20
HETATM   20  C   UNL     1       6.988  23.948  54.216  1.00  0.00     0.011 A 
HETATM   21  C   UNL     1       7.552  22.639  54.051  1.00  0.00     0.004 A 
HETATM   22  C   UNL     1       7.839  22.138  55.321  1.00  0.00     0.043 A 
HETATM   23  C   UNL     1       7.848  21.832  52.930  1.00  0.00     0.014 A 
HETATM   24  C   UNL     1       8.402  20.873  55.528  1.00  0.00     0.030 A 
HETATM   25  N   UNL     1       7.455  23.097  56.229  1.00  0.00    -0.364 N 
HETATM   26  C   UNL     1       8.682  20.094  54.401  1.00  0.00     0.002 A 
HETATM   27  C   UNL     1       8.410  20.564  53.120  1.00  0.00     0.001 A 
HETATM   28  H   UNL     1       7.527  22.996  57.233  1.00  0.00     0.165 HD
HETATM   29  C   UNL     1       6.921  24.178  55.578  1.00  0.00     0.102 A 
ENDBRANCH  19  20
ENDBRANCH   2  18
TORSDOF 6
ENDMDL
MODEL 5
REMARK VINA RESULT:      -9.2      5.187      8.368
REMARK  6 active torsions:
REMARK  status: ('A' for Active; 'I' for Inactive)
REMARK    1  A    between atoms: C_2  and  C_3 
REMARK    2  A    between atoms: C_7  and  O_8 
REMARK    3  A    between atoms: O_8  and  C_9 
REMARK    4  A    between atoms: C_9  and  C_10 
REMARK       I    between atoms: C_10  and  N_11 
REMARK    5  A    between atoms: N_11  and  N_12 
REMARK    6  A    between atoms: C_13  and  C_14 
ROOT
HETATM    1  C   UNL     1       4.383  28.336  53.938  1.00  0.00     0.261 C 
HETATM    2  N   UNL     1       3.408  28.193  52.963  1.00  0.00    -0.246 N 
HETATM    3  O   UNL     1       4.874  29.404  54.303  1.00  0.00    -0.269 OA
HETATM    4  H   UNL     1       3.111  27.262  52.689  1.00  0.00     0.192 HD
ENDROOT
BRANCH   1   5
HETATM    5  C   UNL     1       4.884  27.006  54.493  1.00  0.00     0.280 C 
BRANCH   5   6
HETATM    6  O   UNL     1       6.302  26.888  54.392  1.00  0.00    -0.341 OA
BRANCH   6   7
HETATM    7  C   UNL     1       6.767  25.597  54.347  1.00  0.00     0.086 A 
HETATM    8  C   UNL     1       7.266  25.030  55.523  1.00  0.00     0.044 A 
HETATM    9  C   UNL     1       7.737  23.710  55.535  1.00  0.00     0.029 A 
HETATM   10 BR   UNL     1       7.347  26.022  57.140  1.00  0.00    -0.048 Br
HETATM   11  C   UNL     1       7.701  22.906  54.378  1.00  0.00    -0.049 A 
HETATM   12  C   UNL     1       7.180  23.486  53.212  1.00  0.00     0.011 A 
HETATM   13  C   UNL     1       6.715  24.810  53.196  1.00  0.00     0.039 A 
BRANCH  11  14
HETATM   14  C   UNL     1       8.217  21.455  54.424  1.00  0.00    -0.024 C 
HETATM   15  C   UNL     1       7.590  20.711  55.623  1.00  0.00     0.019 C 
HETATM   16  C   UNL     1       9.752  21.461  54.576  1.00  0.00     0.019 C 
HETATM   17  C   UNL     1       7.882  20.633  53.158  1.00  0.00     0.019 C 
ENDBRANCH  11  14
ENDBRANCH   6   7
ENDBRANCH   5   6
ENDBRANCH   1   5
BRANCH   2  18
HETATM   18  N   UNL     1       2.952  29.286  52.296  1.00  0.00    -0.184 NA
HETATM   19  C   UNL     1       3.197  29.443  51.031  1.00  0.00     0.152 C 
BRANCH  19  20
HETATM   20  C   UNL     1       3.860  28.525  50.124  1.00  0.00     0.011 A 
HETATM   21  C   UNL     1       3.217  27.747  49.104  1.00  0.00     0.004 A 
HETATM   22  C   UNL     1       4.191  26.954  48.498  1.00  0.00     0.043 A 
HETATM   23  C   UNL     1       1.888  27.649  48.636  1.00  0.00     0.014 A 
HETATM   24  C   UNL     1       3.905  26.066  47.454  1.00  0.00     0.030 A 
HETATM   25  N   UNL     1       5.382  27.224  49.131  1.00  0.00    -0.364 N 
HETATM   26  C   UNL     1       2.581  25.986  47.013  1.00  0.00     0.002 A 
HETATM   27  C   UNL     1       1.585  26.765  47.594  1.00  0.00     0.001 A 
HETATM   28  H   UNL     1       6.262  26.775  48.912  1.00  0.00     0.165 HD
HETATM   29  C   UNL     1       5.191  28.148  50.124  1.00  0.00     0.102 A 
ENDBRANCH  19  20
ENDBRANCH   2  18
TORSDOF 6
ENDMDL
MODEL 6
REMARK VINA RESULT:      -9.0      2.006      2.942
REMARK  6 active torsions:
REMARK  status: ('A' for Active; 'I' for Inactive)
REMARK    1  A    between atoms: C_2  and  C_3 
REMARK    2  A    between atoms: C_7  and  O_8 
REMARK    3  A    between atoms: O_8  and  C_9 
REMARK    4  A    between atoms: C_9  and  C_10 
REMARK       I    between atoms: C_10  and  N_11 
REMARK    5  A    between atoms: N_11  and  N_12 
REMARK    6  A    between atoms: C_13  and  C_14 
ROOT
HETATM    1  C   UNL     1       5.889  29.806  57.187  1.00  0.00     0.261 C 
HETATM    2  N   UNL     1       5.190  30.339  58.259  1.00  0.00    -0.246 N 
HETATM    3  O   UNL     1       6.152  30.399  56.141  1.00  0.00    -0.269 OA
HETATM    4  H   UNL     1       4.971  29.748  59.053  1.00  0.00     0.192 HD
ENDROOT
BRANCH   1   5
HETATM    5  C   UNL     1       6.255  28.337  57.374  1.00  0.00     0.280 C 
BRANCH   5   6
HETATM    6  O   UNL     1       7.528  28.029  56.806  1.00  0.00    -0.341 OA
BRANCH   6   7
HETATM    7  C   UNL     1       7.663  26.733  56.375  1.00  0.00     0.086 A 
HETATM    8  C   UNL     1       7.474  26.462  55.017  1.00  0.00     0.044 A 
HETATM    9  C   UNL     1       7.617  25.158  54.523  1.00  0.00     0.029 A 
HETATM   10 BR   UNL     1       6.997  27.834  53.793  1.00  0.00    -0.048 Br
HETATM   11  C   UNL     1       7.978  24.088  55.365  1.00  0.00    -0.049 A 
HETATM   12  C   UNL     1       8.181  24.382  56.721  1.00  0.00     0.011 A 
HETATM   13  C   UNL     1       8.031  25.685  57.220  1.00  0.00     0.039 A 
BRANCH  11  14
HETATM   14  C   UNL     1       8.137  22.667  54.792  1.00  0.00    -0.024 C 
HETATM   15  C   UNL     1       9.631  22.278  54.755  1.00  0.00     0.019 C 
HETATM   16  C   UNL     1       7.566  22.624  53.359  1.00  0.00     0.019 C 
HETATM   17  C   UNL     1       7.407  21.578  55.612  1.00  0.00     0.019 C 
ENDBRANCH  11  14
ENDBRANCH   6   7
ENDBRANCH   5   6
ENDBRANCH   1   5
BRANCH   2  18
HETATM   18  N   UNL     1       4.696  31.603  58.183  1.00  0.00    -0.184 NA
HETATM   19  C   UNL     1       4.794  32.417  59.189  1.00  0.00     0.152 C 
BRANCH  19  20
HETATM   20  C   UNL     1       5.475  32.205  60.453  1.00  0.00     0.011 A 
HETATM   21  C   UNL     1       6.895  32.106  60.630  1.00  0.00     0.004 A 
HETATM   22  C   UNL     1       7.136  31.843  61.979  1.00  0.00     0.043 A 
HETATM   23  C   UNL     1       8.003  32.221  59.762  1.00  0.00     0.014 A 
HETATM   24  C   UNL     1       8.426  31.684  62.502  1.00  0.00     0.030 A 
HETATM   25  N   UNL     1       5.912  31.770  62.601  1.00  0.00    -0.364 N 
HETATM   26  C   UNL     1       9.504  31.800  61.620  1.00  0.00     0.002 A 
HETATM   27  C   UNL     1       9.299  32.065  60.269  1.00  0.00     0.001 A 
HETATM   28  H   UNL     1       5.780  31.568  63.583  1.00  0.00     0.165 HD
HETATM   29  C   UNL     1       4.907  31.962  61.690  1.00  0.00     0.102 A 
ENDBRANCH  19  20
ENDBRANCH   2  18
TORSDOF 6
ENDMDL
MODEL 7
REMARK VINA RESULT:      -8.7      2.409      4.086
REMARK  6 active torsions:
REMARK  status: ('A' for Active; 'I' for Inactive)
REMARK    1  A    between atoms: C_2  and  C_3 
REMARK    2  A    between atoms: C_7  and  O_8 
REMARK    3  A    between atoms: O_8  and  C_9 
REMARK    4  A    between atoms: C_9  and  C_10 
REMARK       I    between atoms: C_10  and  N_11 
REMARK    5  A    between atoms: N_11  and  N_12 
REMARK    6  A    between atoms: C_13  and  C_14 
ROOT
HETATM    1  C   UNL     1       8.169  30.177  58.646  1.00  0.00     0.261 C 
HETATM    2  N   UNL     1       8.096  30.224  60.029  1.00  0.00    -0.246 N 
HETATM    3  O   UNL     1       9.097  30.613  57.966  1.00  0.00    -0.269 OA
HETATM    4  H   UNL     1       7.258  29.892  60.495  1.00  0.00     0.192 HD
ENDROOT
BRANCH   1   5
HETATM    5  C   UNL     1       6.921  29.590  57.994  1.00  0.00     0.280 C 
BRANCH   5   6
HETATM    6  O   UNL     1       6.921  29.776  56.579  1.00  0.00    -0.341 OA
BRANCH   6   7
HETATM    7  C   UNL     1       6.831  28.617  55.850  1.00  0.00     0.086 A 
HETATM    8  C   UNL     1       5.698  28.419  55.057  1.00  0.00     0.044 A 
HETATM    9  C   UNL     1       5.564  27.260  54.279  1.00  0.00     0.029 A 
HETATM   10 BR   UNL     1       4.287  29.691  55.013  1.00  0.00    -0.048 Br
HETATM   11  C   UNL     1       6.570  26.275  54.250  1.00  0.00    -0.049 A 
HETATM   12  C   UNL     1       7.709  26.500  55.039  1.00  0.00     0.011 A 
HETATM   13  C   UNL     1       7.841  27.655  55.823  1.00  0.00     0.039 A 
BRANCH  11  14
HETATM   14  C   UNL     1       6.400  25.016  53.379  1.00  0.00    -0.024 C 
HETATM   15  C   UNL     1       4.935  24.898  52.904  1.00  0.00     0.019 C 
HETATM   16  C   UNL     1       6.767  23.766  54.205  1.00  0.00     0.019 C 
HETATM   17  C   UNL     1       7.287  25.008  52.112  1.00  0.00     0.019 C 
ENDBRANCH  11  14
ENDBRANCH   6   7
ENDBRANCH   5   6
ENDBRANCH   1   5
BRANCH   2  18
HETATM   18  N   UNL     1       9.085  30.830  60.739  1.00  0.00    -0.184 NA
HETATM   19  C   UNL     1       8.833  31.864  61.482  1.00  0.00     0.152 C 
BRANCH  19  20
HETATM   20  C   UNL     1       7.548  32.475  61.765  1.00  0.00     0.011 A 
HETATM   21  C   UNL     1       7.124  32.977  63.041  1.00  0.00     0.004 A 
HETATM   22  C   UNL     1       5.810  33.424  62.904  1.00  0.00     0.043 A 
HETATM   23  C   UNL     1       7.743  33.095  64.304  1.00  0.00     0.014 A 
HETATM   24  C   UNL     1       5.083  33.979  63.965  1.00  0.00     0.030 A 
HETATM   25  N   UNL     1       5.438  33.194  61.600  1.00  0.00    -0.364 N 
HETATM   26  C   UNL     1       5.719  34.080  65.206  1.00  0.00     0.002 A 
HETATM   27  C   UNL     1       7.030  33.646  65.376  1.00  0.00     0.001 A 
HETATM   28  H   UNL     1       4.525  33.402  61.220  1.00  0.00     0.165 HD
HETATM   29  C   UNL     1       6.465  32.603  60.914  1.00  0.00     0.102 A 
ENDBRANCH  19  20
ENDBRANCH   2  18
TORSDOF 6
ENDMDL
MODEL 8
REMARK VINA RESULT:      -8.6      2.731      4.201
REMARK  6 active torsions:
REMARK  status: ('A' for Active; 'I' for Inactive)
REMARK    1  A    between atoms: C_2  and  C_3 
REMARK    2  A    between atoms: C_7  and  O_8 
REMARK    3  A    between atoms: O_8  and  C_9 
REMARK    4  A    between atoms: C_9  and  C_10 
REMARK       I    between atoms: C_10  and  N_11 
REMARK    5  A    between atoms: N_11  and  N_12 
REMARK    6  A    between atoms: C_13  and  C_14 
ROOT
HETATM    1  C   UNL     1       4.383  31.031  57.865  1.00  0.00     0.261 C 
HETATM    2  N   UNL     1       5.388  31.981  57.964  1.00  0.00    -0.246 N 
HETATM    3  O   UNL     1       3.192  31.226  58.107  1.00  0.00    -0.269 OA
HETATM    4  H   UNL     1       6.351  31.705  57.802  1.00  0.00     0.192 HD
ENDROOT
BRANCH   1   5
HETATM    5  C   UNL     1       4.896  29.643  57.496  1.00  0.00     0.280 C 
BRANCH   5   6
HETATM    6  O   UNL     1       5.980  29.705  56.569  1.00  0.00    -0.341 OA
BRANCH   6   7
HETATM    7  C   UNL     1       6.105  28.601  55.762  1.00  0.00     0.086 A 
HETATM    8  C   UNL     1       7.254  27.815  55.889  1.00  0.00     0.044 A 
HETATM    9  C   UNL     1       7.424  26.668  55.101  1.00  0.00     0.029 A 
HETATM   10 BR   UNL     1       8.635  28.272  57.110  1.00  0.00    -0.048 Br
HETATM   11  C   UNL     1       6.441  26.257  54.179  1.00  0.00    -0.049 A 
HETATM   12  C   UNL     1       5.287  27.049  54.079  1.00  0.00     0.011 A 
HETATM   13  C   UNL     1       5.118  28.202  54.861  1.00  0.00     0.039 A 
BRANCH  11  14
HETATM   14  C   UNL     1       6.651  24.987  53.333  1.00  0.00    -0.024 C 
HETATM   15  C   UNL     1       7.892  25.156  52.429  1.00  0.00     0.019 C 
HETATM   16  C   UNL     1       5.409  24.747  52.450  1.00  0.00     0.019 C 
HETATM   17  C   UNL     1       6.875  23.708  54.172  1.00  0.00     0.019 C 
ENDBRANCH  11  14
ENDBRANCH   6   7
ENDBRANCH   5   6
ENDBRANCH   1   5
BRANCH   2  18
HETATM   18  N   UNL     1       5.094  33.235  58.399  1.00  0.00    -0.184 NA
HETATM   19  C   UNL     1       5.213  33.548  59.653  1.00  0.00     0.152 C 
BRANCH  19  20
HETATM   20  C   UNL     1       5.731  32.734  60.737  1.00  0.00     0.011 A 
HETATM   21  C   UNL     1       7.099  32.332  60.899  1.00  0.00     0.004 A 
HETATM   22  C   UNL     1       7.168  31.513  62.027  1.00  0.00     0.043 A 
HETATM   23  C   UNL     1       8.291  32.594  60.188  1.00  0.00     0.014 A 
HETATM   24  C   UNL     1       8.365  30.940  62.476  1.00  0.00     0.030 A 
HETATM   25  N   UNL     1       5.892  31.407  62.528  1.00  0.00    -0.364 N 
HETATM   26  C   UNL     1       9.528  31.213  61.751  1.00  0.00     0.002 A 
HETATM   27  C   UNL     1       9.495  32.028  60.624  1.00  0.00     0.001 A 
HETATM   28  H   UNL     1       5.638  30.854  63.336  1.00  0.00     0.165 HD
HETATM   29  C   UNL     1       5.018  32.117  61.748  1.00  0.00     0.102 A 
ENDBRANCH  19  20
ENDBRANCH   2  18
TORSDOF 6
ENDMDL
MODEL 9
REMARK VINA RESULT:      -8.5      4.189      8.215
REMARK  6 active torsions:
REMARK  status: ('A' for Active; 'I' for Inactive)
REMARK    1  A    between atoms: C_2  and  C_3 
REMARK    2  A    between atoms: C_7  and  O_8 
REMARK    3  A    between atoms: O_8  and  C_9 
REMARK    4  A    between atoms: C_9  and  C_10 
REMARK       I    between atoms: C_10  and  N_11 
REMARK    5  A    between atoms: N_11  and  N_12 
REMARK    6  A    between atoms: C_13  and  C_14 
ROOT
HETATM    1  C   UNL     1       6.044  28.145  55.294  1.00  0.00     0.261 C 
HETATM    2  N   UNL     1       6.230  26.772  55.327  1.00  0.00    -0.246 N 
HETATM    3  O   UNL     1       6.585  28.956  56.045  1.00  0.00    -0.269 OA
HETATM    4  H   UNL     1       5.689  26.181  54.705  1.00  0.00     0.192 HD
ENDROOT
BRANCH   1   5
HETATM    5  C   UNL     1       5.010  28.590  54.265  1.00  0.00     0.280 C 
BRANCH   5   6
HETATM    6  O   UNL     1       5.615  28.946  53.022  1.00  0.00    -0.341 OA
BRANCH   6   7
HETATM    7  C   UNL     1       5.095  28.302  51.928  1.00  0.00     0.086 A 
HETATM    8  C   UNL     1       4.134  28.967  51.161  1.00  0.00     0.044 A 
HETATM    9  C   UNL     1       3.584  28.359  50.023  1.00  0.00     0.029 A 
HETATM   10 BR   UNL     1       3.521  30.702  51.633  1.00  0.00    -0.048 Br
HETATM   11  C   UNL     1       3.993  27.079  49.602  1.00  0.00    -0.049 A 
HETATM   12  C   UNL     1       4.971  26.434  50.375  1.00  0.00     0.011 A 
HETATM   13  C   UNL     1       5.518  27.037  51.518  1.00  0.00     0.039 A 
BRANCH  11  14
HETATM   14  C   UNL     1       3.377  26.441  48.344  1.00  0.00    -0.024 C 
HETATM   15  C   UNL     1       4.245  26.767  47.109  1.00  0.00     0.019 C 
HETATM   16  C   UNL     1       1.956  27.001  48.126  1.00  0.00     0.019 C 
HETATM   17  C   UNL     1       3.259  24.901  48.418  1.00  0.00     0.019 C 
ENDBRANCH  11  14
ENDBRANCH   6   7
ENDBRANCH   5   6
ENDBRANCH   1   5
BRANCH   2  18
HETATM   18  N   UNL     1       7.034  26.220  56.275  1.00  0.00    -0.184 NA
HETATM   19  C   UNL     1       7.691  25.127  56.035  1.00  0.00     0.152 C 
BRANCH  19  20
HETATM   20  C   UNL     1       7.778  24.386  54.790  1.00  0.00     0.011 A 
HETATM   21  C   UNL     1       7.841  22.957  54.671  1.00  0.00     0.004 A 
HETATM   22  C   UNL     1       7.977  22.651  53.317  1.00  0.00     0.043 A 
HETATM   23  C   UNL     1       7.791  21.892  55.597  1.00  0.00     0.014 A 
HETATM   24  C   UNL     1       8.070  21.337  52.842  1.00  0.00     0.030 A 
HETATM   25  N   UNL     1       8.010  23.844  52.635  1.00  0.00    -0.364 N 
HETATM   26  C   UNL     1       8.021  20.302  53.781  1.00  0.00     0.002 A 
HETATM   27  C   UNL     1       7.883  20.572  55.139  1.00  0.00     0.001 A 
HETATM   28  H   UNL     1       8.122  23.928  51.633  1.00  0.00     0.165 HD
HETATM   29  C   UNL     1       7.915  24.893  53.511  1.00  0.00     0.102 A 
ENDBRANCH  19  20
ENDBRANCH   2  18
TORSDOF 6
ENDMDL
MODEL 10
REMARK VINA RESULT:      -8.2      3.000      8.992
REMARK  6 active torsions:
REMARK  status: ('A' for Active; 'I' for Inactive)
REMARK    1  A    between atoms: C_2  and  C_3 
REMARK    2  A    between atoms: C_7  and  O_8 
REMARK    3  A    between atoms: O_8  and  C_9 
REMARK    4  A    between atoms: C_9  and  C_10 
REMARK       I    between atoms: C_10  and  N_11 
REMARK    5  A    between atoms: N_11  and  N_12 
REMARK    6  A    between atoms: C_13  and  C_14 
ROOT
HETATM    1  C   UNL     1       5.215  26.211  53.183  1.00  0.00     0.261 C 
HETATM    2  N   UNL     1       6.508  26.384  52.716  1.00  0.00    -0.246 N 
HETATM    3  O   UNL     1       4.469  25.276  52.891  1.00  0.00    -0.269 OA
HETATM    4  H   UNL     1       7.020  27.222  52.968  1.00  0.00     0.192 HD
ENDROOT
BRANCH   1   5
HETATM    5  C   UNL     1       4.732  27.359  54.064  1.00  0.00     0.280 C 
BRANCH   5   6
HETATM    6  O   UNL     1       5.210  27.240  55.404  1.00  0.00    -0.341 OA
BRANCH   6   7
HETATM    7  C   UNL     1       5.094  28.382  56.156  1.00  0.00     0.086 A 
HETATM    8  C   UNL     1       6.133  28.708  57.031  1.00  0.00     0.044 A 
HETATM    9  C   UNL     1       6.072  29.872  57.811  1.00  0.00     0.029 A 
HETATM   10 BR   UNL     1       7.656  27.588  57.219  1.00  0.00    -0.048 Br
HETATM   11  C   UNL     1       4.981  30.759  57.722  1.00  0.00    -0.049 A 
HETATM   12  C   UNL     1       3.955  30.424  56.825  1.00  0.00     0.011 A 
HETATM   13  C   UNL     1       4.012  29.255  56.050  1.00  0.00     0.039 A 
BRANCH  11  14
HETATM   14  C   UNL     1       4.945  32.035  58.584  1.00  0.00    -0.024 C 
HETATM   15  C   UNL     1       6.260  32.169  59.381  1.00  0.00     0.019 C 
HETATM   16  C   UNL     1       3.760  31.956  59.569  1.00  0.00     0.019 C 
HETATM   17  C   UNL     1       4.778  33.337  57.766  1.00  0.00     0.019 C 
ENDBRANCH  11  14
ENDBRANCH   6   7
ENDBRANCH   5   6
ENDBRANCH   1   5
BRANCH   2  18
HETATM   18  N   UNL     1       7.029  25.498  51.825  1.00  0.00    -0.184 NA
HETATM   19  C   UNL     1       7.704  24.466  52.230  1.00  0.00     0.152 C 
BRANCH  19  20
HETATM   20  C   UNL     1       7.938  24.025  53.593  1.00  0.00     0.011 A 
HETATM   21  C   UNL     1       8.080  22.662  54.017  1.00  0.00     0.004 A 
HETATM   22  C   UNL     1       8.231  22.664  55.404  1.00  0.00     0.043 A 
HETATM   23  C   UNL     1       8.096  21.421  53.343  1.00  0.00     0.014 A 
HETATM   24  C   UNL     1       8.393  21.490  56.150  1.00  0.00     0.030 A 
HETATM   25  N   UNL     1       8.172  23.974  55.815  1.00  0.00    -0.364 N 
HETATM   26  C   UNL     1       8.403  20.275  55.458  1.00  0.00     0.002 A 
HETATM   27  C   UNL     1       8.256  20.238  54.075  1.00  0.00     0.001 A 
HETATM   28  H   UNL     1       8.232  24.276  56.778  1.00  0.00     0.165 HD
HETATM   29  C   UNL     1       7.972  24.799  54.739  1.00  0.00     0.102 A 
ENDBRANCH  19  20
ENDBRANCH   2  18
TORSDOF 6
ENDMDL
