MODEL 1
REMARK VINA RESULT:      -9.5      0.000      0.000
REMARK  6 active torsions:
REMARK  status: ('A' for Active; 'I' for Inactive)
REMARK    1  A    between atoms: C_2  and  O_3 
REMARK    2  A    between atoms: C_2  and  C_4 
REMARK    3  A    between atoms: C_6  and  N_7 
REMARK       I    between atoms: N_7  and  C_8 
REMARK    4  A    between atoms: C_8  and  C_9 
REMARK    5  A    between atoms: C_12  and  C_13 
REMARK    6  A    between atoms: C_18  and  C_19 
ROOT
HETATM    1  C   UNL     1       6.015  27.108  55.331  1.00  0.00     0.096 A 
HETATM    2  C   UNL     1       6.293  28.043  56.310  1.00  0.00     0.138 A 
HETATM    3  N   UNL     1       5.915  29.265  55.812  1.00  0.00    -0.240 N 
HETATM    4  C   UNL     1       6.154  30.530  56.487  1.00  0.00     0.221 C 
HETATM    5  C   UNL     1       6.496  30.299  57.975  1.00  0.00     0.068 C 
HETATM    6  C   UNL     1       7.460  29.118  58.160  1.00  0.00     0.143 C 
HETATM    7  N   UNL     1       6.844  27.939  57.546  1.00  0.00    -0.363 N 
HETATM    8  N   UNL     1       5.477  29.204  54.544  1.00  0.00    -0.181 NA
HETATM    9  C   UNL     1       5.509  27.897  54.268  1.00  0.00     0.160 A 
HETATM   10  H   UNL     1       7.293  27.049  57.787  1.00  0.00     0.162 HD
ENDROOT
BRANCH   1  11
HETATM   11  C   UNL     1       6.274  25.674  55.424  1.00  0.00     0.261 C 
HETATM   12  N   UNL     1       7.046  25.168  54.392  1.00  0.00    -0.323 N 
HETATM   13  H   UNL     1       7.295  25.803  53.649  1.00  0.00     0.169 HD
HETATM   14  O   UNL     1       5.826  25.019  56.362  1.00  0.00    -0.267 OA
BRANCH  12  15
HETATM   15  C   UNL     1       7.512  23.845  54.228  1.00  0.00     0.035 A 
HETATM   16  C   UNL     1       8.045  23.066  55.259  1.00  0.00     0.039 A 
HETATM   17  C   UNL     1       8.502  21.756  55.021  1.00  0.00    -0.028 A 
HETATM   18  C   UNL     1       8.408  21.233  53.726  1.00  0.00     0.010 A 
HETATM   19  C   UNL     1       7.881  22.000  52.691  1.00  0.00     0.003 A 
HETATM   20  C   UNL     1       7.434  23.298  52.942  1.00  0.00     0.029 A 
BRANCH  17  21
HETATM   21  C   UNL     1       9.044  20.932  56.169  1.00  0.00     0.147 C 
HETATM   22  C   UNL     1       8.299  21.225  57.465  1.00  0.00     0.044 C 
BRANCH  21  23
HETATM   23  O   UNL     1       8.928  19.542  55.867  1.00  0.00    -0.391 OA
HETATM   24  H   UNL     1       9.788  19.138  56.068  1.00  0.00     0.210 HD
ENDBRANCH  21  23
ENDBRANCH  17  21
ENDBRANCH  12  15
ENDBRANCH   1  11
BRANCH   4  25
HETATM   25  C   UNL     1       4.963  31.455  56.380  1.00  0.00     0.409 C 
HETATM   26  F   UNL     1       3.787  30.804  56.534  1.00  0.00    -0.169 F 
HETATM   27  F   UNL     1       5.017  32.389  57.369  1.00  0.00    -0.169 F 
HETATM   28  F   UNL     1       4.914  32.143  55.221  1.00  0.00    -0.169 F 
ENDBRANCH   4  25
BRANCH   6  29
HETATM   29  C   UNL     1       8.841  29.438  57.669  1.00  0.00     0.075 A 
HETATM   30  O   UNL     1       9.375  30.627  58.080  1.00  0.00    -0.325 OA
HETATM   31  C   UNL     1      10.613  30.719  57.531  1.00  0.00     0.142 A 
HETATM   32  C   UNL     1      10.887  29.606  56.771  1.00  0.00     0.027 A 
HETATM   33  C   UNL     1       9.745  28.776  56.862  1.00  0.00     0.037 A 
ENDBRANCH   6  29
TORSDOF 6
ENDMDL
MODEL 2
REMARK VINA RESULT:      -9.3      4.323      6.697
REMARK  6 active torsions:
REMARK  status: ('A' for Active; 'I' for Inactive)
REMARK    1  A    between atoms: C_2  and  O_3 
REMARK    2  A    between atoms: C_2  and  C_4 
REMARK    3  A    between atoms: C_6  and  N_7 
REMARK       I    between atoms: N_7  and  C_8 
REMARK    4  A    between atoms: C_8  and  C_9 
REMARK    5  A    between atoms: C_12  and  C_13 
REMARK    6  A    between atoms: C_18  and  C_19 
ROOT
HETATM    1  C   UNL     1       5.416  26.750  52.443  1.00  0.00     0.096 A 
HETATM    2  C   UNL     1       5.250  27.421  51.246  1.00  0.00     0.138 A 
HETATM    3  N   UNL     1       4.241  28.330  51.436  1.00  0.00    -0.240 N 
HETATM    4  C   UNL     1       3.676  29.154  50.380  1.00  0.00     0.221 C 
HETATM    5  C   UNL     1       4.608  29.180  49.149  1.00  0.00     0.068 C 
HETATM    6  C   UNL     1       5.176  27.787  48.838  1.00  0.00     0.143 C 
HETATM    7  N   UNL     1       5.862  27.305  50.040  1.00  0.00    -0.363 N 
HETATM    8  N   UNL     1       3.682  28.251  52.655  1.00  0.00    -0.181 NA
HETATM    9  C   UNL     1       4.414  27.317  53.270  1.00  0.00     0.160 A 
HETATM   10  H   UNL     1       6.456  26.484  49.891  1.00  0.00     0.162 HD
ENDROOT
BRANCH   1  11
HETATM   11  C   UNL     1       6.374  25.676  52.694  1.00  0.00     0.261 C 
HETATM   12  N   UNL     1       6.425  25.256  54.012  1.00  0.00    -0.323 N 
HETATM   13  H   UNL     1       5.863  25.764  54.679  1.00  0.00     0.169 HD
HETATM   14  O   UNL     1       7.047  25.215  51.776  1.00  0.00    -0.267 OA
BRANCH  12  15
HETATM   15  C   UNL     1       7.200  24.210  54.557  1.00  0.00     0.035 A 
HETATM   16  C   UNL     1       7.196  22.896  54.078  1.00  0.00     0.039 A 
HETATM   17  C   UNL     1       7.986  21.899  54.680  1.00  0.00    -0.028 A 
HETATM   18  C   UNL     1       8.794  22.243  55.771  1.00  0.00     0.010 A 
HETATM   19  C   UNL     1       8.805  23.547  56.257  1.00  0.00     0.003 A 
HETATM   20  C   UNL     1       8.013  24.525  55.653  1.00  0.00     0.029 A 
BRANCH  17  21
HETATM   21  C   UNL     1       7.980  20.496  54.113  1.00  0.00     0.147 C 
HETATM   22  C   UNL     1       8.379  20.487  52.643  1.00  0.00     0.044 C 
BRANCH  21  23
HETATM   23  O   UNL     1       8.883  19.670  54.848  1.00  0.00    -0.391 OA
HETATM   24  H   UNL     1       8.342  19.105  55.424  1.00  0.00     0.210 HD
ENDBRANCH  21  23
ENDBRANCH  17  21
ENDBRANCH  12  15
ENDBRANCH   1  11
BRANCH   4  25
HETATM   25  C   UNL     1       3.421  30.569  50.849  1.00  0.00     0.409 C 
HETATM   26  F   UNL     1       4.373  31.009  51.705  1.00  0.00    -0.169 F 
HETATM   27  F   UNL     1       3.440  31.416  49.784  1.00  0.00    -0.169 F 
HETATM   28  F   UNL     1       2.218  30.736  51.436  1.00  0.00    -0.169 F 
ENDBRANCH   4  25
BRANCH   6  29
HETATM   29  C   UNL     1       4.126  26.862  48.295  1.00  0.00     0.075 A 
HETATM   30  O   UNL     1       3.330  27.357  47.302  1.00  0.00    -0.325 OA
HETATM   31  C   UNL     1       2.462  26.372  46.958  1.00  0.00     0.142 A 
HETATM   32  C   UNL     1       2.687  25.246  47.714  1.00  0.00     0.027 A 
HETATM   33  C   UNL     1       3.764  25.560  48.576  1.00  0.00     0.037 A 
ENDBRANCH   6  29
TORSDOF 6
ENDMDL
MODEL 3
REMARK VINA RESULT:      -9.1      4.581      7.605
REMARK  6 active torsions:
REMARK  status: ('A' for Active; 'I' for Inactive)
REMARK    1  A    between atoms: C_2  and  O_3 
REMARK    2  A    between atoms: C_2  and  C_4 
REMARK    3  A    between atoms: C_6  and  N_7 
REMARK       I    between atoms: N_7  and  C_8 
REMARK    4  A    between atoms: C_8  and  C_9 
REMARK    5  A    between atoms: C_12  and  C_13 
REMARK    6  A    between atoms: C_18  and  C_19 
ROOT
HETATM    1  C   UNL     1       6.349  26.989  52.989  1.00  0.00     0.096 A 
HETATM    2  C   UNL     1       6.360  26.096  54.044  1.00  0.00     0.138 A 
HETATM    3  N   UNL     1       7.205  26.612  54.994  1.00  0.00    -0.240 N 
HETATM    4  C   UNL     1       7.587  25.914  56.211  1.00  0.00     0.221 C 
HETATM    5  C   UNL     1       6.627  24.739  56.492  1.00  0.00     0.068 C 
HETATM    6  C   UNL     1       6.295  23.958  55.211  1.00  0.00     0.143 C 
HETATM    7  N   UNL     1       5.739  24.905  54.241  1.00  0.00    -0.363 N 
HETATM    8  N   UNL     1       7.807  27.747  54.602  1.00  0.00    -0.181 NA
HETATM    9  C   UNL     1       7.265  27.988  53.405  1.00  0.00     0.160 A 
HETATM   10  H   UNL     1       5.289  24.469  53.430  1.00  0.00     0.162 HD
ENDROOT
BRANCH   1  11
HETATM   11  C   UNL     1       5.596  26.833  51.747  1.00  0.00     0.261 C 
HETATM   12  N   UNL     1       5.363  28.019  51.071  1.00  0.00    -0.323 N 
HETATM   13  H   UNL     1       5.663  28.871  51.520  1.00  0.00     0.169 HD
HETATM   14  O   UNL     1       5.231  25.721  51.376  1.00  0.00    -0.267 OA
BRANCH  12  15
HETATM   15  C   UNL     1       4.720  28.192  49.827  1.00  0.00     0.035 A 
HETATM   16  C   UNL     1       3.345  28.043  49.624  1.00  0.00     0.039 A 
HETATM   17  C   UNL     1       2.773  28.219  48.350  1.00  0.00    -0.028 A 
HETATM   18  C   UNL     1       3.605  28.559  47.276  1.00  0.00     0.010 A 
HETATM   19  C   UNL     1       4.975  28.710  47.466  1.00  0.00     0.003 A 
HETATM   20  C   UNL     1       5.529  28.528  48.734  1.00  0.00     0.029 A 
BRANCH  17  21
HETATM   21  C   UNL     1       1.276  28.080  48.176  1.00  0.00     0.147 C 
HETATM   22  C   UNL     1       0.845  28.429  46.756  1.00  0.00     0.044 C 
BRANCH  21  23
HETATM   23  O   UNL     1       0.873  26.744  48.471  1.00  0.00    -0.391 OA
HETATM   24  H   UNL     1       1.313  26.168  47.824  1.00  0.00     0.210 HD
ENDBRANCH  21  23
ENDBRANCH  17  21
ENDBRANCH  12  15
ENDBRANCH   1  11
BRANCH   4  25
HETATM   25  C   UNL     1       7.612  26.843  57.403  1.00  0.00     0.409 C 
HETATM   26  F   UNL     1       6.551  27.682  57.427  1.00  0.00    -0.169 F 
HETATM   27  F   UNL     1       7.553  26.115  58.553  1.00  0.00    -0.169 F 
HETATM   28  F   UNL     1       8.736  27.584  57.490  1.00  0.00    -0.169 F 
ENDBRANCH   4  25
BRANCH   6  29
HETATM   29  C   UNL     1       7.469  23.164  54.719  1.00  0.00     0.075 A 
HETATM   30  O   UNL     1       8.261  22.589  55.673  1.00  0.00    -0.325 OA
HETATM   31  C   UNL     1       9.251  21.925  55.022  1.00  0.00     0.142 A 
HETATM   32  C   UNL     1       9.109  22.062  53.661  1.00  0.00     0.027 A 
HETATM   33  C   UNL     1       7.957  22.859  53.464  1.00  0.00     0.037 A 
ENDBRANCH   6  29
TORSDOF 6
ENDMDL
MODEL 4
REMARK VINA RESULT:      -9.1      1.969      2.830
REMARK  6 active torsions:
REMARK  status: ('A' for Active; 'I' for Inactive)
REMARK    1  A    between atoms: C_2  and  O_3 
REMARK    2  A    between atoms: C_2  and  C_4 
REMARK    3  A    between atoms: C_6  and  N_7 
REMARK       I    between atoms: N_7  and  C_8 
REMARK    4  A    between atoms: C_8  and  C_9 
REMARK    5  A    between atoms: C_12  and  C_13 
REMARK    6  A    between atoms: C_18  and  C_19 
ROOT
HETATM    1  C   UNL     1       5.595  26.785  53.712  1.00  0.00     0.096 A 
HETATM    2  C   UNL     1       5.020  27.677  54.598  1.00  0.00     0.138 A 
HETATM    3  N   UNL     1       4.966  28.891  53.961  1.00  0.00    -0.240 N 
HETATM    4  C   UNL     1       4.538  30.127  54.597  1.00  0.00     0.221 C 
HETATM    5  C   UNL     1       3.779  29.833  55.909  1.00  0.00     0.068 C 
HETATM    6  C   UNL     1       4.465  28.727  56.726  1.00  0.00     0.143 C 
HETATM    7  N   UNL     1       4.572  27.541  55.872  1.00  0.00    -0.363 N 
HETATM    8  N   UNL     1       5.534  28.874  52.744  1.00  0.00    -0.181 NA
HETATM    9  C   UNL     1       5.885  27.595  52.585  1.00  0.00     0.160 A 
HETATM   10  H   UNL     1       4.820  26.680  56.368  1.00  0.00     0.162 HD
ENDROOT
BRANCH   1  11
HETATM   11  C   UNL     1       5.866  25.375  53.977  1.00  0.00     0.261 C 
HETATM   12  N   UNL     1       6.964  25.151  54.792  1.00  0.00    -0.323 N 
HETATM   13  H   UNL     1       7.507  25.956  55.064  1.00  0.00     0.169 HD
HETATM   14  O   UNL     1       5.147  24.501  53.500  1.00  0.00    -0.267 OA
BRANCH  12  15
HETATM   15  C   UNL     1       7.446  23.914  55.272  1.00  0.00     0.035 A 
HETATM   16  C   UNL     1       7.493  22.740  54.515  1.00  0.00     0.039 A 
HETATM   17  C   UNL     1       7.975  21.538  55.064  1.00  0.00    -0.028 A 
HETATM   18  C   UNL     1       8.422  21.531  56.391  1.00  0.00     0.010 A 
HETATM   19  C   UNL     1       8.378  22.694  57.156  1.00  0.00     0.003 A 
HETATM   20  C   UNL     1       7.894  23.879  56.598  1.00  0.00     0.029 A 
BRANCH  17  21
HETATM   21  C   UNL     1       8.041  20.295  54.203  1.00  0.00     0.147 C 
HETATM   22  C   UNL     1       8.346  20.638  52.750  1.00  0.00     0.044 C 
BRANCH  21  23
HETATM   23  O   UNL     1       9.048  19.413  54.697  1.00  0.00    -0.391 OA
HETATM   24  H   UNL     1       9.215  19.664  55.620  1.00  0.00     0.210 HD
ENDBRANCH  21  23
ENDBRANCH  17  21
ENDBRANCH  12  15
ENDBRANCH   1  11
BRANCH   4  25
HETATM   25  C   UNL     1       3.663  30.953  53.682  1.00  0.00     0.409 C 
HETATM   26  F   UNL     1       2.944  30.190  52.826  1.00  0.00    -0.169 F 
HETATM   27  F   UNL     1       2.761  31.656  54.421  1.00  0.00    -0.169 F 
HETATM   28  F   UNL     1       4.345  31.866  52.959  1.00  0.00    -0.169 F 
ENDBRANCH   4  25
BRANCH   6  29
HETATM   29  C   UNL     1       5.759  29.194  57.325  1.00  0.00     0.075 A 
HETATM   30  O   UNL     1       5.786  30.475  57.799  1.00  0.00    -0.325 OA
HETATM   31  C   UNL     1       7.032  30.692  58.292  1.00  0.00     0.142 A 
HETATM   32  C   UNL     1       7.811  29.567  58.146  1.00  0.00     0.027 A 
HETATM   33  C   UNL     1       6.989  28.598  57.524  1.00  0.00     0.037 A 
ENDBRANCH   6  29
TORSDOF 6
ENDMDL
MODEL 5
REMARK VINA RESULT:      -8.7      4.281      9.209
REMARK  6 active torsions:
REMARK  status: ('A' for Active; 'I' for Inactive)
REMARK    1  A    between atoms: C_2  and  O_3 
REMARK    2  A    between atoms: C_2  and  C_4 
REMARK    3  A    between atoms: C_6  and  N_7 
REMARK       I    between atoms: N_7  and  C_8 
REMARK    4  A    between atoms: C_8  and  C_9 
REMARK    5  A    between atoms: C_12  and  C_13 
REMARK    6  A    between atoms: C_18  and  C_19 
ROOT
HETATM    1  C   UNL     1       8.057  30.273  58.312  1.00  0.00     0.096 A 
HETATM    2  C   UNL     1       6.938  29.644  57.800  1.00  0.00     0.138 A 
HETATM    3  N   UNL     1       7.383  28.719  56.889  1.00  0.00    -0.240 N 
HETATM    4  C   UNL     1       6.511  27.928  56.036  1.00  0.00     0.221 C 
HETATM    5  C   UNL     1       5.061  27.954  56.565  1.00  0.00     0.068 C 
HETATM    6  C   UNL     1       4.646  29.362  57.019  1.00  0.00     0.143 C 
HETATM    7  N   UNL     1       5.610  29.806  58.029  1.00  0.00    -0.363 N 
HETATM    8  N   UNL     1       8.715  28.751  56.714  1.00  0.00    -0.181 NA
HETATM    9  C   UNL     1       9.121  29.669  57.596  1.00  0.00     0.160 A 
HETATM   10  H   UNL     1       5.323  30.638  58.556  1.00  0.00     0.162 HD
ENDROOT
BRANCH   1  11
HETATM   11  C   UNL     1       8.053  31.346  59.303  1.00  0.00     0.261 C 
HETATM   12  N   UNL     1       7.304  31.070  60.435  1.00  0.00    -0.323 N 
HETATM   13  H   UNL     1       6.783  30.206  60.443  1.00  0.00     0.169 HD
HETATM   14  O   UNL     1       8.682  32.381  59.104  1.00  0.00    -0.267 OA
BRANCH  12  15
HETATM   15  C   UNL     1       7.149  31.873  61.586  1.00  0.00     0.035 A 
HETATM   16  C   UNL     1       6.026  32.663  61.849  1.00  0.00     0.039 A 
HETATM   17  C   UNL     1       5.945  33.450  63.013  1.00  0.00    -0.028 A 
HETATM   18  C   UNL     1       7.010  33.425  63.921  1.00  0.00     0.010 A 
HETATM   19  C   UNL     1       8.134  32.643  63.670  1.00  0.00     0.003 A 
HETATM   20  C   UNL     1       8.202  31.871  62.509  1.00  0.00     0.029 A 
BRANCH  17  21
HETATM   21  C   UNL     1       4.700  34.268  63.278  1.00  0.00     0.147 C 
HETATM   22  C   UNL     1       4.149  34.877  61.995  1.00  0.00     0.044 C 
BRANCH  21  23
HETATM   23  O   UNL     1       3.696  33.447  63.874  1.00  0.00    -0.391 OA
HETATM   24  H   UNL     1       2.905  34.002  63.981  1.00  0.00     0.210 HD
ENDBRANCH  21  23
ENDBRANCH  17  21
ENDBRANCH  12  15
ENDBRANCH   1  11
BRANCH   4  25
HETATM   25  C   UNL     1       6.983  26.496  55.928  1.00  0.00     0.409 C 
HETATM   26  F   UNL     1       7.563  26.055  57.068  1.00  0.00    -0.169 F 
HETATM   27  F   UNL     1       5.920  25.678  55.696  1.00  0.00    -0.169 F 
HETATM   28  F   UNL     1       7.843  26.285  54.910  1.00  0.00    -0.169 F 
ENDBRANCH   4  25
BRANCH   6  29
HETATM   29  C   UNL     1       4.470  30.296  55.859  1.00  0.00     0.075 A 
HETATM   30  O   UNL     1       3.855  29.785  54.751  1.00  0.00    -0.325 OA
HETATM   31  C   UNL     1       3.796  30.782  53.832  1.00  0.00     0.142 A 
HETATM   32  C   UNL     1       4.362  31.932  54.330  1.00  0.00     0.027 A 
HETATM   33  C   UNL     1       4.796  31.620  55.641  1.00  0.00     0.037 A 
ENDBRANCH   6  29
TORSDOF 6
ENDMDL
MODEL 6
REMARK VINA RESULT:      -8.5      5.483      6.954
REMARK  6 active torsions:
REMARK  status: ('A' for Active; 'I' for Inactive)
REMARK    1  A    between atoms: C_2  and  O_3 
REMARK    2  A    between atoms: C_2  and  C_4 
REMARK    3  A    between atoms: C_6  and  N_7 
REMARK       I    between atoms: N_7  and  C_8 
REMARK    4  A    between atoms: C_8  and  C_9 
REMARK    5  A    between atoms: C_12  and  C_13 
REMARK    6  A    between atoms: C_18  and  C_19 
ROOT
HETATM    1  C   UNL     1       4.792  26.761  50.578  1.00  0.00     0.096 A 
HETATM    2  C   UNL     1       4.011  27.891  50.425  1.00  0.00     0.138 A 
HETATM    3  N   UNL     1       3.439  27.815  49.180  1.00  0.00    -0.240 N 
HETATM    4  C   UNL     1       2.639  28.873  48.584  1.00  0.00     0.221 C 
HETATM    5  C   UNL     1       2.181  29.883  49.657  1.00  0.00     0.068 C 
HETATM    6  C   UNL     1       3.311  30.216  50.643  1.00  0.00     0.143 C 
HETATM    7  N   UNL     1       3.775  28.957  51.232  1.00  0.00    -0.363 N 
HETATM    8  N   UNL     1       3.849  26.747  48.477  1.00  0.00    -0.181 NA
HETATM    9  C   UNL     1       4.642  26.097  49.334  1.00  0.00     0.160 A 
HETATM   10  H   UNL     1       4.378  29.068  52.054  1.00  0.00     0.162 HD
ENDROOT
BRANCH   1  11
HETATM   11  C   UNL     1       5.602  26.436  51.749  1.00  0.00     0.261 C 
HETATM   12  N   UNL     1       5.541  25.106  52.130  1.00  0.00    -0.323 N 
HETATM   13  H   UNL     1       4.904  24.510  51.623  1.00  0.00     0.169 HD
HETATM   14  O   UNL     1       6.267  27.304  52.306  1.00  0.00    -0.267 OA
BRANCH  12  15
HETATM   15  C   UNL     1       6.246  24.474  53.177  1.00  0.00     0.035 A 
HETATM   16  C   UNL     1       7.138  23.413  52.996  1.00  0.00     0.039 A 
HETATM   17  C   UNL     1       7.798  22.821  54.089  1.00  0.00    -0.028 A 
HETATM   18  C   UNL     1       7.556  23.319  55.375  1.00  0.00     0.010 A 
HETATM   19  C   UNL     1       6.669  24.374  55.568  1.00  0.00     0.003 A 
HETATM   20  C   UNL     1       6.019  24.948  54.474  1.00  0.00     0.029 A 
BRANCH  17  21
HETATM   21  C   UNL     1       8.781  21.695  53.850  1.00  0.00     0.147 C 
HETATM   22  C   UNL     1       9.031  20.895  55.122  1.00  0.00     0.044 C 
BRANCH  21  23
HETATM   23  O   UNL     1       8.284  20.821  52.838  1.00  0.00    -0.391 OA
HETATM   24  H   UNL     1       7.904  21.383  52.142  1.00  0.00     0.210 HD
ENDBRANCH  21  23
ENDBRANCH  17  21
ENDBRANCH  12  15
ENDBRANCH   1  11
BRANCH   4  25
HETATM   25  C   UNL     1       1.431  28.320  47.861  1.00  0.00     0.409 C 
HETATM   26  F   UNL     1       0.840  27.310  48.539  1.00  0.00    -0.169 F 
HETATM   27  F   UNL     1       0.490  29.296  47.729  1.00  0.00    -0.169 F 
HETATM   28  F   UNL     1       1.698  27.889  46.611  1.00  0.00    -0.169 F 
ENDBRANCH   4  25
BRANCH   6  29
HETATM   29  C   UNL     1       4.383  31.050  50.006  1.00  0.00     0.075 A 
HETATM   30  O   UNL     1       3.965  32.081  49.215  1.00  0.00    -0.325 OA
HETATM   31  C   UNL     1       5.079  32.700  48.744  1.00  0.00     0.142 A 
HETATM   32  C   UNL     1       6.211  32.082  49.222  1.00  0.00     0.027 A 
HETATM   33  C   UNL     1       5.763  31.018  50.040  1.00  0.00     0.037 A 
ENDBRANCH   6  29
TORSDOF 6
ENDMDL
MODEL 7
REMARK VINA RESULT:      -8.4      3.201      5.227
REMARK  6 active torsions:
REMARK  status: ('A' for Active; 'I' for Inactive)
REMARK    1  A    between atoms: C_2  and  O_3 
REMARK    2  A    between atoms: C_2  and  C_4 
REMARK    3  A    between atoms: C_6  and  N_7 
REMARK       I    between atoms: N_7  and  C_8 
REMARK    4  A    between atoms: C_8  and  C_9 
REMARK    5  A    between atoms: C_12  and  C_13 
REMARK    6  A    between atoms: C_18  and  C_19 
ROOT
HETATM    1  C   UNL     1       5.555  27.793  54.043  1.00  0.00     0.096 A 
HETATM    2  C   UNL     1       5.333  28.775  53.096  1.00  0.00     0.138 A 
HETATM    3  N   UNL     1       4.318  29.566  53.572  1.00  0.00    -0.240 N 
HETATM    4  C   UNL     1       3.701  30.644  52.817  1.00  0.00     0.221 C 
HETATM    5  C   UNL     1       4.585  31.045  51.616  1.00  0.00     0.068 C 
HETATM    6  C   UNL     1       5.161  29.815  50.899  1.00  0.00     0.143 C 
HETATM    7  N   UNL     1       5.900  29.027  51.889  1.00  0.00    -0.363 N 
HETATM    8  N   UNL     1       3.808  29.125  54.734  1.00  0.00    -0.181 NA
HETATM    9  C   UNL     1       4.577  28.073  55.030  1.00  0.00     0.160 A 
HETATM   10  H   UNL     1       6.501  28.298  51.490  1.00  0.00     0.162 HD
ENDROOT
BRANCH   1  11
HETATM   11  C   UNL     1       6.538  26.717  53.943  1.00  0.00     0.261 C 
HETATM   12  N   UNL     1       6.050  25.468  54.288  1.00  0.00    -0.323 N 
HETATM   13  H   UNL     1       5.104  25.423  54.637  1.00  0.00     0.169 HD
HETATM   14  O   UNL     1       7.684  26.954  53.572  1.00  0.00    -0.267 OA
BRANCH  12  15
HETATM   15  C   UNL     1       6.729  24.232  54.241  1.00  0.00     0.035 A 
HETATM   16  C   UNL     1       7.047  23.465  55.366  1.00  0.00     0.039 A 
HETATM   17  C   UNL     1       7.738  22.246  55.246  1.00  0.00    -0.028 A 
HETATM   18  C   UNL     1       8.101  21.797  53.970  1.00  0.00     0.010 A 
HETATM   19  C   UNL     1       7.792  22.552  52.842  1.00  0.00     0.003 A 
HETATM   20  C   UNL     1       7.109  23.762  52.978  1.00  0.00     0.029 A 
BRANCH  17  21
HETATM   21  C   UNL     1       8.036  21.428  56.484  1.00  0.00     0.147 C 
HETATM   22  C   UNL     1       9.207  20.480  56.258  1.00  0.00     0.044 C 
BRANCH  21  23
HETATM   23  O   UNL     1       8.340  22.294  57.577  1.00  0.00    -0.391 OA
HETATM   24  H   UNL     1       7.931  23.152  57.378  1.00  0.00     0.210 HD
ENDBRANCH  21  23
ENDBRANCH  17  21
ENDBRANCH  12  15
ENDBRANCH   1  11
BRANCH   4  25
HETATM   25  C   UNL     1       3.443  31.857  53.682  1.00  0.00     0.409 C 
HETATM   26  F   UNL     1       4.495  32.157  54.478  1.00  0.00    -0.169 F 
HETATM   27  F   UNL     1       3.234  32.947  52.893  1.00  0.00    -0.169 F 
HETATM   28  F   UNL     1       2.346  31.745  54.459  1.00  0.00    -0.169 F 
ENDBRANCH   4  25
BRANCH   6  29
HETATM   29  C   UNL     1       4.106  29.059  50.147  1.00  0.00     0.075 A 
HETATM   30  O   UNL     1       4.479  27.859  49.612  1.00  0.00    -0.325 OA
HETATM   31  C   UNL     1       3.390  27.346  48.983  1.00  0.00     0.142 A 
HETATM   32  C   UNL     1       2.318  28.198  49.106  1.00  0.00     0.027 A 
HETATM   33  C   UNL     1       2.778  29.304  49.860  1.00  0.00     0.037 A 
ENDBRANCH   6  29
TORSDOF 6
ENDMDL
MODEL 8
REMARK VINA RESULT:      -8.3      5.540      7.141
REMARK  6 active torsions:
REMARK  status: ('A' for Active; 'I' for Inactive)
REMARK    1  A    between atoms: C_2  and  O_3 
REMARK    2  A    between atoms: C_2  and  C_4 
REMARK    3  A    between atoms: C_6  and  N_7 
REMARK       I    between atoms: N_7  and  C_8 
REMARK    4  A    between atoms: C_8  and  C_9 
REMARK    5  A    between atoms: C_12  and  C_13 
REMARK    6  A    between atoms: C_18  and  C_19 
ROOT
HETATM    1  C   UNL     1       4.783  26.870  50.537  1.00  0.00     0.096 A 
HETATM    2  C   UNL     1       3.991  27.990  50.366  1.00  0.00     0.138 A 
HETATM    3  N   UNL     1       3.421  27.889  49.122  1.00  0.00    -0.240 N 
HETATM    4  C   UNL     1       2.610  28.929  48.510  1.00  0.00     0.221 C 
HETATM    5  C   UNL     1       2.140  29.950  49.568  1.00  0.00     0.068 C 
HETATM    6  C   UNL     1       3.265  30.309  50.550  1.00  0.00     0.143 C 
HETATM    7  N   UNL     1       3.742  29.064  51.158  1.00  0.00    -0.363 N 
HETATM    8  N   UNL     1       3.844  26.815  48.435  1.00  0.00    -0.181 NA
HETATM    9  C   UNL     1       4.642  26.187  49.303  1.00  0.00     0.160 A 
HETATM   10  H   UNL     1       4.343  29.193  51.978  1.00  0.00     0.162 HD
ENDROOT
BRANCH   1  11
HETATM   11  C   UNL     1       5.595  26.571  51.713  1.00  0.00     0.261 C 
HETATM   12  N   UNL     1       5.594  25.235  52.080  1.00  0.00    -0.323 N 
HETATM   13  H   UNL     1       4.992  24.616  51.559  1.00  0.00     0.169 HD
HETATM   14  O   UNL     1       6.212  27.464  52.288  1.00  0.00    -0.267 OA
BRANCH  12  15
HETATM   15  C   UNL     1       6.317  24.626  53.127  1.00  0.00     0.035 A 
HETATM   16  C   UNL     1       6.181  24.963  54.477  1.00  0.00     0.039 A 
HETATM   17  C   UNL     1       6.946  24.321  55.469  1.00  0.00    -0.028 A 
HETATM   18  C   UNL     1       7.849  23.321  55.085  1.00  0.00     0.010 A 
HETATM   19  C   UNL     1       7.993  22.978  53.744  1.00  0.00     0.003 A 
HETATM   20  C   UNL     1       7.231  23.626  52.771  1.00  0.00     0.029 A 
BRANCH  17  21
HETATM   21  C   UNL     1       6.748  24.691  56.923  1.00  0.00     0.147 C 
HETATM   22  C   UNL     1       7.763  25.733  57.376  1.00  0.00     0.044 C 
BRANCH  21  23
HETATM   23  O   UNL     1       5.432  25.204  57.120  1.00  0.00    -0.391 OA
HETATM   24  H   UNL     1       4.830  24.440  57.127  1.00  0.00     0.210 HD
ENDBRANCH  21  23
ENDBRANCH  17  21
ENDBRANCH  12  15
ENDBRANCH   1  11
BRANCH   4  25
HETATM   25  C   UNL     1       1.409  28.354  47.794  1.00  0.00     0.409 C 
HETATM   26  F   UNL     1       0.812  27.365  48.498  1.00  0.00    -0.169 F 
HETATM   27  F   UNL     1       0.470  29.324  47.620  1.00  0.00    -0.169 F 
HETATM   28  F   UNL     1       1.688  27.882  46.561  1.00  0.00    -0.169 F 
ENDBRANCH   4  25
BRANCH   6  29
HETATM   29  C   UNL     1       4.329  31.145  49.902  1.00  0.00     0.075 A 
HETATM   30  O   UNL     1       3.902  32.127  49.053  1.00  0.00    -0.325 OA
HETATM   31  C   UNL     1       5.010  32.756  48.583  1.00  0.00     0.142 A 
HETATM   32  C   UNL     1       6.146  32.196  49.117  1.00  0.00     0.027 A 
HETATM   33  C   UNL     1       5.708  31.157  49.972  1.00  0.00     0.037 A 
ENDBRANCH   6  29
TORSDOF 6
ENDMDL
MODEL 9
REMARK VINA RESULT:      -7.9      4.596      6.649
REMARK  6 active torsions:
REMARK  status: ('A' for Active; 'I' for Inactive)
REMARK    1  A    between atoms: C_2  and  O_3 
REMARK    2  A    between atoms: C_2  and  C_4 
REMARK    3  A    between atoms: C_6  and  N_7 
REMARK       I    between atoms: N_7  and  C_8 
REMARK    4  A    between atoms: C_8  and  C_9 
REMARK    5  A    between atoms: C_12  and  C_13 
REMARK    6  A    between atoms: C_18  and  C_19 
ROOT
HETATM    1  C   UNL     1       4.532  32.290  58.775  1.00  0.00     0.096 A 
HETATM    2  C   UNL     1       4.309  32.512  60.120  1.00  0.00     0.138 A 
HETATM    3  N   UNL     1       4.217  33.870  60.290  1.00  0.00    -0.240 N 
HETATM    4  C   UNL     1       4.105  34.525  61.583  1.00  0.00     0.221 C 
HETATM    5  C   UNL     1       3.691  33.514  62.673  1.00  0.00     0.068 C 
HETATM    6  C   UNL     1       4.448  32.185  62.531  1.00  0.00     0.143 C 
HETATM    7  N   UNL     1       4.200  31.672  61.181  1.00  0.00    -0.363 N 
HETATM    8  N   UNL     1       4.440  34.558  59.158  1.00  0.00    -0.181 NA
HETATM    9  C   UNL     1       4.599  33.601  58.240  1.00  0.00     0.160 A 
HETATM   10  H   UNL     1       4.478  30.696  61.038  1.00  0.00     0.162 HD
ENDROOT
BRANCH   1  11
HETATM   11  C   UNL     1       4.714  30.985  58.144  1.00  0.00     0.261 C 
HETATM   12  N   UNL     1       6.019  30.523  58.160  1.00  0.00    -0.323 N 
HETATM   13  H   UNL     1       6.722  31.143  58.532  1.00  0.00     0.169 HD
HETATM   14  O   UNL     1       3.755  30.387  57.662  1.00  0.00    -0.267 OA
BRANCH  12  15
HETATM   15  C   UNL     1       6.504  29.285  57.686  1.00  0.00     0.035 A 
HETATM   16  C   UNL     1       5.695  28.271  57.164  1.00  0.00     0.039 A 
HETATM   17  C   UNL     1       6.246  27.054  56.721  1.00  0.00    -0.028 A 
HETATM   18  C   UNL     1       7.632  26.871  56.800  1.00  0.00     0.010 A 
HETATM   19  C   UNL     1       8.448  27.873  57.319  1.00  0.00     0.003 A 
HETATM   20  C   UNL     1       7.886  29.073  57.758  1.00  0.00     0.029 A 
BRANCH  17  21
HETATM   21  C   UNL     1       5.342  25.992  56.133  1.00  0.00     0.147 C 
HETATM   22  C   UNL     1       6.125  25.008  55.273  1.00  0.00     0.044 C 
BRANCH  21  23
HETATM   23  O   UNL     1       4.684  25.279  57.179  1.00  0.00    -0.391 OA
HETATM   24  H   UNL     1       4.641  24.349  56.902  1.00  0.00     0.210 HD
ENDBRANCH  21  23
ENDBRANCH  17  21
ENDBRANCH  12  15
ENDBRANCH   1  11
BRANCH   4  25
HETATM   25  C   UNL     1       3.111  35.665  61.548  1.00  0.00     0.409 C 
HETATM   26  F   UNL     1       1.991  35.353  60.858  1.00  0.00    -0.169 F 
HETATM   27  F   UNL     1       2.712  35.964  62.815  1.00  0.00    -0.169 F 
HETATM   28  F   UNL     1       3.615  36.808  61.038  1.00  0.00    -0.169 F 
ENDBRANCH   4  25
BRANCH   6  29
HETATM   29  C   UNL     1       5.896  32.321  62.901  1.00  0.00     0.075 A 
HETATM   30  O   UNL     1       6.784  31.584  62.169  1.00  0.00    -0.325 OA
HETATM   31  C   UNL     1       8.022  31.851  62.660  1.00  0.00     0.142 A 
HETATM   32  C   UNL     1       7.946  32.751  63.696  1.00  0.00     0.027 A 
HETATM   33  C   UNL     1       6.573  33.057  63.851  1.00  0.00     0.037 A 
ENDBRANCH   6  29
TORSDOF 6
ENDMDL
MODEL 10
REMARK VINA RESULT:      -7.8      5.390      7.725
REMARK  6 active torsions:
REMARK  status: ('A' for Active; 'I' for Inactive)
REMARK    1  A    between atoms: C_2  and  O_3 
REMARK    2  A    between atoms: C_2  and  C_4 
REMARK    3  A    between atoms: C_6  and  N_7 
REMARK       I    between atoms: N_7  and  C_8 
REMARK    4  A    between atoms: C_8  and  C_9 
REMARK    5  A    between atoms: C_12  and  C_13 
REMARK    6  A    between atoms: C_18  and  C_19 
ROOT
HETATM    1  C   UNL     1       4.851  27.179  51.649  1.00  0.00     0.096 A 
HETATM    2  C   UNL     1       4.109  28.071  50.898  1.00  0.00     0.138 A 
HETATM    3  N   UNL     1       4.056  27.570  49.622  1.00  0.00    -0.240 N 
HETATM    4  C   UNL     1       3.469  28.273  48.493  1.00  0.00     0.221 C 
HETATM    5  C   UNL     1       2.569  29.430  48.978  1.00  0.00     0.068 C 
HETATM    6  C   UNL     1       3.216  30.206  50.135  1.00  0.00     0.143 C 
HETATM    7  N   UNL     1       3.511  29.250  51.205  1.00  0.00    -0.363 N 
HETATM    8  N   UNL     1       4.776  26.446  49.467  1.00  0.00    -0.181 NA
HETATM    9  C   UNL     1       5.229  26.197  50.700  1.00  0.00     0.160 A 
HETATM   10  H   UNL     1       3.750  29.678  52.105  1.00  0.00     0.162 HD
ENDROOT
BRANCH   1  11
HETATM   11  C   UNL     1       5.179  27.323  53.065  1.00  0.00     0.261 C 
HETATM   12  N   UNL     1       6.441  26.864  53.405  1.00  0.00    -0.323 N 
HETATM   13  H   UNL     1       6.980  26.417  52.679  1.00  0.00     0.169 HD
HETATM   14  O   UNL     1       4.371  27.821  53.845  1.00  0.00    -0.267 OA
BRANCH  12  15
HETATM   15  C   UNL     1       7.067  26.914  54.669  1.00  0.00     0.035 A 
HETATM   16  C   UNL     1       7.587  28.078  55.243  1.00  0.00     0.039 A 
HETATM   17  C   UNL     1       8.211  28.052  56.504  1.00  0.00    -0.028 A 
HETATM   18  C   UNL     1       8.299  26.835  57.191  1.00  0.00     0.010 A 
HETATM   19  C   UNL     1       7.787  25.669  56.628  1.00  0.00     0.003 A 
HETATM   20  C   UNL     1       7.173  25.710  55.375  1.00  0.00     0.029 A 
BRANCH  17  21
HETATM   21  C   UNL     1       8.734  29.338  57.108  1.00  0.00     0.147 C 
HETATM   22  C   UNL     1       8.156  29.576  58.498  1.00  0.00     0.044 C 
BRANCH  21  23
HETATM   23  O   UNL     1      10.157  29.292  57.195  1.00  0.00    -0.391 OA
HETATM   24  H   UNL     1      10.379  28.559  57.792  1.00  0.00     0.210 HD
ENDBRANCH  21  23
ENDBRANCH  17  21
ENDBRANCH  12  15
ENDBRANCH   1  11
BRANCH   4  25
HETATM   25  C   UNL     1       2.665  27.344  47.612  1.00  0.00     0.409 C 
HETATM   26  F   UNL     1       1.824  26.557  48.322  1.00  0.00    -0.169 F 
HETATM   27  F   UNL     1       1.888  28.073  46.765  1.00  0.00    -0.169 F 
HETATM   28  F   UNL     1       3.424  26.549  46.829  1.00  0.00    -0.169 F 
ENDBRANCH   4  25
BRANCH   6  29
HETATM   29  C   UNL     1       4.389  31.023  49.676  1.00  0.00     0.075 A 
HETATM   30  O   UNL     1       4.223  31.733  48.521  1.00  0.00    -0.325 OA
HETATM   31  C   UNL     1       5.387  32.393  48.288  1.00  0.00     0.142 A 
HETATM   32  C   UNL     1       6.302  32.120  49.278  1.00  0.00     0.027 A 
HETATM   33  C   UNL     1       5.657  31.237  50.176  1.00  0.00     0.037 A 
ENDBRANCH   6  29
TORSDOF 6
ENDMDL
