MODEL 1
REMARK VINA RESULT:      -9.3      0.000      0.000
REMARK  8 active torsions:
REMARK  status: ('A' for Active; 'I' for Inactive)
REMARK    1  A    between atoms: C_2  and  O_3 
REMARK    2  A    between atoms: O_3  and  C_4 
REMARK    3  A    between atoms: C_5  and  N_6 
REMARK       I    between atoms: N_6  and  C_7 
REMARK    4  A    between atoms: C_7  and  C_8 
REMARK    5  A    between atoms: C_8  and  C_9 
REMARK    6  A    between atoms: C_9  and  S_10 
REMARK    7  A    between atoms: S_10  and  C_11 
REMARK    8  A    between atoms: N_12  and  C_13 
ROOT
HETATM    1  C   UNL     1       6.445  28.073  55.068  1.00  0.00     0.177 A 
HETATM    2  N   UNL     1       6.091  27.038  54.171  1.00  0.00    -0.274 N 
HETATM    3  C   UNL     1       4.985  27.275  53.274  1.00  0.00     0.124 A 
HETATM    4  N   UNL     1       4.586  26.404  52.367  1.00  0.00    -0.384 N 
HETATM    5  H   UNL     1       3.811  26.611  51.755  1.00  0.00     0.157 HD
HETATM    6  H   UNL     1       5.051  25.510  52.271  1.00  0.00     0.157 HD
HETATM    7  C   UNL     1       4.332  28.540  53.392  1.00  0.00     0.081 A 
HETATM    8  C   UNL     1       4.818  29.454  54.320  1.00  0.00     0.187 A 
HETATM    9  N   UNL     1       4.125  30.583  54.335  1.00  0.00    -0.153 NA
HETATM   10  N   UNL     1       3.179  30.381  53.399  1.00  0.00    -0.280 N 
HETATM   11  H   UNL     1       2.511  31.129  53.232  1.00  0.00     0.189 HD
HETATM   12  C   UNL     1       3.251  29.143  52.792  1.00  0.00     0.042 A 
HETATM   13  C   UNL     1       2.280  28.733  51.756  1.00  0.00     0.071 C 
HETATM   14  N   UNL     1       5.889  29.243  55.173  1.00  0.00    -0.202 NA
ENDROOT
BRANCH   1  15
HETATM   15  S   UNL     1       7.808  27.808  56.201  1.00  0.00    -0.091 SA
BRANCH  15  16
HETATM   16  C   UNL     1       8.757  29.355  55.972  1.00  0.00     0.091 C 
BRANCH  16  17
HETATM   17  C   UNL     1      10.024  29.369  56.817  1.00  0.00     0.113 C 
BRANCH  17  18
HETATM   18  C   UNL     1       9.961  30.407  57.923  1.00  0.00     0.223 C 
HETATM   19  N   UNL     1       9.000  30.128  58.870  1.00  0.00    -0.325 N 
HETATM   20  H   UNL     1       8.456  29.279  58.751  1.00  0.00     0.169 HD
HETATM   21  O   UNL     1      10.705  31.382  57.902  1.00  0.00    -0.273 OA
BRANCH  19  22
HETATM   22  C   UNL     1       8.688  30.862  60.034  1.00  0.00     0.068 A 
HETATM   23  C   UNL     1       7.774  31.922  59.907  1.00  0.00     0.095 A 
HETATM   24  C   UNL     1       7.360  32.662  61.017  1.00  0.00     0.039 A 
HETATM   25  C   UNL     1       7.893  32.374  62.270  1.00  0.00     0.003 A 
HETATM   26  C   UNL     1       8.826  31.346  62.406  1.00  0.00     0.002 A 
HETATM   27  C   UNL     1       9.221  30.591  61.295  1.00  0.00     0.032 A 
BRANCH  23  28
HETATM   28  O   UNL     1       7.240  32.243  58.681  1.00  0.00    -0.349 OA
BRANCH  28  29
HETATM   29  C   UNL     1       5.812  32.352  58.772  1.00  0.00     0.171 C 
HETATM   30  C   UNL     1       5.192  31.132  58.115  1.00  0.00     0.034 C 
ENDBRANCH  28  29
ENDBRANCH  23  28
ENDBRANCH  19  22
ENDBRANCH  17  18
ENDBRANCH  16  17
ENDBRANCH  15  16
ENDBRANCH   1  15
BRANCH   2  31
HETATM   31  C   UNL     1       6.721  25.756  54.222  1.00  0.00     0.065 A 
HETATM   32  C   UNL     1       6.390  24.810  55.214  1.00  0.00     0.061 A 
HETATM   33 CL   UNL     1       5.250  25.177  56.460  1.00  0.00    -0.082 Cl
HETATM   34  C   UNL     1       6.969  23.539  55.208  1.00  0.00     0.026 A 
HETATM   35  C   UNL     1       7.886  23.196  54.215  1.00  0.00     0.002 A 
HETATM   36  C   UNL     1       8.224  24.121  53.227  1.00  0.00     0.002 A 
HETATM   37  C   UNL     1       7.643  25.392  53.226  1.00  0.00     0.032 A 
ENDBRANCH   2  31
TORSDOF 8
ENDMDL
MODEL 2
REMARK VINA RESULT:      -9.0      2.222      4.423
REMARK  8 active torsions:
REMARK  status: ('A' for Active; 'I' for Inactive)
REMARK    1  A    between atoms: C_2  and  O_3 
REMARK    2  A    between atoms: O_3  and  C_4 
REMARK    3  A    between atoms: C_5  and  N_6 
REMARK       I    between atoms: N_6  and  C_7 
REMARK    4  A    between atoms: C_7  and  C_8 
REMARK    5  A    between atoms: C_8  and  C_9 
REMARK    6  A    between atoms: C_9  and  S_10 
REMARK    7  A    between atoms: S_10  and  C_11 
REMARK    8  A    between atoms: N_12  and  C_13 
ROOT
HETATM    1  C   UNL     1       7.409  27.595  56.258  1.00  0.00     0.177 A 
HETATM    2  N   UNL     1       6.597  27.007  55.261  1.00  0.00    -0.274 N 
HETATM    3  C   UNL     1       6.595  25.566  55.159  1.00  0.00     0.124 A 
HETATM    4  N   UNL     1       5.850  24.901  54.297  1.00  0.00    -0.384 N 
HETATM    5  H   UNL     1       5.874  23.892  54.263  1.00  0.00     0.157 HD
HETATM    6  H   UNL     1       5.242  25.391  53.655  1.00  0.00     0.157 HD
HETATM    7  C   UNL     1       7.440  24.865  56.073  1.00  0.00     0.081 A 
HETATM    8  C   UNL     1       8.166  25.599  57.003  1.00  0.00     0.187 A 
HETATM    9  N   UNL     1       8.911  24.834  57.788  1.00  0.00    -0.153 NA
HETATM   10  N   UNL     1       8.655  23.589  57.344  1.00  0.00    -0.280 N 
HETATM   11  H   UNL     1       9.129  22.816  57.802  1.00  0.00     0.189 HD
HETATM   12  C   UNL     1       7.766  23.546  56.288  1.00  0.00     0.042 A 
HETATM   13  C   UNL     1       7.382  22.268  55.653  1.00  0.00     0.071 C 
HETATM   14  N   UNL     1       8.161  26.979  57.121  1.00  0.00    -0.202 NA
ENDROOT
BRANCH   1  15
HETATM   15  S   UNL     1       7.442  29.381  56.405  1.00  0.00    -0.091 SA
BRANCH  15  16
HETATM   16  C   UNL     1       7.777  29.576  58.193  1.00  0.00     0.091 C 
BRANCH  16  17
HETATM   17  C   UNL     1       9.070  30.342  58.443  1.00  0.00     0.113 C 
BRANCH  17  18
HETATM   18  C   UNL     1       8.874  31.488  59.418  1.00  0.00     0.223 C 
HETATM   19  N   UNL     1       8.046  31.167  60.470  1.00  0.00    -0.325 N 
HETATM   20  H   UNL     1       7.670  30.223  60.500  1.00  0.00     0.169 HD
HETATM   21  O   UNL     1       9.413  32.573  59.218  1.00  0.00    -0.273 OA
BRANCH  19  22
HETATM   22  C   UNL     1       7.669  31.979  61.561  1.00  0.00     0.068 A 
HETATM   23  C   UNL     1       6.466  32.697  61.450  1.00  0.00     0.095 A 
HETATM   24  C   UNL     1       5.984  33.476  62.503  1.00  0.00     0.039 A 
HETATM   25  C   UNL     1       6.729  33.580  63.675  1.00  0.00     0.003 A 
HETATM   26  C   UNL     1       7.940  32.898  63.788  1.00  0.00     0.002 A 
HETATM   27  C   UNL     1       8.408  32.099  62.738  1.00  0.00     0.032 A 
BRANCH  23  28
HETATM   28  O   UNL     1       5.714  32.630  60.300  1.00  0.00    -0.349 OA
BRANCH  28  29
HETATM   29  C   UNL     1       4.340  32.935  60.584  1.00  0.00     0.171 C 
HETATM   30  C   UNL     1       3.462  31.983  59.793  1.00  0.00     0.034 C 
ENDBRANCH  28  29
ENDBRANCH  23  28
ENDBRANCH  19  22
ENDBRANCH  17  18
ENDBRANCH  16  17
ENDBRANCH  15  16
ENDBRANCH   1  15
BRANCH   2  31
HETATM   31  C   UNL     1       5.890  27.802  54.306  1.00  0.00     0.065 A 
HETATM   32  C   UNL     1       4.673  28.436  54.630  1.00  0.00     0.061 A 
HETATM   33 CL   UNL     1       3.941  28.234  56.182  1.00  0.00    -0.082 Cl
HETATM   34  C   UNL     1       4.031  29.260  53.703  1.00  0.00     0.026 A 
HETATM   35  C   UNL     1       4.592  29.460  52.442  1.00  0.00     0.002 A 
HETATM   36  C   UNL     1       5.795  28.839  52.107  1.00  0.00     0.002 A 
HETATM   37  C   UNL     1       6.444  28.018  53.033  1.00  0.00     0.032 A 
ENDBRANCH   2  31
TORSDOF 8
ENDMDL
MODEL 3
REMARK VINA RESULT:      -8.9      3.206      8.114
REMARK  8 active torsions:
REMARK  status: ('A' for Active; 'I' for Inactive)
REMARK    1  A    between atoms: C_2  and  O_3 
REMARK    2  A    between atoms: O_3  and  C_4 
REMARK    3  A    between atoms: C_5  and  N_6 
REMARK       I    between atoms: N_6  and  C_7 
REMARK    4  A    between atoms: C_7  and  C_8 
REMARK    5  A    between atoms: C_8  and  C_9 
REMARK    6  A    between atoms: C_9  and  S_10 
REMARK    7  A    between atoms: S_10  and  C_11 
REMARK    8  A    between atoms: N_12  and  C_13 
ROOT
HETATM    1  C   UNL     1       6.233  31.664  58.698  1.00  0.00     0.177 A 
HETATM    2  N   UNL     1       7.306  30.910  59.225  1.00  0.00    -0.274 N 
HETATM    3  C   UNL     1       7.713  31.178  60.585  1.00  0.00     0.124 A 
HETATM    4  N   UNL     1       8.673  30.516  61.200  1.00  0.00    -0.384 N 
HETATM    5  H   UNL     1       8.923  30.731  62.154  1.00  0.00     0.157 HD
HETATM    6  H   UNL     1       9.178  29.779  60.724  1.00  0.00     0.157 HD
HETATM    7  C   UNL     1       6.996  32.207  61.270  1.00  0.00     0.081 A 
HETATM    8  C   UNL     1       5.953  32.843  60.607  1.00  0.00     0.187 A 
HETATM    9  N   UNL     1       5.373  33.777  61.347  1.00  0.00    -0.153 NA
HETATM   10  N   UNL     1       6.063  33.734  62.501  1.00  0.00    -0.280 N 
HETATM   11  H   UNL     1       5.795  34.380  63.239  1.00  0.00     0.189 HD
HETATM   12  C   UNL     1       7.076  32.796  62.510  1.00  0.00     0.042 A 
HETATM   13  C   UNL     1       7.957  32.621  63.684  1.00  0.00     0.071 C 
HETATM   14  N   UNL     1       5.544  32.581  59.310  1.00  0.00    -0.202 NA
ENDROOT
BRANCH   1  15
HETATM   15  S   UNL     1       5.709  31.362  57.011  1.00  0.00    -0.091 SA
BRANCH  15  16
HETATM   16  C   UNL     1       4.504  30.007  57.258  1.00  0.00     0.091 C 
BRANCH  16  17
HETATM   17  C   UNL     1       4.068  29.395  55.934  1.00  0.00     0.113 C 
BRANCH  17  18
HETATM   18  C   UNL     1       5.104  28.435  55.380  1.00  0.00     0.223 C 
HETATM   19  N   UNL     1       4.767  27.112  55.562  1.00  0.00    -0.325 N 
HETATM   20  H   UNL     1       3.882  26.912  56.019  1.00  0.00     0.169 HD
HETATM   21  O   UNL     1       6.128  28.861  54.854  1.00  0.00    -0.273 OA
BRANCH  19  22
HETATM   22  C   UNL     1       5.484  25.966  55.154  1.00  0.00     0.068 A 
HETATM   23  C   UNL     1       5.349  25.559  53.815  1.00  0.00     0.095 A 
HETATM   24  C   UNL     1       6.068  24.476  53.309  1.00  0.00     0.039 A 
HETATM   25  C   UNL     1       6.906  23.755  54.155  1.00  0.00     0.003 A 
HETATM   26  C   UNL     1       7.027  24.127  55.494  1.00  0.00     0.002 A 
HETATM   27  C   UNL     1       6.321  25.230  55.992  1.00  0.00     0.032 A 
BRANCH  23  28
HETATM   28  O   UNL     1       4.516  26.239  52.957  1.00  0.00    -0.349 OA
BRANCH  28  29
HETATM   29  C   UNL     1       5.183  26.491  51.711  1.00  0.00     0.171 C 
HETATM   30  C   UNL     1       5.403  27.986  51.574  1.00  0.00     0.034 C 
ENDBRANCH  28  29
ENDBRANCH  23  28
ENDBRANCH  19  22
ENDBRANCH  17  18
ENDBRANCH  16  17
ENDBRANCH  15  16
ENDBRANCH   1  15
BRANCH   2  31
HETATM   31  C   UNL     1       8.049  29.996  58.414  1.00  0.00     0.065 A 
HETATM   32  C   UNL     1       9.345  30.304  57.953  1.00  0.00     0.061 A 
HETATM   33 CL   UNL     1      10.079  31.831  58.291  1.00  0.00    -0.082 Cl
HETATM   34  C   UNL     1      10.079  29.371  57.216  1.00  0.00     0.026 A 
HETATM   35  C   UNL     1       9.529  28.122  56.929  1.00  0.00     0.002 A 
HETATM   36  C   UNL     1       8.248  27.803  57.379  1.00  0.00     0.002 A 
HETATM   37  C   UNL     1       7.512  28.731  58.121  1.00  0.00     0.032 A 
ENDBRANCH   2  31
TORSDOF 8
ENDMDL
MODEL 4
REMARK VINA RESULT:      -8.8      5.515      8.644
REMARK  8 active torsions:
REMARK  status: ('A' for Active; 'I' for Inactive)
REMARK    1  A    between atoms: C_2  and  O_3 
REMARK    2  A    between atoms: O_3  and  C_4 
REMARK    3  A    between atoms: C_5  and  N_6 
REMARK       I    between atoms: N_6  and  C_7 
REMARK    4  A    between atoms: C_7  and  C_8 
REMARK    5  A    between atoms: C_8  and  C_9 
REMARK    6  A    between atoms: C_9  and  S_10 
REMARK    7  A    between atoms: S_10  and  C_11 
REMARK    8  A    between atoms: N_12  and  C_13 
ROOT
HETATM    1  C   UNL     1       4.366  27.534  49.771  1.00  0.00     0.177 A 
HETATM    2  N   UNL     1       3.415  28.578  49.844  1.00  0.00    -0.274 N 
HETATM    3  C   UNL     1       2.316  28.553  48.907  1.00  0.00     0.124 A 
HETATM    4  N   UNL     1       1.347  29.447  48.901  1.00  0.00    -0.384 N 
HETATM    5  H   UNL     1       0.593  29.390  48.231  1.00  0.00     0.157 HD
HETATM    6  H   UNL     1       1.343  30.208  49.568  1.00  0.00     0.157 HD
HETATM    7  C   UNL     1       2.306  27.474  47.970  1.00  0.00     0.081 A 
HETATM    8  C   UNL     1       3.314  26.520  48.045  1.00  0.00     0.187 A 
HETATM    9  N   UNL     1       3.193  25.577  47.122  1.00  0.00    -0.153 NA
HETATM   10  N   UNL     1       2.088  25.942  46.446  1.00  0.00    -0.280 N 
HETATM   11  H   UNL     1       1.793  25.357  45.669  1.00  0.00     0.189 HD
HETATM   12  C   UNL     1       1.505  27.102  46.916  1.00  0.00     0.042 A 
HETATM   13  C   UNL     1       0.296  27.669  46.283  1.00  0.00     0.071 C 
HETATM   14  N   UNL     1       4.362  26.525  48.951  1.00  0.00    -0.202 NA
ENDROOT
BRANCH   1  15
HETATM   15  S   UNL     1       5.746  27.540  50.913  1.00  0.00    -0.091 SA
BRANCH  15  16
HETATM   16  C   UNL     1       5.425  26.005  51.855  1.00  0.00     0.091 C 
BRANCH  16  17
HETATM   17  C   UNL     1       6.257  25.941  53.129  1.00  0.00     0.113 C 
BRANCH  17  18
HETATM   18  C   UNL     1       7.242  24.786  53.110  1.00  0.00     0.223 C 
HETATM   19  N   UNL     1       6.868  23.744  53.928  1.00  0.00    -0.325 N 
HETATM   20  H   UNL     1       5.994  23.837  54.437  1.00  0.00     0.169 HD
HETATM   21  O   UNL     1       8.260  24.850  52.427  1.00  0.00    -0.273 OA
BRANCH  19  22
HETATM   22  C   UNL     1       7.532  22.515  54.131  1.00  0.00     0.068 A 
HETATM   23  C   UNL     1       7.856  22.164  55.453  1.00  0.00     0.095 A 
HETATM   24  C   UNL     1       8.458  20.941  55.753  1.00  0.00     0.039 A 
HETATM   25  C   UNL     1       8.783  20.065  54.721  1.00  0.00     0.003 A 
HETATM   26  C   UNL     1       8.496  20.414  53.402  1.00  0.00     0.002 A 
HETATM   27  C   UNL     1       7.872  21.632  53.107  1.00  0.00     0.032 A 
BRANCH  23  28
HETATM   28  O   UNL     1       7.564  23.013  56.495  1.00  0.00    -0.349 OA
BRANCH  28  29
HETATM   29  C   UNL     1       8.739  23.734  56.896  1.00  0.00     0.171 C 
HETATM   30  C   UNL     1       8.375  25.197  57.062  1.00  0.00     0.034 C 
ENDBRANCH  28  29
ENDBRANCH  23  28
ENDBRANCH  19  22
ENDBRANCH  17  18
ENDBRANCH  16  17
ENDBRANCH  15  16
ENDBRANCH   1  15
BRANCH   2  31
HETATM   31  C   UNL     1       3.587  29.687  50.729  1.00  0.00     0.065 A 
HETATM   32  C   UNL     1       4.228  30.871  50.313  1.00  0.00     0.061 A 
HETATM   33 CL   UNL     1       4.896  31.020  48.726  1.00  0.00    -0.082 Cl
HETATM   34  C   UNL     1       4.328  31.967  51.173  1.00  0.00     0.026 A 
HETATM   35  C   UNL     1       3.793  31.895  52.458  1.00  0.00     0.002 A 
HETATM   36  C   UNL     1       3.156  30.731  52.885  1.00  0.00     0.002 A 
HETATM   37  C   UNL     1       3.048  29.633  52.026  1.00  0.00     0.032 A 
ENDBRANCH   2  31
TORSDOF 8
ENDMDL
MODEL 5
REMARK VINA RESULT:      -8.7      4.146      9.247
REMARK  8 active torsions:
REMARK  status: ('A' for Active; 'I' for Inactive)
REMARK    1  A    between atoms: C_2  and  O_3 
REMARK    2  A    between atoms: O_3  and  C_4 
REMARK    3  A    between atoms: C_5  and  N_6 
REMARK       I    between atoms: N_6  and  C_7 
REMARK    4  A    between atoms: C_7  and  C_8 
REMARK    5  A    between atoms: C_8  and  C_9 
REMARK    6  A    between atoms: C_9  and  S_10 
REMARK    7  A    between atoms: S_10  and  C_11 
REMARK    8  A    between atoms: N_12  and  C_13 
ROOT
HETATM    1  C   UNL     1       7.392  25.367  54.105  1.00  0.00     0.177 A 
HETATM    2  N   UNL     1       7.632  25.431  55.497  1.00  0.00    -0.274 N 
HETATM    3  C   UNL     1       7.916  24.195  56.188  1.00  0.00     0.124 A 
HETATM    4  N   UNL     1       8.194  24.130  57.476  1.00  0.00    -0.384 N 
HETATM    5  H   UNL     1       8.393  23.245  57.920  1.00  0.00     0.157 HD
HETATM    6  H   UNL     1       8.213  24.968  58.042  1.00  0.00     0.157 HD
HETATM    7  C   UNL     1       7.907  23.008  55.394  1.00  0.00     0.081 A 
HETATM    8  C   UNL     1       7.666  23.123  54.030  1.00  0.00     0.187 A 
HETATM    9  N   UNL     1       7.680  21.953  53.408  1.00  0.00    -0.153 NA
HETATM   10  N   UNL     1       7.932  21.077  54.398  1.00  0.00    -0.280 N 
HETATM   11  H   UNL     1       7.988  20.092  54.156  1.00  0.00     0.189 HD
HETATM   12  C   UNL     1       8.074  21.664  55.639  1.00  0.00     0.042 A 
HETATM   13  C   UNL     1       8.332  20.858  56.850  1.00  0.00     0.071 C 
HETATM   14  N   UNL     1       7.410  24.306  53.355  1.00  0.00    -0.202 NA
ENDROOT
BRANCH   1  15
HETATM   15  S   UNL     1       7.028  26.881  53.220  1.00  0.00    -0.091 SA
BRANCH  15  16
HETATM   16  C   UNL     1       5.286  26.594  52.740  1.00  0.00     0.091 C 
BRANCH  16  17
HETATM   17  C   UNL     1       5.161  26.238  51.264  1.00  0.00     0.113 C 
BRANCH  17  18
HETATM   18  C   UNL     1       4.776  27.438  50.419  1.00  0.00     0.223 C 
HETATM   19  N   UNL     1       3.419  27.674  50.401  1.00  0.00    -0.325 N 
HETATM   20  H   UNL     1       2.828  27.053  50.947  1.00  0.00     0.169 HD
HETATM   21  O   UNL     1       5.636  28.078  49.821  1.00  0.00    -0.273 OA
BRANCH  19  22
HETATM   22  C   UNL     1       2.723  28.710  49.742  1.00  0.00     0.068 A 
HETATM   23  C   UNL     1       1.848  28.345  48.704  1.00  0.00     0.095 A 
HETATM   24  C   UNL     1       1.074  29.297  48.039  1.00  0.00     0.039 A 
HETATM   25  C   UNL     1       1.198  30.641  48.379  1.00  0.00     0.003 A 
HETATM   26  C   UNL     1       2.086  31.021  49.385  1.00  0.00     0.002 A 
HETATM   27  C   UNL     1       2.844  30.061  50.066  1.00  0.00     0.032 A 
BRANCH  23  28
HETATM   28  O   UNL     1       1.714  27.028  48.332  1.00  0.00    -0.349 OA
BRANCH  28  29
HETATM   29  C   UNL     1       2.593  26.727  47.238  1.00  0.00     0.171 C 
HETATM   30  C   UNL     1       3.245  25.382  47.499  1.00  0.00     0.034 C 
ENDBRANCH  28  29
ENDBRANCH  23  28
ENDBRANCH  19  22
ENDBRANCH  17  18
ENDBRANCH  16  17
ENDBRANCH  15  16
ENDBRANCH   1  15
BRANCH   2  31
HETATM   31  C   UNL     1       7.486  26.651  56.227  1.00  0.00     0.065 A 
HETATM   32  C   UNL     1       6.238  27.059  56.741  1.00  0.00     0.061 A 
HETATM   33 CL   UNL     1       4.806  26.133  56.460  1.00  0.00    -0.082 Cl
HETATM   34  C   UNL     1       6.128  28.222  57.507  1.00  0.00     0.026 A 
HETATM   35  C   UNL     1       7.260  28.993  57.767  1.00  0.00     0.002 A 
HETATM   36  C   UNL     1       8.501  28.604  57.266  1.00  0.00     0.002 A 
HETATM   37  C   UNL     1       8.617  27.438  56.504  1.00  0.00     0.032 A 
ENDBRANCH   2  31
TORSDOF 8
ENDMDL
MODEL 6
REMARK VINA RESULT:      -8.6      1.509      2.000
REMARK  8 active torsions:
REMARK  status: ('A' for Active; 'I' for Inactive)
REMARK    1  A    between atoms: C_2  and  O_3 
REMARK    2  A    between atoms: O_3  and  C_4 
REMARK    3  A    between atoms: C_5  and  N_6 
REMARK       I    between atoms: N_6  and  C_7 
REMARK    4  A    between atoms: C_7  and  C_8 
REMARK    5  A    between atoms: C_8  and  C_9 
REMARK    6  A    between atoms: C_9  and  S_10 
REMARK    7  A    between atoms: S_10  and  C_11 
REMARK    8  A    between atoms: N_12  and  C_13 
ROOT
HETATM    1  C   UNL     1       6.171  28.291  55.491  1.00  0.00     0.177 A 
HETATM    2  N   UNL     1       5.859  27.194  54.657  1.00  0.00    -0.274 N 
HETATM    3  C   UNL     1       4.862  27.391  53.630  1.00  0.00     0.124 A 
HETATM    4  N   UNL     1       4.514  26.456  52.767  1.00  0.00    -0.384 N 
HETATM    5  H   UNL     1       3.816  26.637  52.060  1.00  0.00     0.157 HD
HETATM    6  H   UNL     1       4.941  25.540  52.799  1.00  0.00     0.157 HD
HETATM    7  C   UNL     1       4.264  28.686  53.569  1.00  0.00     0.081 A 
HETATM    8  C   UNL     1       4.698  29.662  54.459  1.00  0.00     0.187 A 
HETATM    9  N   UNL     1       4.064  30.815  54.302  1.00  0.00    -0.153 NA
HETATM   10  N   UNL     1       3.208  30.565  53.293  1.00  0.00    -0.280 N 
HETATM   11  H   UNL     1       2.598  31.320  52.992  1.00  0.00     0.189 HD
HETATM   12  C   UNL     1       3.280  29.274  52.808  1.00  0.00     0.042 A 
HETATM   13  C   UNL     1       2.400  28.810  51.716  1.00  0.00     0.071 C 
HETATM   14  N   UNL     1       5.665  29.488  55.435  1.00  0.00    -0.202 NA
ENDROOT
BRANCH   1  15
HETATM   15  S   UNL     1       7.397  28.077  56.780  1.00  0.00    -0.091 SA
BRANCH  15  16
HETATM   16  C   UNL     1       7.292  29.693  57.632  1.00  0.00     0.091 C 
BRANCH  16  17
HETATM   17  C   UNL     1       8.431  29.881  58.625  1.00  0.00     0.113 C 
BRANCH  17  18
HETATM   18  C   UNL     1       8.243  31.120  59.482  1.00  0.00     0.223 C 
HETATM   19  N   UNL     1       7.667  30.848  60.704  1.00  0.00    -0.325 N 
HETATM   20  H   UNL     1       7.445  29.879  60.913  1.00  0.00     0.169 HD
HETATM   21  O   UNL     1       8.572  32.224  59.059  1.00  0.00    -0.273 OA
BRANCH  19  22
HETATM   22  C   UNL     1       7.371  31.752  61.746  1.00  0.00     0.068 A 
HETATM   23  C   UNL     1       6.121  32.395  61.713  1.00  0.00     0.095 A 
HETATM   24  C   UNL     1       5.719  33.256  62.735  1.00  0.00     0.039 A 
HETATM   25  C   UNL     1       6.588  33.521  63.789  1.00  0.00     0.003 A 
HETATM   26  C   UNL     1       7.844  32.915  63.820  1.00  0.00     0.002 A 
HETATM   27  C   UNL     1       8.234  32.033  62.805  1.00  0.00     0.032 A 
BRANCH  23  28
HETATM   28  O   UNL     1       5.246  32.169  60.676  1.00  0.00    -0.349 OA
BRANCH  28  29
HETATM   29  C   UNL     1       5.059  33.368  59.910  1.00  0.00     0.171 C 
HETATM   30  C   UNL     1       5.154  33.020  58.437  1.00  0.00     0.034 C 
ENDBRANCH  28  29
ENDBRANCH  23  28
ENDBRANCH  19  22
ENDBRANCH  17  18
ENDBRANCH  16  17
ENDBRANCH  15  16
ENDBRANCH   1  15
BRANCH   2  31
HETATM   31  C   UNL     1       6.416  25.897  54.885  1.00  0.00     0.065 A 
HETATM   32  C   UNL     1       7.434  25.375  54.060  1.00  0.00     0.061 A 
HETATM   33 CL   UNL     1       8.017  26.252  52.690  1.00  0.00    -0.082 Cl
HETATM   34  C   UNL     1       8.010  24.133  54.339  1.00  0.00     0.026 A 
HETATM   35  C   UNL     1       7.578  23.397  55.440  1.00  0.00     0.002 A 
HETATM   36  C   UNL     1       6.572  23.899  56.265  1.00  0.00     0.002 A 
HETATM   37  C   UNL     1       5.996  25.143  55.994  1.00  0.00     0.032 A 
ENDBRANCH   2  31
TORSDOF 8
ENDMDL
MODEL 7
REMARK VINA RESULT:      -8.5      3.715      8.544
REMARK  8 active torsions:
REMARK  status: ('A' for Active; 'I' for Inactive)
REMARK    1  A    between atoms: C_2  and  O_3 
REMARK    2  A    between atoms: O_3  and  C_4 
REMARK    3  A    between atoms: C_5  and  N_6 
REMARK       I    between atoms: N_6  and  C_7 
REMARK    4  A    between atoms: C_7  and  C_8 
REMARK    5  A    between atoms: C_8  and  C_9 
REMARK    6  A    between atoms: C_9  and  S_10 
REMARK    7  A    between atoms: S_10  and  C_11 
REMARK    8  A    between atoms: N_12  and  C_13 
ROOT
HETATM    1  C   UNL     1       5.405  28.425  55.110  1.00  0.00     0.177 A 
HETATM    2  N   UNL     1       6.523  27.637  55.469  1.00  0.00    -0.274 N 
HETATM    3  C   UNL     1       7.380  28.125  56.524  1.00  0.00     0.124 A 
HETATM    4  N   UNL     1       8.428  27.463  56.973  1.00  0.00    -0.384 N 
HETATM    5  H   UNL     1       8.998  27.838  57.718  1.00  0.00     0.157 HD
HETATM    6  H   UNL     1       8.680  26.567  56.578  1.00  0.00     0.157 HD
HETATM    7  C   UNL     1       7.023  29.384  57.099  1.00  0.00     0.081 A 
HETATM    8  C   UNL     1       5.879  30.024  56.638  1.00  0.00     0.187 A 
HETATM    9  N   UNL     1       5.661  31.181  57.246  1.00  0.00    -0.153 NA
HETATM   10  N   UNL     1       6.689  31.278  58.109  1.00  0.00    -0.280 N 
HETATM   11  H   UNL     1       6.738  32.105  58.697  1.00  0.00     0.189 HD
HETATM   12  C   UNL     1       7.562  30.209  58.059  1.00  0.00     0.042 A 
HETATM   13  C   UNL     1       8.763  30.152  58.917  1.00  0.00     0.071 C 
HETATM   14  N   UNL     1       5.041  29.556  55.639  1.00  0.00    -0.202 NA
ENDROOT
BRANCH   1  15
HETATM   15  S   UNL     1       4.327  27.852  53.799  1.00  0.00    -0.091 SA
BRANCH  15  16
HETATM   16  C   UNL     1       4.486  29.220  52.595  1.00  0.00     0.091 C 
BRANCH  16  17
HETATM   17  C   UNL     1       5.555  28.930  51.550  1.00  0.00     0.113 C 
BRANCH  17  18
HETATM   18  C   UNL     1       4.962  28.724  50.169  1.00  0.00     0.223 C 
HETATM   19  N   UNL     1       3.954  27.785  50.149  1.00  0.00    -0.325 N 
HETATM   20  H   UNL     1       3.703  27.347  51.030  1.00  0.00     0.169 HD
HETATM   21  O   UNL     1       5.397  29.349  49.206  1.00  0.00    -0.273 OA
BRANCH  19  22
HETATM   22  C   UNL     1       3.176  27.367  49.048  1.00  0.00     0.068 A 
HETATM   23  C   UNL     1       1.918  27.970  48.876  1.00  0.00     0.095 A 
HETATM   24  C   UNL     1       1.108  27.663  47.781  1.00  0.00     0.039 A 
HETATM   25  C   UNL     1       1.534  26.710  46.860  1.00  0.00     0.003 A 
HETATM   26  C   UNL     1       2.766  26.080  47.035  1.00  0.00     0.002 A 
HETATM   27  C   UNL     1       3.585  26.408  48.122  1.00  0.00     0.032 A 
BRANCH  23  28
HETATM   28  O   UNL     1       1.460  28.904  49.777  1.00  0.00    -0.349 OA
BRANCH  28  29
HETATM   29  C   UNL     1       1.312  30.181  49.138  1.00  0.00     0.171 C 
HETATM   30  C   UNL     1       2.193  31.185  49.858  1.00  0.00     0.034 C 
ENDBRANCH  28  29
ENDBRANCH  23  28
ENDBRANCH  19  22
ENDBRANCH  17  18
ENDBRANCH  16  17
ENDBRANCH  15  16
ENDBRANCH   1  15
BRANCH   2  31
HETATM   31  C   UNL     1       6.871  26.456  54.742  1.00  0.00     0.065 A 
HETATM   32  C   UNL     1       6.464  25.177  55.173  1.00  0.00     0.061 A 
HETATM   33 CL   UNL     1       5.574  24.965  56.639  1.00  0.00    -0.082 Cl
HETATM   34  C   UNL     1       6.760  24.042  54.414  1.00  0.00     0.026 A 
HETATM   35  C   UNL     1       7.466  24.168  53.219  1.00  0.00     0.002 A 
HETATM   36  C   UNL     1       7.876  25.427  52.780  1.00  0.00     0.002 A 
HETATM   37  C   UNL     1       7.578  26.565  53.532  1.00  0.00     0.032 A 
ENDBRANCH   2  31
TORSDOF 8
ENDMDL
MODEL 8
REMARK VINA RESULT:      -8.5      5.655      8.084
REMARK  8 active torsions:
REMARK  status: ('A' for Active; 'I' for Inactive)
REMARK    1  A    between atoms: C_2  and  O_3 
REMARK    2  A    between atoms: O_3  and  C_4 
REMARK    3  A    between atoms: C_5  and  N_6 
REMARK       I    between atoms: N_6  and  C_7 
REMARK    4  A    between atoms: C_7  and  C_8 
REMARK    5  A    between atoms: C_8  and  C_9 
REMARK    6  A    between atoms: C_9  and  S_10 
REMARK    7  A    between atoms: S_10  and  C_11 
REMARK    8  A    between atoms: N_12  and  C_13 
ROOT
HETATM    1  C   UNL     1       4.591  29.562  50.518  1.00  0.00     0.177 A 
HETATM    2  N   UNL     1       4.388  29.318  49.140  1.00  0.00    -0.274 N 
HETATM    3  C   UNL     1       4.736  30.370  48.212  1.00  0.00     0.124 A 
HETATM    4  N   UNL     1       4.629  30.248  46.903  1.00  0.00    -0.384 N 
HETATM    5  H   UNL     1       4.888  31.006  46.289  1.00  0.00     0.157 HD
HETATM    6  H   UNL     1       4.284  29.391  46.492  1.00  0.00     0.157 HD
HETATM    7  C   UNL     1       5.238  31.579  48.784  1.00  0.00     0.081 A 
HETATM    8  C   UNL     1       5.390  31.648  50.164  1.00  0.00     0.187 A 
HETATM    9  N   UNL     1       5.859  32.820  50.567  1.00  0.00    -0.153 NA
HETATM   10  N   UNL     1       6.005  33.509  49.421  1.00  0.00    -0.280 N 
HETATM   11  H   UNL     1       6.357  34.460  49.481  1.00  0.00     0.189 HD
HETATM   12  C   UNL     1       5.633  32.802  48.294  1.00  0.00     0.042 A 
HETATM   13  C   UNL     1       5.703  33.404  46.946  1.00  0.00     0.071 C 
HETATM   14  N   UNL     1       5.076  30.639  51.060  1.00  0.00    -0.202 NA
ENDROOT
BRANCH   1  15
HETATM   15  S   UNL     1       4.162  28.281  51.695  1.00  0.00    -0.091 SA
BRANCH  15  16
HETATM   16  C   UNL     1       5.746  27.372  51.811  1.00  0.00     0.091 C 
BRANCH  16  17
HETATM   17  C   UNL     1       5.532  25.864  51.787  1.00  0.00     0.113 C 
BRANCH  17  18
HETATM   18  C   UNL     1       6.771  25.105  52.224  1.00  0.00     0.223 C 
HETATM   19  N   UNL     1       6.503  24.122  53.151  1.00  0.00    -0.325 N 
HETATM   20  H   UNL     1       5.536  23.994  53.433  1.00  0.00     0.169 HD
HETATM   21  O   UNL     1       7.873  25.402  51.772  1.00  0.00    -0.273 OA
BRANCH  19  22
HETATM   22  C   UNL     1       7.409  23.220  53.750  1.00  0.00     0.068 A 
HETATM   23  C   UNL     1       7.980  23.595  54.978  1.00  0.00     0.095 A 
HETATM   24  C   UNL     1       8.838  22.738  55.672  1.00  0.00     0.039 A 
HETATM   25  C   UNL     1       9.169  21.505  55.118  1.00  0.00     0.003 A 
HETATM   26  C   UNL     1       8.635  21.133  53.885  1.00  0.00     0.002 A 
HETATM   27  C   UNL     1       7.757  21.985  53.204  1.00  0.00     0.032 A 
BRANCH  23  28
HETATM   28  O   UNL     1       7.687  24.813  55.545  1.00  0.00    -0.349 OA
BRANCH  28  29
HETATM   29  C   UNL     1       6.990  24.631  56.787  1.00  0.00     0.171 C 
HETATM   30  C   UNL     1       5.587  25.188  56.640  1.00  0.00     0.034 C 
ENDBRANCH  28  29
ENDBRANCH  23  28
ENDBRANCH  19  22
ENDBRANCH  17  18
ENDBRANCH  16  17
ENDBRANCH  15  16
ENDBRANCH   1  15
BRANCH   2  31
HETATM   31  C   UNL     1       3.753  28.124  48.676  1.00  0.00     0.065 A 
HETATM   32  C   UNL     1       2.355  28.047  48.514  1.00  0.00     0.061 A 
HETATM   33 CL   UNL     1       1.329  29.375  48.930  1.00  0.00    -0.082 Cl
HETATM   34  C   UNL     1       1.760  26.894  47.999  1.00  0.00     0.026 A 
HETATM   35  C   UNL     1       2.550  25.803  47.641  1.00  0.00     0.002 A 
HETATM   36  C   UNL     1       3.935  25.864  47.795  1.00  0.00     0.002 A 
HETATM   37  C   UNL     1       4.535  27.017  48.305  1.00  0.00     0.032 A 
ENDBRANCH   2  31
TORSDOF 8
ENDMDL
MODEL 9
REMARK VINA RESULT:      -8.4      1.358      2.489
REMARK  8 active torsions:
REMARK  status: ('A' for Active; 'I' for Inactive)
REMARK    1  A    between atoms: C_2  and  O_3 
REMARK    2  A    between atoms: O_3  and  C_4 
REMARK    3  A    between atoms: C_5  and  N_6 
REMARK       I    between atoms: N_6  and  C_7 
REMARK    4  A    between atoms: C_7  and  C_8 
REMARK    5  A    between atoms: C_8  and  C_9 
REMARK    6  A    between atoms: C_9  and  S_10 
REMARK    7  A    between atoms: S_10  and  C_11 
REMARK    8  A    between atoms: N_12  and  C_13 
ROOT
HETATM    1  C   UNL     1       6.320  28.082  55.207  1.00  0.00     0.177 A 
HETATM    2  N   UNL     1       6.011  27.016  54.332  1.00  0.00    -0.274 N 
HETATM    3  C   UNL     1       4.943  27.214  53.380  1.00  0.00     0.124 A 
HETATM    4  N   UNL     1       4.588  26.310  52.488  1.00  0.00    -0.384 N 
HETATM    5  H   UNL     1       3.839  26.492  51.836  1.00  0.00     0.157 HD
HETATM    6  H   UNL     1       5.061  25.417  52.442  1.00  0.00     0.157 HD
HETATM    7  C   UNL     1       4.279  28.478  53.428  1.00  0.00     0.081 A 
HETATM    8  C   UNL     1       4.719  29.426  54.344  1.00  0.00     0.187 A 
HETATM    9  N   UNL     1       4.020  30.551  54.291  1.00  0.00    -0.153 NA
HETATM   10  N   UNL     1       3.116  30.311  53.323  1.00  0.00    -0.280 N 
HETATM   11  H   UNL     1       2.452  31.047  53.102  1.00  0.00     0.189 HD
HETATM   12  C   UNL     1       3.221  29.053  52.762  1.00  0.00     0.042 A 
HETATM   13  C   UNL     1       2.298  28.602  51.700  1.00  0.00     0.071 C 
HETATM   14  N   UNL     1       5.754  29.252  55.249  1.00  0.00    -0.202 NA
ENDROOT
BRANCH   1  15
HETATM   15  S   UNL     1       7.634  27.865  56.406  1.00  0.00    -0.091 SA
BRANCH  15  16
HETATM   16  C   UNL     1       7.939  29.599  56.906  1.00  0.00     0.091 C 
BRANCH  16  17
HETATM   17  C   UNL     1       8.124  29.725  58.413  1.00  0.00     0.113 C 
BRANCH  17  18
HETATM   18  C   UNL     1       7.758  31.108  58.919  1.00  0.00     0.223 C 
HETATM   19  N   UNL     1       6.452  31.198  59.349  1.00  0.00    -0.325 N 
HETATM   20  H   UNL     1       5.884  30.358  59.302  1.00  0.00     0.169 HD
HETATM   21  O   UNL     1       8.584  32.016  58.898  1.00  0.00    -0.273 OA
BRANCH  19  22
HETATM   22  C   UNL     1       5.792  32.319  59.895  1.00  0.00     0.068 A 
HETATM   23  C   UNL     1       5.970  32.572  61.266  1.00  0.00     0.095 A 
HETATM   24  C   UNL     1       5.405  33.692  61.878  1.00  0.00     0.039 A 
HETATM   25  C   UNL     1       4.613  34.557  61.127  1.00  0.00     0.003 A 
HETATM   26  C   UNL     1       4.401  34.302  59.773  1.00  0.00     0.002 A 
HETATM   27  C   UNL     1       4.989  33.189  59.158  1.00  0.00     0.032 A 
BRANCH  23  28
HETATM   28  O   UNL     1       6.732  31.729  62.041  1.00  0.00    -0.349 OA
BRANCH  28  29
HETATM   29  C   UNL     1       7.986  32.347  62.366  1.00  0.00     0.171 C 
HETATM   30  C   UNL     1       7.982  32.700  63.841  1.00  0.00     0.034 C 
ENDBRANCH  28  29
ENDBRANCH  23  28
ENDBRANCH  19  22
ENDBRANCH  17  18
ENDBRANCH  16  17
ENDBRANCH  15  16
ENDBRANCH   1  15
BRANCH   2  31
HETATM   31  C   UNL     1       6.645  25.740  54.453  1.00  0.00     0.065 A 
HETATM   32  C   UNL     1       6.275  24.825  55.461  1.00  0.00     0.061 A 
HETATM   33 CL   UNL     1       5.079  25.225  56.641  1.00  0.00    -0.082 Cl
HETATM   34  C   UNL     1       6.861  23.558  55.522  1.00  0.00     0.026 A 
HETATM   35  C   UNL     1       7.823  23.190  54.583  1.00  0.00     0.002 A 
HETATM   36  C   UNL     1       8.199  24.084  53.581  1.00  0.00     0.002 A 
HETATM   37  C   UNL     1       7.612  25.350  53.512  1.00  0.00     0.032 A 
ENDBRANCH   2  31
TORSDOF 8
ENDMDL
MODEL 10
REMARK VINA RESULT:      -8.2      4.463      9.210
REMARK  8 active torsions:
REMARK  status: ('A' for Active; 'I' for Inactive)
REMARK    1  A    between atoms: C_2  and  O_3 
REMARK    2  A    between atoms: O_3  and  C_4 
REMARK    3  A    between atoms: C_5  and  N_6 
REMARK       I    between atoms: N_6  and  C_7 
REMARK    4  A    between atoms: C_7  and  C_8 
REMARK    5  A    between atoms: C_8  and  C_9 
REMARK    6  A    between atoms: C_9  and  S_10 
REMARK    7  A    between atoms: S_10  and  C_11 
REMARK    8  A    between atoms: N_12  and  C_13 
ROOT
HETATM    1  C   UNL     1       7.533  25.462  54.188  1.00  0.00     0.177 A 
HETATM    2  N   UNL     1       7.242  25.593  55.565  1.00  0.00    -0.274 N 
HETATM    3  C   UNL     1       7.551  24.477  56.428  1.00  0.00     0.124 A 
HETATM    4  N   UNL     1       7.363  24.494  57.733  1.00  0.00    -0.384 N 
HETATM    5  H   UNL     1       7.598  23.693  58.301  1.00  0.00     0.157 HD
HETATM    6  H   UNL     1       6.977  25.311  58.188  1.00  0.00     0.157 HD
HETATM    7  C   UNL     1       8.110  23.324  55.796  1.00  0.00     0.081 A 
HETATM    8  C   UNL     1       8.346  23.365  54.427  1.00  0.00     0.187 A 
HETATM    9  N   UNL     1       8.861  22.236  53.963  1.00  0.00    -0.153 NA
HETATM   10  N   UNL     1       8.950  21.460  55.060  1.00  0.00    -0.280 N 
HETATM   11  H   UNL     1       9.322  20.522  54.947  1.00  0.00     0.189 HD
HETATM   12  C   UNL     1       8.497  22.071  56.212  1.00  0.00     0.042 A 
HETATM   13  C   UNL     1       8.495  21.366  57.511  1.00  0.00     0.071 C 
HETATM   14  N   UNL     1       8.070  24.437  53.594  1.00  0.00    -0.202 NA
ENDROOT
BRANCH   1  15
HETATM   15  S   UNL     1       7.153  26.825  53.089  1.00  0.00    -0.091 SA
BRANCH  15  16
HETATM   16  C   UNL     1       6.601  25.925  51.595  1.00  0.00     0.091 C 
BRANCH  16  17
HETATM   17  C   UNL     1       5.094  26.028  51.401  1.00  0.00     0.113 C 
BRANCH  17  18
HETATM   18  C   UNL     1       4.679  27.385  50.862  1.00  0.00     0.223 C 
HETATM   19  N   UNL     1       5.382  27.757  49.737  1.00  0.00    -0.325 N 
HETATM   20  H   UNL     1       6.074  27.105  49.379  1.00  0.00     0.169 HD
HETATM   21  O   UNL     1       3.814  28.042  51.433  1.00  0.00    -0.273 OA
BRANCH  19  22
HETATM   22  C   UNL     1       5.239  28.934  48.972  1.00  0.00     0.068 A 
HETATM   23  C   UNL     1       4.763  28.798  47.656  1.00  0.00     0.095 A 
HETATM   24  C   UNL     1       4.532  29.913  46.849  1.00  0.00     0.039 A 
HETATM   25  C   UNL     1       4.818  31.185  47.338  1.00  0.00     0.003 A 
HETATM   26  C   UNL     1       5.321  31.333  48.630  1.00  0.00     0.002 A 
HETATM   27  C   UNL     1       5.529  30.213  49.445  1.00  0.00     0.032 A 
BRANCH  23  28
HETATM   28  O   UNL     1       4.487  27.555  47.136  1.00  0.00    -0.349 OA
BRANCH  28  29
HETATM   29  C   UNL     1       3.078  27.287  47.207  1.00  0.00     0.171 C 
HETATM   30  C   UNL     1       2.869  25.786  47.143  1.00  0.00     0.034 C 
ENDBRANCH  28  29
ENDBRANCH  23  28
ENDBRANCH  19  22
ENDBRANCH  17  18
ENDBRANCH  16  17
ENDBRANCH  15  16
ENDBRANCH   1  15
BRANCH   2  31
HETATM   31  C   UNL     1       6.558  26.738  56.080  1.00  0.00     0.065 A 
HETATM   32  C   UNL     1       7.248  27.773  56.744  1.00  0.00     0.061 A 
HETATM   33 CL   UNL     1       8.950  27.681  57.025  1.00  0.00    -0.082 Cl
HETATM   34  C   UNL     1       6.570  28.913  57.183  1.00  0.00     0.026 A 
HETATM   35  C   UNL     1       5.198  29.034  56.967  1.00  0.00     0.002 A 
HETATM   36  C   UNL     1       4.502  28.019  56.312  1.00  0.00     0.002 A 
HETATM   37  C   UNL     1       5.176  26.879  55.867  1.00  0.00     0.032 A 
ENDBRANCH   2  31
TORSDOF 8
ENDMDL
