MODEL 1
REMARK VINA RESULT:     -11.2      0.000      0.000
REMARK  2 active torsions:
REMARK  status: ('A' for Active; 'I' for Inactive)
REMARK    1  A    between atoms: C_5  and  N_6 
REMARK    2  A    between atoms: C_9  and  C_10 
REMARK       I    between atoms: C_10  and  N_11 
ROOT
HETATM    1  N   UNL     1       6.754  27.163  55.144  1.00  0.00    -0.281 N 
HETATM    2  C   UNL     1       7.544  27.555  56.247  1.00  0.00     0.268 A 
HETATM    3  O   UNL     1       8.435  26.887  56.783  1.00  0.00    -0.267 OA
HETATM    4  C   UNL     1       7.330  28.922  56.786  1.00  0.00     0.101 A 
HETATM    5  C   UNL     1       6.408  29.712  56.219  1.00  0.00     0.040 A 
HETATM    6  C   UNL     1       5.599  29.263  55.111  1.00  0.00     0.034 A 
HETATM    7  C   UNL     1       5.765  28.025  54.600  1.00  0.00     0.034 A 
HETATM    8  C   UNL     1       4.830  27.503  53.518  1.00  0.00     0.059 C 
HETATM    9  C   UNL     1       3.503  28.253  53.457  1.00  0.00     0.014 C 
HETATM   10  C   UNL     1       3.736  29.747  53.378  1.00  0.00     0.084 C 
HETATM   11  C   UNL     1       4.576  30.206  54.541  1.00  0.00     0.161 C 
HETATM   12  O   UNL     1       4.487  31.351  54.982  1.00  0.00    -0.292 OA
ENDROOT
BRANCH   4  13
HETATM   13  C   UNL     1       8.116  29.484  57.912  1.00  0.00     0.262 C 
HETATM   14  N   UNL     1       7.372  30.307  58.809  1.00  0.00    -0.309 N 
HETATM   15  H   UNL     1       6.406  30.487  58.536  1.00  0.00     0.170 HD
HETATM   16  C   UNL     1       7.746  30.864  59.947  1.00  0.00     0.108 A 
HETATM   17  N   UNL     1       6.889  31.609  60.653  1.00  0.00    -0.346 N 
HETATM   18  C   UNL     1       9.121  30.696  60.525  1.00  0.00     0.049 A 
HETATM   19  C   UNL     1       7.225  32.205  61.867  1.00  0.00     0.007 A 
HETATM   20  H   UNL     1       5.950  31.753  60.304  1.00  0.00     0.167 HD
HETATM   21  C   UNL     1       6.154  33.001  62.551  1.00  0.00     0.068 C 
HETATM   22  C   UNL     1       8.455  32.053  62.385  1.00  0.00     0.025 A 
HETATM   23  C   UNL     1       9.444  31.273  61.690  1.00  0.00     0.006 A 
HETATM   24  O   UNL     1       9.299  29.265  58.093  1.00  0.00    -0.267 OA
ENDBRANCH   4  13
BRANCH   1  25
HETATM   25  C   UNL     1       7.011  25.860  54.593  1.00  0.00     0.042 A 
HETATM   26  C   UNL     1       7.683  25.724  53.372  1.00  0.00     0.030 A 
HETATM   27  C   UNL     1       8.024  24.457  52.888  1.00  0.00     0.009 A 
HETATM   28  C   UNL     1       7.685  23.305  53.605  1.00  0.00    -0.062 A 
HETATM   29  C   UNL     1       8.084  21.941  53.121  1.00  0.00     0.048 C 
HETATM   30  C   UNL     1       6.967  23.436  54.798  1.00  0.00     0.009 A 
HETATM   31  C   UNL     1       6.631  24.702  55.286  1.00  0.00     0.030 A 
ENDBRANCH   1  25
TORSDOF 2
ENDMDL
MODEL 2
REMARK VINA RESULT:     -11.1      1.363      4.314
REMARK  2 active torsions:
REMARK  status: ('A' for Active; 'I' for Inactive)
REMARK    1  A    between atoms: C_5  and  N_6 
REMARK    2  A    between atoms: C_9  and  C_10 
REMARK       I    between atoms: C_10  and  N_11 
ROOT
HETATM    1  N   UNL     1       6.593  27.523  55.079  1.00  0.00    -0.281 N 
HETATM    2  C   UNL     1       7.158  28.584  55.821  1.00  0.00     0.268 A 
HETATM    3  O   UNL     1       6.923  29.788  55.673  1.00  0.00    -0.267 OA
HETATM    4  C   UNL     1       8.084  28.224  56.925  1.00  0.00     0.101 A 
HETATM    5  C   UNL     1       8.345  26.932  57.165  1.00  0.00     0.040 A 
HETATM    6  C   UNL     1       7.769  25.877  56.363  1.00  0.00     0.034 A 
HETATM    7  C   UNL     1       6.929  26.171  55.350  1.00  0.00     0.034 A 
HETATM    8  C   UNL     1       6.421  25.073  54.425  1.00  0.00     0.059 C 
HETATM    9  C   UNL     1       7.291  23.820  54.442  1.00  0.00     0.014 C 
HETATM   10  C   UNL     1       7.519  23.348  55.863  1.00  0.00     0.084 C 
HETATM   11  C   UNL     1       8.125  24.453  56.689  1.00  0.00     0.161 C 
HETATM   12  O   UNL     1       8.843  24.208  57.657  1.00  0.00    -0.292 OA
ENDROOT
BRANCH   4  13
HETATM   13  C   UNL     1       8.717  29.228  57.814  1.00  0.00     0.262 C 
HETATM   14  N   UNL     1       7.859  29.760  58.824  1.00  0.00    -0.309 N 
HETATM   15  H   UNL     1       6.887  29.456  58.773  1.00  0.00     0.170 HD
HETATM   16  C   UNL     1       8.139  30.581  59.819  1.00  0.00     0.108 A 
HETATM   17  N   UNL     1       7.184  30.965  60.672  1.00  0.00    -0.346 N 
HETATM   18  C   UNL     1       9.518  31.118  60.071  1.00  0.00     0.049 A 
HETATM   19  C   UNL     1       7.428  31.815  61.750  1.00  0.00     0.007 A 
HETATM   20  H   UNL     1       6.238  30.631  60.543  1.00  0.00     0.167 HD
HETATM   21  C   UNL     1       6.259  32.148  62.628  1.00  0.00     0.068 C 
HETATM   22  C   UNL     1       8.661  32.295  61.976  1.00  0.00     0.025 A 
HETATM   23  C   UNL     1       9.750  31.938  61.105  1.00  0.00     0.006 A 
HETATM   24  O   UNL     1       9.879  29.580  57.727  1.00  0.00    -0.267 OA
ENDBRANCH   4  13
BRANCH   1  25
HETATM   25  C   UNL     1       5.653  27.881  54.051  1.00  0.00     0.042 A 
HETATM   26  C   UNL     1       4.287  27.987  54.342  1.00  0.00     0.030 A 
HETATM   27  C   UNL     1       3.387  28.435  53.369  1.00  0.00     0.009 A 
HETATM   28  C   UNL     1       3.834  28.768  52.086  1.00  0.00    -0.062 A 
HETATM   29  C   UNL     1       2.888  29.294  51.045  1.00  0.00     0.048 C 
HETATM   30  C   UNL     1       5.189  28.614  51.778  1.00  0.00     0.009 A 
HETATM   31  C   UNL     1       6.089  28.172  52.751  1.00  0.00     0.030 A 
ENDBRANCH   1  25
TORSDOF 2
ENDMDL
MODEL 3
REMARK VINA RESULT:     -10.6      3.684      9.217
REMARK  2 active torsions:
REMARK  status: ('A' for Active; 'I' for Inactive)
REMARK    1  A    between atoms: C_5  and  N_6 
REMARK    2  A    between atoms: C_9  and  C_10 
REMARK       I    between atoms: C_10  and  N_11 
ROOT
HETATM    1  N   UNL     1       6.963  26.236  54.965  1.00  0.00    -0.281 N 
HETATM    2  C   UNL     1       6.115  26.399  53.848  1.00  0.00     0.268 A 
HETATM    3  O   UNL     1       5.549  27.443  53.504  1.00  0.00    -0.267 OA
HETATM    4  C   UNL     1       5.921  25.223  52.963  1.00  0.00     0.101 A 
HETATM    5  C   UNL     1       6.543  24.073  53.257  1.00  0.00     0.040 A 
HETATM    6  C   UNL     1       7.378  23.938  54.427  1.00  0.00     0.034 A 
HETATM    7  C   UNL     1       7.571  24.986  55.255  1.00  0.00     0.034 A 
HETATM    8  C   UNL     1       8.346  24.813  56.554  1.00  0.00     0.059 C 
HETATM    9  C   UNL     1       8.419  23.364  57.023  1.00  0.00     0.014 C 
HETATM   10  C   UNL     1       8.910  22.464  55.908  1.00  0.00     0.084 C 
HETATM   11  C   UNL     1       8.028  22.609  54.695  1.00  0.00     0.161 C 
HETATM   12  O   UNL     1       7.889  21.687  53.892  1.00  0.00    -0.292 OA
ENDROOT
BRANCH   4  13
HETATM   13  C   UNL     1       5.094  25.259  51.732  1.00  0.00     0.262 C 
HETATM   14  N   UNL     1       5.220  26.455  50.962  1.00  0.00    -0.309 N 
HETATM   15  H   UNL     1       5.796  27.184  51.381  1.00  0.00     0.170 HD
HETATM   16  C   UNL     1       4.707  26.754  49.783  1.00  0.00     0.108 A 
HETATM   17  N   UNL     1       4.946  27.942  49.219  1.00  0.00    -0.346 N 
HETATM   18  C   UNL     1       3.850  25.802  48.999  1.00  0.00     0.049 A 
HETATM   19  C   UNL     1       4.445  28.303  47.969  1.00  0.00     0.007 A 
HETATM   20  H   UNL     1       5.518  28.619  49.708  1.00  0.00     0.167 HD
HETATM   21  C   UNL     1       4.810  29.665  47.461  1.00  0.00     0.068 C 
HETATM   22  C   UNL     1       3.680  27.451  47.268  1.00  0.00     0.025 A 
HETATM   23  C   UNL     1       3.366  26.152  47.800  1.00  0.00     0.006 A 
HETATM   24  O   UNL     1       4.368  24.352  51.370  1.00  0.00    -0.267 OA
ENDBRANCH   4  13
BRANCH   1  25
HETATM   25  C   UNL     1       7.189  27.398  55.783  1.00  0.00     0.042 A 
HETATM   26  C   UNL     1       6.362  27.665  56.881  1.00  0.00     0.030 A 
HETATM   27  C   UNL     1       6.643  28.737  57.736  1.00  0.00     0.009 A 
HETATM   28  C   UNL     1       7.744  29.566  57.499  1.00  0.00    -0.062 A 
HETATM   29  C   UNL     1       8.085  30.692  58.432  1.00  0.00     0.048 C 
HETATM   30  C   UNL     1       8.540  29.332  56.373  1.00  0.00     0.009 A 
HETATM   31  C   UNL     1       8.263  28.259  55.522  1.00  0.00     0.030 A 
ENDBRANCH   1  25
TORSDOF 2
ENDMDL
MODEL 4
REMARK VINA RESULT:     -10.4      1.673      2.345
REMARK  2 active torsions:
REMARK  status: ('A' for Active; 'I' for Inactive)
REMARK    1  A    between atoms: C_5  and  N_6 
REMARK    2  A    between atoms: C_9  and  C_10 
REMARK       I    between atoms: C_10  and  N_11 
ROOT
HETATM    1  N   UNL     1       7.626  25.508  55.607  1.00  0.00    -0.281 N 
HETATM    2  C   UNL     1       8.229  26.400  56.521  1.00  0.00     0.268 A 
HETATM    3  O   UNL     1       9.059  26.108  57.390  1.00  0.00    -0.267 OA
HETATM    4  C   UNL     1       7.880  27.838  56.398  1.00  0.00     0.101 A 
HETATM    5  C   UNL     1       7.020  28.224  55.447  1.00  0.00     0.040 A 
HETATM    6  C   UNL     1       6.401  27.276  54.551  1.00  0.00     0.034 A 
HETATM    7  C   UNL     1       6.692  25.961  54.639  1.00  0.00     0.034 A 
HETATM    8  C   UNL     1       5.949  24.946  53.782  1.00  0.00     0.059 C 
HETATM    9  C   UNL     1       4.614  25.464  53.255  1.00  0.00     0.014 C 
HETATM   10  C   UNL     1       4.793  26.806  52.575  1.00  0.00     0.084 C 
HETATM   11  C   UNL     1       5.434  27.788  53.520  1.00  0.00     0.161 C 
HETATM   12  O   UNL     1       5.233  28.998  53.417  1.00  0.00    -0.292 OA
ENDROOT
BRANCH   4  13
HETATM   13  C   UNL     1       8.468  28.893  57.260  1.00  0.00     0.262 C 
HETATM   14  N   UNL     1       7.520  29.653  58.008  1.00  0.00    -0.309 N 
HETATM   15  H   UNL     1       6.541  29.446  57.807  1.00  0.00     0.170 HD
HETATM   16  C   UNL     1       7.720  30.580  58.927  1.00  0.00     0.108 A 
HETATM   17  N   UNL     1       6.686  31.182  59.522  1.00  0.00    -0.346 N 
HETATM   18  C   UNL     1       9.089  31.005  59.372  1.00  0.00     0.049 A 
HETATM   19  C   UNL     1       6.840  32.153  60.510  1.00  0.00     0.007 A 
HETATM   20  H   UNL     1       5.743  30.930  59.255  1.00  0.00     0.167 HD
HETATM   21  C   UNL     1       5.586  32.729  61.095  1.00  0.00     0.068 C 
HETATM   22  C   UNL     1       8.065  32.532  60.910  1.00  0.00     0.025 A 
HETATM   23  C   UNL     1       9.237  31.941  60.320  1.00  0.00     0.006 A 
HETATM   24  O   UNL     1       9.662  29.108  57.356  1.00  0.00    -0.267 OA
ENDBRANCH   4  13
BRANCH   1  25
HETATM   25  C   UNL     1       8.015  24.126  55.698  1.00  0.00     0.042 A 
HETATM   26  C   UNL     1       7.680  23.366  56.826  1.00  0.00     0.030 A 
HETATM   27  C   UNL     1       7.967  21.998  56.870  1.00  0.00     0.009 A 
HETATM   28  C   UNL     1       8.609  21.370  55.797  1.00  0.00    -0.062 A 
HETATM   29  C   UNL     1       8.883  19.894  55.810  1.00  0.00     0.048 C 
HETATM   30  C   UNL     1       8.991  22.138  54.693  1.00  0.00     0.009 A 
HETATM   31  C   UNL     1       8.699  23.504  54.646  1.00  0.00     0.030 A 
ENDBRANCH   1  25
TORSDOF 2
ENDMDL
MODEL 5
REMARK VINA RESULT:     -10.3      3.355      8.083
REMARK  2 active torsions:
REMARK  status: ('A' for Active; 'I' for Inactive)
REMARK    1  A    between atoms: C_5  and  N_6 
REMARK    2  A    between atoms: C_9  and  C_10 
REMARK       I    between atoms: C_10  and  N_11 
ROOT
HETATM    1  N   UNL     1       6.657  26.084  54.321  1.00  0.00    -0.281 N 
HETATM    2  C   UNL     1       5.806  26.507  53.276  1.00  0.00     0.268 A 
HETATM    3  O   UNL     1       5.460  25.837  52.297  1.00  0.00    -0.267 OA
HETATM    4  C   UNL     1       5.222  27.868  53.384  1.00  0.00     0.101 A 
HETATM    5  C   UNL     1       5.524  28.628  54.445  1.00  0.00     0.040 A 
HETATM    6  C   UNL     1       6.423  28.169  55.478  1.00  0.00     0.034 A 
HETATM    7  C   UNL     1       6.975  26.940  55.408  1.00  0.00     0.034 A 
HETATM    8  C   UNL     1       8.019  26.502  56.426  1.00  0.00     0.059 C 
HETATM    9  C   UNL     1       8.689  27.670  57.142  1.00  0.00     0.014 C 
HETATM   10  C   UNL     1       7.651  28.612  57.716  1.00  0.00     0.084 C 
HETATM   11  C   UNL     1       6.722  29.089  56.629  1.00  0.00     0.161 C 
HETATM   12  O   UNL     1       6.158  30.179  56.704  1.00  0.00    -0.292 OA
ENDROOT
BRANCH   4  13
HETATM   13  C   UNL     1       4.280  28.429  52.385  1.00  0.00     0.262 C 
HETATM   14  N   UNL     1       4.138  27.655  51.194  1.00  0.00    -0.309 N 
HETATM   15  H   UNL     1       4.758  26.848  51.124  1.00  0.00     0.170 HD
HETATM   16  C   UNL     1       3.317  27.822  50.174  1.00  0.00     0.108 A 
HETATM   17  N   UNL     1       3.336  26.975  49.141  1.00  0.00    -0.346 N 
HETATM   18  C   UNL     1       2.315  28.938  50.107  1.00  0.00     0.049 A 
HETATM   19  C   UNL     1       2.479  27.094  48.047  1.00  0.00     0.007 A 
HETATM   20  H   UNL     1       3.994  26.206  49.139  1.00  0.00     0.167 HD
HETATM   21  C   UNL     1       2.609  26.060  46.969  1.00  0.00     0.068 C 
HETATM   22  C   UNL     1       1.583  28.092  47.987  1.00  0.00     0.025 A 
HETATM   23  C   UNL     1       1.496  29.054  49.054  1.00  0.00     0.006 A 
HETATM   24  O   UNL     1       3.649  29.458  52.544  1.00  0.00    -0.267 OA
ENDBRANCH   4  13
BRANCH   1  25
HETATM   25  C   UNL     1       7.170  24.743  54.235  1.00  0.00     0.042 A 
HETATM   26  C   UNL     1       6.903  23.814  55.249  1.00  0.00     0.030 A 
HETATM   27  C   UNL     1       7.314  22.483  55.117  1.00  0.00     0.009 A 
HETATM   28  C   UNL     1       8.012  22.063  53.980  1.00  0.00    -0.062 A 
HETATM   29  C   UNL     1       8.419  20.629  53.803  1.00  0.00     0.048 C 
HETATM   30  C   UNL     1       8.325  23.001  52.991  1.00  0.00     0.009 A 
HETATM   31  C   UNL     1       7.910  24.329  53.120  1.00  0.00     0.030 A 
ENDBRANCH   1  25
TORSDOF 2
ENDMDL
MODEL 6
REMARK VINA RESULT:     -10.3      2.627      4.782
REMARK  2 active torsions:
REMARK  status: ('A' for Active; 'I' for Inactive)
REMARK    1  A    between atoms: C_5  and  N_6 
REMARK    2  A    between atoms: C_9  and  C_10 
REMARK       I    between atoms: C_10  and  N_11 
ROOT
HETATM    1  N   UNL     1       7.271  28.767  57.265  1.00  0.00    -0.281 N 
HETATM    2  C   UNL     1       6.069  29.427  57.604  1.00  0.00     0.268 A 
HETATM    3  O   UNL     1       4.925  28.973  57.482  1.00  0.00    -0.267 OA
HETATM    4  C   UNL     1       6.181  30.774  58.218  1.00  0.00     0.101 A 
HETATM    5  C   UNL     1       7.396  31.303  58.417  1.00  0.00     0.040 A 
HETATM    6  C   UNL     1       8.601  30.609  58.028  1.00  0.00     0.034 A 
HETATM    7  C   UNL     1       8.533  29.385  57.464  1.00  0.00     0.034 A 
HETATM    8  C   UNL     1       9.790  28.706  56.938  1.00  0.00     0.059 C 
HETATM    9  C   UNL     1      10.934  29.679  56.669  1.00  0.00     0.014 C 
HETATM   10  C   UNL     1      11.187  30.554  57.880  1.00  0.00     0.084 C 
HETATM   11  C   UNL     1       9.925  31.278  58.273  1.00  0.00     0.161 C 
HETATM   12  O   UNL     1       9.964  32.365  58.847  1.00  0.00    -0.292 OA
ENDROOT
BRANCH   4  13
HETATM   13  C   UNL     1       5.008  31.565  58.664  1.00  0.00     0.262 C 
HETATM   14  N   UNL     1       5.035  31.955  60.036  1.00  0.00    -0.309 N 
HETATM   15  H   UNL     1       5.813  31.580  60.580  1.00  0.00     0.170 HD
HETATM   16  C   UNL     1       4.209  32.737  60.706  1.00  0.00     0.108 A 
HETATM   17  N   UNL     1       4.410  32.987  62.003  1.00  0.00    -0.346 N 
HETATM   18  C   UNL     1       3.018  33.399  60.073  1.00  0.00     0.049 A 
HETATM   19  C   UNL     1       3.579  33.818  62.753  1.00  0.00     0.007 A 
HETATM   20  H   UNL     1       5.198  32.563  62.475  1.00  0.00     0.167 HD
HETATM   21  C   UNL     1       3.939  34.014  64.195  1.00  0.00     0.068 C 
HETATM   22  C   UNL     1       2.515  34.411  62.187  1.00  0.00     0.025 A 
HETATM   23  C   UNL     1       2.218  34.194  60.796  1.00  0.00     0.006 A 
HETATM   24  O   UNL     1       4.086  31.885  57.937  1.00  0.00    -0.267 OA
ENDBRANCH   4  13
BRANCH   1  25
HETATM   25  C   UNL     1       7.151  27.440  56.725  1.00  0.00     0.042 A 
HETATM   26  C   UNL     1       7.007  27.245  55.346  1.00  0.00     0.030 A 
HETATM   27  C   UNL     1       6.994  25.952  54.810  1.00  0.00     0.009 A 
HETATM   28  C   UNL     1       7.109  24.835  55.643  1.00  0.00    -0.062 A 
HETATM   29  C   UNL     1       7.144  23.444  55.080  1.00  0.00     0.048 C 
HETATM   30  C   UNL     1       7.202  25.027  57.025  1.00  0.00     0.009 A 
HETATM   31  C   UNL     1       7.219  26.317  57.561  1.00  0.00     0.030 A 
ENDBRANCH   1  25
TORSDOF 2
ENDMDL
MODEL 7
REMARK VINA RESULT:     -10.2      2.997      8.703
REMARK  2 active torsions:
REMARK  status: ('A' for Active; 'I' for Inactive)
REMARK    1  A    between atoms: C_5  and  N_6 
REMARK    2  A    between atoms: C_9  and  C_10 
REMARK       I    between atoms: C_10  and  N_11 
ROOT
HETATM    1  N   UNL     1       7.451  27.634  56.067  1.00  0.00    -0.281 N 
HETATM    2  C   UNL     1       6.510  28.170  55.160  1.00  0.00     0.268 A 
HETATM    3  O   UNL     1       6.195  29.360  55.049  1.00  0.00    -0.267 OA
HETATM    4  C   UNL     1       5.873  27.227  54.206  1.00  0.00     0.101 A 
HETATM    5  C   UNL     1       6.205  25.930  54.246  1.00  0.00     0.040 A 
HETATM    6  C   UNL     1       7.150  25.417  55.210  1.00  0.00     0.034 A 
HETATM    7  C   UNL     1       7.744  26.245  56.094  1.00  0.00     0.034 A 
HETATM    8  C   UNL     1       8.642  25.691  57.191  1.00  0.00     0.059 C 
HETATM    9  C   UNL     1       8.401  24.212  57.476  1.00  0.00     0.014 C 
HETATM   10  C   UNL     1       8.452  23.405  56.195  1.00  0.00     0.084 C 
HETATM   11  C   UNL     1       7.459  23.946  55.199  1.00  0.00     0.161 C 
HETATM   12  O   UNL     1       6.954  23.221  54.343  1.00  0.00    -0.292 OA
ENDROOT
BRANCH   4  13
HETATM   13  C   UNL     1       4.900  27.654  53.170  1.00  0.00     0.262 C 
HETATM   14  N   UNL     1       5.412  27.666  51.837  1.00  0.00    -0.309 N 
HETATM   15  H   UNL     1       6.407  27.461  51.752  1.00  0.00     0.170 HD
HETATM   16  C   UNL     1       4.786  27.894  50.697  1.00  0.00     0.108 A 
HETATM   17  N   UNL     1       5.449  27.856  49.538  1.00  0.00    -0.346 N 
HETATM   18  C   UNL     1       3.316  28.191  50.618  1.00  0.00     0.049 A 
HETATM   19  C   UNL     1       4.835  28.071  48.305  1.00  0.00     0.007 A 
HETATM   20  H   UNL     1       6.442  27.661  49.539  1.00  0.00     0.167 HD
HETATM   21  C   UNL     1       5.707  27.984  47.089  1.00  0.00     0.068 C 
HETATM   22  C   UNL     1       3.520  28.335  48.235  1.00  0.00     0.025 A 
HETATM   23  C   UNL     1       2.727  28.401  49.434  1.00  0.00     0.006 A 
HETATM   24  O   UNL     1       3.746  27.960  53.403  1.00  0.00    -0.267 OA
ENDBRANCH   4  13
BRANCH   1  25
HETATM   25  C   UNL     1       8.105  28.566  56.947  1.00  0.00     0.042 A 
HETATM   26  C   UNL     1       9.349  29.111  56.607  1.00  0.00     0.030 A 
HETATM   27  C   UNL     1       9.937  30.093  57.412  1.00  0.00     0.009 A 
HETATM   28  C   UNL     1       9.299  30.534  58.576  1.00  0.00    -0.062 A 
HETATM   29  C   UNL     1       9.895  31.620  59.425  1.00  0.00     0.048 C 
HETATM   30  C   UNL     1       8.082  29.954  58.945  1.00  0.00     0.009 A 
HETATM   31  C   UNL     1       7.492  28.977  58.139  1.00  0.00     0.030 A 
ENDBRANCH   1  25
TORSDOF 2
ENDMDL
MODEL 8
REMARK VINA RESULT:      -9.7      2.449      5.744
REMARK  2 active torsions:
REMARK  status: ('A' for Active; 'I' for Inactive)
REMARK    1  A    between atoms: C_5  and  N_6 
REMARK    2  A    between atoms: C_9  and  C_10 
REMARK       I    between atoms: C_10  and  N_11 
ROOT
HETATM    1  N   UNL     1       5.623  30.875  56.678  1.00  0.00    -0.281 N 
HETATM    2  C   UNL     1       6.035  31.556  57.844  1.00  0.00     0.268 A 
HETATM    3  O   UNL     1       5.591  32.633  58.259  1.00  0.00    -0.267 OA
HETATM    4  C   UNL     1       7.062  30.897  58.690  1.00  0.00     0.101 A 
HETATM    5  C   UNL     1       7.551  29.706  58.318  1.00  0.00     0.040 A 
HETATM    6  C   UNL     1       7.124  29.056  57.101  1.00  0.00     0.034 A 
HETATM    7  C   UNL     1       6.197  29.630  56.308  1.00  0.00     0.034 A 
HETATM    8  C   UNL     1       5.838  29.011  54.964  1.00  0.00     0.059 C 
HETATM    9  C   UNL     1       6.909  28.062  54.433  1.00  0.00     0.014 C 
HETATM   10  C   UNL     1       7.284  27.038  55.484  1.00  0.00     0.084 C 
HETATM   11  C   UNL     1       7.732  27.727  56.747  1.00  0.00     0.161 C 
HETATM   12  O   UNL     1       8.529  27.194  57.518  1.00  0.00    -0.292 OA
ENDROOT
BRANCH   4  13
HETATM   13  C   UNL     1       7.558  31.474  59.964  1.00  0.00     0.262 C 
HETATM   14  N   UNL     1       6.539  31.949  60.843  1.00  0.00    -0.309 N 
HETATM   15  H   UNL     1       5.591  31.917  60.468  1.00  0.00     0.170 HD
HETATM   16  C   UNL     1       6.640  32.416  62.074  1.00  0.00     0.108 A 
HETATM   17  N   UNL     1       5.553  32.815  62.741  1.00  0.00    -0.346 N 
HETATM   18  C   UNL     1       7.948  32.520  62.803  1.00  0.00     0.049 A 
HETATM   19  C   UNL     1       5.600  33.299  64.047  1.00  0.00     0.007 A 
HETATM   20  H   UNL     1       4.647  32.766  62.291  1.00  0.00     0.167 HD
HETATM   21  C   UNL     1       4.295  33.696  64.670  1.00  0.00     0.068 C 
HETATM   22  C   UNL     1       6.769  33.390  64.700  1.00  0.00     0.025 A 
HETATM   23  C   UNL     1       7.993  32.989  64.057  1.00  0.00     0.006 A 
HETATM   24  O   UNL     1       8.734  31.536  60.272  1.00  0.00    -0.267 OA
ENDBRANCH   4  13
BRANCH   1  25
HETATM   25  C   UNL     1       4.586  31.495  55.898  1.00  0.00     0.042 A 
HETATM   26  C   UNL     1       3.245  31.136  56.083  1.00  0.00     0.030 A 
HETATM   27  C   UNL     1       2.229  31.811  55.399  1.00  0.00     0.009 A 
HETATM   28  C   UNL     1       2.536  32.844  54.508  1.00  0.00    -0.062 A 
HETATM   29  C   UNL     1       1.454  33.609  53.801  1.00  0.00     0.048 C 
HETATM   30  C   UNL     1       3.876  33.170  54.282  1.00  0.00     0.009 A 
HETATM   31  C   UNL     1       4.892  32.499  54.969  1.00  0.00     0.030 A 
ENDBRANCH   1  25
TORSDOF 2
ENDMDL
MODEL 9
REMARK VINA RESULT:      -9.7      1.915      3.109
REMARK  2 active torsions:
REMARK  status: ('A' for Active; 'I' for Inactive)
REMARK    1  A    between atoms: C_5  and  N_6 
REMARK    2  A    between atoms: C_9  and  C_10 
REMARK       I    between atoms: C_10  and  N_11 
ROOT
HETATM    1  N   UNL     1       6.332  26.341  53.834  1.00  0.00    -0.281 N 
HETATM    2  C   UNL     1       6.196  27.185  54.958  1.00  0.00     0.268 A 
HETATM    3  O   UNL     1       6.568  26.935  56.110  1.00  0.00    -0.267 OA
HETATM    4  C   UNL     1       5.602  28.527  54.734  1.00  0.00     0.101 A 
HETATM    5  C   UNL     1       5.219  28.875  53.497  1.00  0.00     0.040 A 
HETATM    6  C   UNL     1       5.347  27.970  52.379  1.00  0.00     0.034 A 
HETATM    7  C   UNL     1       5.879  26.743  52.550  1.00  0.00     0.034 A 
HETATM    8  C   UNL     1       5.899  25.742  51.402  1.00  0.00     0.059 C 
HETATM    9  C   UNL     1       4.884  26.060  50.308  1.00  0.00     0.014 C 
HETATM   10  C   UNL     1       5.021  27.498  49.853  1.00  0.00     0.084 C 
HETATM   11  C   UNL     1       4.881  28.433  51.026  1.00  0.00     0.161 C 
HETATM   12  O   UNL     1       4.459  29.579  50.883  1.00  0.00    -0.292 OA
ENDROOT
BRANCH   4  13
HETATM   13  C   UNL     1       5.438  29.533  55.811  1.00  0.00     0.262 C 
HETATM   14  N   UNL     1       6.437  29.488  56.830  1.00  0.00    -0.309 N 
HETATM   15  H   UNL     1       7.104  28.720  56.751  1.00  0.00     0.170 HD
HETATM   16  C   UNL     1       6.632  30.298  57.854  1.00  0.00     0.108 A 
HETATM   17  N   UNL     1       7.638  30.086  58.706  1.00  0.00    -0.346 N 
HETATM   18  C   UNL     1       5.768  31.496  58.123  1.00  0.00     0.049 A 
HETATM   19  C   UNL     1       7.900  30.919  59.793  1.00  0.00     0.007 A 
HETATM   20  H   UNL     1       8.248  29.290  58.568  1.00  0.00     0.167 HD
HETATM   21  C   UNL     1       9.074  30.560  60.655  1.00  0.00     0.068 C 
HETATM   22  C   UNL     1       7.129  31.991  60.033  1.00  0.00     0.025 A 
HETATM   23  C   UNL     1       6.018  32.294  59.170  1.00  0.00     0.006 A 
HETATM   24  O   UNL     1       4.542  30.357  55.845  1.00  0.00    -0.267 OA
ENDBRANCH   4  13
BRANCH   1  25
HETATM   25  C   UNL     1       6.962  25.066  54.053  1.00  0.00     0.042 A 
HETATM   26  C   UNL     1       6.584  24.264  55.137  1.00  0.00     0.030 A 
HETATM   27  C   UNL     1       7.123  22.982  55.291  1.00  0.00     0.009 A 
HETATM   28  C   UNL     1       8.057  22.487  54.376  1.00  0.00    -0.062 A 
HETATM   29  C   UNL     1       8.609  21.097  54.502  1.00  0.00     0.048 C 
HETATM   30  C   UNL     1       8.474  23.307  53.323  1.00  0.00     0.009 A 
HETATM   31  C   UNL     1       7.933  24.586  53.165  1.00  0.00     0.030 A 
ENDBRANCH   1  25
TORSDOF 2
ENDMDL
MODEL 10
REMARK VINA RESULT:      -9.6      6.132      8.861
REMARK  2 active torsions:
REMARK  status: ('A' for Active; 'I' for Inactive)
REMARK    1  A    between atoms: C_5  and  N_6 
REMARK    2  A    between atoms: C_9  and  C_10 
REMARK       I    between atoms: C_10  and  N_11 
ROOT
HETATM    1  N   UNL     1       4.941  28.530  50.495  1.00  0.00    -0.281 N 
HETATM    2  C   UNL     1       5.502  27.927  51.642  1.00  0.00     0.268 A 
HETATM    3  O   UNL     1       6.077  28.510  52.568  1.00  0.00    -0.267 OA
HETATM    4  C   UNL     1       5.344  26.458  51.784  1.00  0.00     0.101 A 
HETATM    5  C   UNL     1       4.691  25.774  50.834  1.00  0.00     0.040 A 
HETATM    6  C   UNL     1       4.158  26.425  49.660  1.00  0.00     0.034 A 
HETATM    7  C   UNL     1       4.289  27.758  49.498  1.00  0.00     0.034 A 
HETATM    8  C   UNL     1       3.841  28.427  48.206  1.00  0.00     0.059 C 
HETATM    9  C   UNL     1       3.727  27.457  47.033  1.00  0.00     0.014 C 
HETATM   10  C   UNL     1       2.883  26.258  47.411  1.00  0.00     0.084 C 
HETATM   11  C   UNL     1       3.451  25.584  48.633  1.00  0.00     0.161 C 
HETATM   12  O   UNL     1       3.289  24.382  48.834  1.00  0.00    -0.292 OA
ENDROOT
BRANCH   4  13
HETATM   13  C   UNL     1       5.843  25.697  52.955  1.00  0.00     0.262 C 
HETATM   14  N   UNL     1       6.443  24.440  52.641  1.00  0.00    -0.309 N 
HETATM   15  H   UNL     1       6.389  24.165  51.661  1.00  0.00     0.170 HD
HETATM   16  C   UNL     1       7.065  23.583  53.430  1.00  0.00     0.108 A 
HETATM   17  N   UNL     1       7.566  22.446  52.938  1.00  0.00    -0.346 N 
HETATM   18  C   UNL     1       7.264  23.822  54.899  1.00  0.00     0.049 A 
HETATM   19  C   UNL     1       8.247  21.516  53.722  1.00  0.00     0.007 A 
HETATM   20  H   UNL     1       7.457  22.239  51.954  1.00  0.00     0.167 HD
HETATM   21  C   UNL     1       8.765  20.293  53.027  1.00  0.00     0.068 C 
HETATM   22  C   UNL     1       8.427  21.731  55.036  1.00  0.00     0.025 A 
HETATM   23  C   UNL     1       7.915  22.926  55.652  1.00  0.00     0.006 A 
HETATM   24  O   UNL     1       5.777  26.092  54.104  1.00  0.00    -0.267 OA
ENDBRANCH   4  13
BRANCH   1  25
HETATM   25  C   UNL     1       5.050  29.961  50.396  1.00  0.00     0.042 A 
HETATM   26  C   UNL     1       4.166  30.791  51.098  1.00  0.00     0.030 A 
HETATM   27  C   UNL     1       4.336  32.180  51.085  1.00  0.00     0.009 A 
HETATM   28  C   UNL     1       5.379  32.762  50.358  1.00  0.00    -0.062 A 
HETATM   29  C   UNL     1       5.602  34.247  50.371  1.00  0.00     0.048 C 
HETATM   30  C   UNL     1       6.230  31.939  49.614  1.00  0.00     0.009 A 
HETATM   31  C   UNL     1       6.065  30.552  49.632  1.00  0.00     0.030 A 
ENDBRANCH   1  25
TORSDOF 2
ENDMDL
