MODEL 1
REMARK VINA RESULT:      -9.1      0.000      0.000
REMARK  5 active torsions:
REMARK  status: ('A' for Active; 'I' for Inactive)
REMARK    1  A    between atoms: C_4  and  N_5 
REMARK       I    between atoms: N_5  and  C_6 
REMARK       I    between atoms: C_6  and  N_7 
REMARK    2  A    between atoms: N_7  and  C_8 
REMARK    3  A    between atoms: C_11  and  C_12 
REMARK    4  A    between atoms: C_12  and  C_13 
REMARK       I    between atoms: C_13  and  N_14 
REMARK    5  A    between atoms: N_14  and  C_15 
ROOT
HETATM    1  C   UNL     1       4.728  28.838  53.936  1.00  0.00     0.174 A 
HETATM    2  S   UNL     1       3.497  28.673  52.765  1.00  0.00    -0.062 SA
HETATM    3  C   UNL     1       4.466  27.529  51.940  1.00  0.00     0.081 A 
HETATM    4  C   UNL     1       5.644  27.317  52.633  1.00  0.00     0.052 A 
HETATM    5  N   UNL     1       5.771  28.056  53.804  1.00  0.00    -0.228 NA
ENDROOT
BRANCH   1   6
HETATM    6  N   UNL     1       4.447  29.781  54.887  1.00  0.00    -0.287 N 
HETATM    7  C   UNL     1       3.974  29.507  56.116  1.00  0.00     0.326 C 
HETATM    8  N   UNL     1       4.486  28.543  56.916  1.00  0.00    -0.309 N 
HETATM    9  O   UNL     1       3.048  30.197  56.555  1.00  0.00    -0.247 OA
HETATM   10  H   UNL     1       3.877  28.378  57.708  1.00  0.00     0.170 HD
HETATM   11  H   UNL     1       4.162  30.674  54.511  1.00  0.00     0.172 HD
BRANCH   8  12
HETATM   12  C   UNL     1       5.757  27.940  56.999  1.00  0.00     0.036 A 
HETATM   13  C   UNL     1       6.964  28.632  57.122  1.00  0.00     0.036 A 
HETATM   14  C   UNL     1       8.190  27.950  57.186  1.00  0.00    -0.060 A 
HETATM   15  C   UNL     1       9.475  28.723  57.211  1.00  0.00     0.048 C 
HETATM   16  C   UNL     1       8.198  26.553  57.167  1.00  0.00     0.007 A 
HETATM   17  C   UNL     1       6.998  25.850  57.110  1.00  0.00     0.003 A 
HETATM   18  C   UNL     1       5.787  26.539  57.021  1.00  0.00     0.029 A 
ENDBRANCH   8  12
ENDBRANCH   1   6
BRANCH   4  19
HETATM   19  C   UNL     1       6.710  26.347  52.266  1.00  0.00     0.163 C 
BRANCH  19  20
HETATM   20  C   UNL     1       6.469  24.971  52.860  1.00  0.00     0.227 C 
HETATM   21  N   UNL     1       7.623  24.203  52.898  1.00  0.00    -0.327 N 
HETATM   22  H   UNL     1       8.384  24.532  52.313  1.00  0.00     0.169 HD
HETATM   23  O   UNL     1       5.366  24.657  53.299  1.00  0.00    -0.273 OA
BRANCH  21  24
HETATM   24  C   UNL     1       7.826  22.981  53.567  1.00  0.00     0.036 A 
HETATM   25  C   UNL     1       7.981  23.037  54.959  1.00  0.00     0.056 A 
HETATM   26  C   UNL     1       8.167  21.866  55.696  1.00  0.00     0.074 A 
HETATM   27 CL   UNL     1       8.355  21.966  57.405  1.00  0.00    -0.081 Cl
HETATM   28  C   UNL     1       8.201  20.636  55.048  1.00  0.00     0.138 A 
HETATM   29  F   UNL     1       8.382  19.500  55.738  1.00  0.00    -0.204 F 
HETATM   30  C   UNL     1       8.049  20.565  53.669  1.00  0.00     0.046 A 
HETATM   31  C   UNL     1       7.857  21.737  52.929  1.00  0.00     0.032 A 
ENDBRANCH  21  24
ENDBRANCH  19  20
ENDBRANCH   4  19
TORSDOF 5
ENDMDL
MODEL 2
REMARK VINA RESULT:      -9.0      5.117      8.271
REMARK  5 active torsions:
REMARK  status: ('A' for Active; 'I' for Inactive)
REMARK    1  A    between atoms: C_4  and  N_5 
REMARK       I    between atoms: N_5  and  C_6 
REMARK       I    between atoms: C_6  and  N_7 
REMARK    2  A    between atoms: N_7  and  C_8 
REMARK    3  A    between atoms: C_11  and  C_12 
REMARK    4  A    between atoms: C_12  and  C_13 
REMARK       I    between atoms: C_13  and  N_14 
REMARK    5  A    between atoms: N_14  and  C_15 
ROOT
HETATM    1  C   UNL     1       6.947  27.087  57.037  1.00  0.00     0.174 A 
HETATM    2  S   UNL     1       5.935  28.066  56.073  1.00  0.00    -0.062 SA
HETATM    3  C   UNL     1       7.210  29.197  55.922  1.00  0.00     0.081 A 
HETATM    4  C   UNL     1       8.336  28.734  56.580  1.00  0.00     0.052 A 
HETATM    5  N   UNL     1       8.181  27.497  57.196  1.00  0.00    -0.228 NA
ENDROOT
BRANCH   1   6
HETATM    6  N   UNL     1       6.320  25.971  57.519  1.00  0.00    -0.287 N 
HETATM    7  C   UNL     1       5.253  25.387  56.943  1.00  0.00     0.326 C 
HETATM    8  N   UNL     1       5.172  25.123  55.617  1.00  0.00    -0.309 N 
HETATM    9  O   UNL     1       4.314  25.037  57.665  1.00  0.00    -0.247 OA
HETATM   10  H   UNL     1       4.228  24.857  55.366  1.00  0.00     0.170 HD
HETATM   11  H   UNL     1       6.368  25.871  58.523  1.00  0.00     0.172 HD
BRANCH   8  12
HETATM   12  C   UNL     1       6.144  24.904  54.621  1.00  0.00     0.036 A 
HETATM   13  C   UNL     1       6.999  23.802  54.566  1.00  0.00     0.036 A 
HETATM   14  C   UNL     1       7.951  23.670  53.541  1.00  0.00    -0.060 A 
HETATM   15  C   UNL     1       8.925  22.530  53.568  1.00  0.00     0.048 C 
HETATM   16  C   UNL     1       8.013  24.638  52.537  1.00  0.00     0.007 A 
HETATM   17  C   UNL     1       7.123  25.709  52.544  1.00  0.00     0.003 A 
HETATM   18  C   UNL     1       6.199  25.843  53.581  1.00  0.00     0.029 A 
ENDBRANCH   8  12
ENDBRANCH   1   6
BRANCH   4  19
HETATM   19  C   UNL     1       9.662  29.406  56.620  1.00  0.00     0.163 C 
BRANCH  19  20
HETATM   20  C   UNL     1       9.757  30.432  57.735  1.00  0.00     0.227 C 
HETATM   21  N   UNL     1       8.759  30.275  58.683  1.00  0.00    -0.327 N 
HETATM   22  H   UNL     1       7.972  29.701  58.397  1.00  0.00     0.169 HD
HETATM   23  O   UNL     1      10.679  31.243  57.769  1.00  0.00    -0.273 OA
BRANCH  21  24
HETATM   24  C   UNL     1       8.661  30.891  59.945  1.00  0.00     0.036 A 
HETATM   25  C   UNL     1       7.641  31.839  60.112  1.00  0.00     0.056 A 
HETATM   26  C   UNL     1       7.467  32.479  61.341  1.00  0.00     0.074 A 
HETATM   27 CL   UNL     1       6.206  33.638  61.517  1.00  0.00    -0.081 Cl
HETATM   28  C   UNL     1       8.310  32.180  62.405  1.00  0.00     0.138 A 
HETATM   29  F   UNL     1       8.162  32.786  63.592  1.00  0.00    -0.204 F 
HETATM   30  C   UNL     1       9.326  31.243  62.254  1.00  0.00     0.046 A 
HETATM   31  C   UNL     1       9.499  30.596  61.026  1.00  0.00     0.032 A 
ENDBRANCH  21  24
ENDBRANCH  19  20
ENDBRANCH   4  19
TORSDOF 5
ENDMDL
MODEL 3
REMARK VINA RESULT:      -8.9      4.121      7.118
REMARK  5 active torsions:
REMARK  status: ('A' for Active; 'I' for Inactive)
REMARK    1  A    between atoms: C_4  and  N_5 
REMARK       I    between atoms: N_5  and  C_6 
REMARK       I    between atoms: C_6  and  N_7 
REMARK    2  A    between atoms: N_7  and  C_8 
REMARK    3  A    between atoms: C_11  and  C_12 
REMARK    4  A    between atoms: C_12  and  C_13 
REMARK       I    between atoms: C_13  and  N_14 
REMARK    5  A    between atoms: N_14  and  C_15 
ROOT
HETATM    1  C   UNL     1       4.723  27.016  48.809  1.00  0.00     0.174 A 
HETATM    2  S   UNL     1       5.159  28.503  48.093  1.00  0.00    -0.062 SA
HETATM    3  C   UNL     1       5.589  29.096  49.640  1.00  0.00     0.081 A 
HETATM    4  C   UNL     1       5.412  28.109  50.593  1.00  0.00     0.052 A 
HETATM    5  N   UNL     1       4.939  26.899  50.096  1.00  0.00    -0.228 NA
ENDROOT
BRANCH   1   6
HETATM    6  N   UNL     1       4.201  26.119  47.918  1.00  0.00    -0.287 N 
HETATM    7  C   UNL     1       2.984  25.556  48.027  1.00  0.00     0.326 C 
HETATM    8  N   UNL     1       1.860  26.255  48.310  1.00  0.00    -0.309 N 
HETATM    9  O   UNL     1       2.879  24.342  47.820  1.00  0.00    -0.247 OA
HETATM   10  H   UNL     1       1.097  25.627  48.528  1.00  0.00     0.170 HD
HETATM   11  H   UNL     1       4.893  25.549  47.452  1.00  0.00     0.172 HD
BRANCH   8  12
HETATM   12  C   UNL     1       1.494  27.602  48.118  1.00  0.00     0.036 A 
HETATM   13  C   UNL     1       1.483  28.579  49.116  1.00  0.00     0.036 A 
HETATM   14  C   UNL     1       1.089  29.899  48.838  1.00  0.00    -0.060 A 
HETATM   15  C   UNL     1       0.987  30.898  49.951  1.00  0.00     0.048 C 
HETATM   16  C   UNL     1       0.742  30.248  47.531  1.00  0.00     0.007 A 
HETATM   17  C   UNL     1       0.810  29.300  46.514  1.00  0.00     0.003 A 
HETATM   18  C   UNL     1       1.178  27.985  46.807  1.00  0.00     0.029 A 
ENDBRANCH   8  12
ENDBRANCH   1   6
BRANCH   4  19
HETATM   19  C   UNL     1       5.738  28.225  52.039  1.00  0.00     0.163 C 
BRANCH  19  20
HETATM   20  C   UNL     1       5.532  26.918  52.785  1.00  0.00     0.227 C 
HETATM   21  N   UNL     1       6.695  26.170  52.871  1.00  0.00    -0.327 N 
HETATM   22  H   UNL     1       7.436  26.442  52.232  1.00  0.00     0.169 HD
HETATM   23  O   UNL     1       4.445  26.643  53.287  1.00  0.00    -0.273 OA
BRANCH  21  24
HETATM   24  C   UNL     1       6.933  25.029  53.661  1.00  0.00     0.036 A 
HETATM   25  C   UNL     1       7.290  23.853  52.987  1.00  0.00     0.056 A 
HETATM   26  C   UNL     1       7.561  22.685  53.702  1.00  0.00     0.074 A 
HETATM   27 CL   UNL     1       7.998  21.255  52.848  1.00  0.00    -0.081 Cl
HETATM   28  C   UNL     1       7.474  22.684  55.090  1.00  0.00     0.138 A 
HETATM   29  F   UNL     1       7.728  21.572  55.794  1.00  0.00    -0.204 F 
HETATM   30  C   UNL     1       7.121  23.843  55.771  1.00  0.00     0.046 A 
HETATM   31  C   UNL     1       6.854  25.016  55.057  1.00  0.00     0.032 A 
ENDBRANCH  21  24
ENDBRANCH  19  20
ENDBRANCH   4  19
TORSDOF 5
ENDMDL
MODEL 4
REMARK VINA RESULT:      -8.9      1.724      2.141
REMARK  5 active torsions:
REMARK  status: ('A' for Active; 'I' for Inactive)
REMARK    1  A    between atoms: C_4  and  N_5 
REMARK       I    between atoms: N_5  and  C_6 
REMARK       I    between atoms: C_6  and  N_7 
REMARK    2  A    between atoms: N_7  and  C_8 
REMARK    3  A    between atoms: C_11  and  C_12 
REMARK    4  A    between atoms: C_12  and  C_13 
REMARK       I    between atoms: C_13  and  N_14 
REMARK    5  A    between atoms: N_14  and  C_15 
ROOT
HETATM    1  C   UNL     1       5.442  29.143  54.246  1.00  0.00     0.174 A 
HETATM    2  S   UNL     1       3.796  29.570  54.097  1.00  0.00    -0.062 SA
HETATM    3  C   UNL     1       3.622  28.383  52.876  1.00  0.00     0.081 A 
HETATM    4  C   UNL     1       4.817  27.711  52.693  1.00  0.00     0.052 A 
HETATM    5  N   UNL     1       5.856  28.139  53.514  1.00  0.00    -0.228 NA
ENDROOT
BRANCH   1   6
HETATM    6  N   UNL     1       6.124  29.921  55.141  1.00  0.00    -0.287 N 
HETATM    7  C   UNL     1       5.786  30.069  56.435  1.00  0.00     0.326 C 
HETATM    8  N   UNL     1       5.471  29.033  57.247  1.00  0.00    -0.309 N 
HETATM    9  O   UNL     1       5.801  31.205  56.919  1.00  0.00    -0.247 OA
HETATM   10  H   UNL     1       5.073  29.370  58.115  1.00  0.00     0.170 HD
HETATM   11  H   UNL     1       6.584  30.720  54.728  1.00  0.00     0.172 HD
BRANCH   8  12
HETATM   12  C   UNL     1       5.810  27.665  57.234  1.00  0.00     0.036 A 
HETATM   13  C   UNL     1       7.050  27.144  57.608  1.00  0.00     0.036 A 
HETATM   14  C   UNL     1       7.307  25.764  57.551  1.00  0.00    -0.060 A 
HETATM   15  C   UNL     1       8.681  25.246  57.857  1.00  0.00     0.048 C 
HETATM   16  C   UNL     1       6.289  24.895  57.151  1.00  0.00     0.007 A 
HETATM   17  C   UNL     1       5.029  25.395  56.837  1.00  0.00     0.003 A 
HETATM   18  C   UNL     1       4.793  26.771  56.874  1.00  0.00     0.029 A 
ENDBRANCH   8  12
ENDBRANCH   1   6
BRANCH   4  19
HETATM   19  C   UNL     1       5.044  26.570  51.768  1.00  0.00     0.163 C 
BRANCH  19  20
HETATM   20  C   UNL     1       5.414  25.294  52.502  1.00  0.00     0.227 C 
HETATM   21  N   UNL     1       6.774  25.032  52.454  1.00  0.00    -0.327 N 
HETATM   22  H   UNL     1       7.291  25.547  51.748  1.00  0.00     0.169 HD
HETATM   23  O   UNL     1       4.564  24.645  53.108  1.00  0.00    -0.273 OA
BRANCH  21  24
HETATM   24  C   UNL     1       7.497  24.075  53.191  1.00  0.00     0.036 A 
HETATM   25  C   UNL     1       7.571  22.783  52.654  1.00  0.00     0.056 A 
HETATM   26  C   UNL     1       8.287  21.783  53.316  1.00  0.00     0.074 A 
HETATM   27 CL   UNL     1       8.361  20.205  52.632  1.00  0.00    -0.081 Cl
HETATM   28  C   UNL     1       8.927  22.068  54.517  1.00  0.00     0.138 A 
HETATM   29  F   UNL     1       9.617  21.121  55.170  1.00  0.00    -0.204 F 
HETATM   30  C   UNL     1       8.861  23.344  55.062  1.00  0.00     0.046 A 
HETATM   31  C   UNL     1       8.150  24.349  54.397  1.00  0.00     0.032 A 
ENDBRANCH  21  24
ENDBRANCH  19  20
ENDBRANCH   4  19
TORSDOF 5
ENDMDL
MODEL 5
REMARK VINA RESULT:      -8.8      3.043      5.751
REMARK  5 active torsions:
REMARK  status: ('A' for Active; 'I' for Inactive)
REMARK    1  A    between atoms: C_4  and  N_5 
REMARK       I    between atoms: N_5  and  C_6 
REMARK       I    between atoms: C_6  and  N_7 
REMARK    2  A    between atoms: N_7  and  C_8 
REMARK    3  A    between atoms: C_11  and  C_12 
REMARK    4  A    between atoms: C_12  and  C_13 
REMARK       I    between atoms: C_13  and  N_14 
REMARK    5  A    between atoms: N_14  and  C_15 
ROOT
HETATM    1  C   UNL     1       4.689  29.546  51.868  1.00  0.00     0.174 A 
HETATM    2  S   UNL     1       3.011  29.285  52.037  1.00  0.00    -0.062 SA
HETATM    3  C   UNL     1       3.340  28.066  53.193  1.00  0.00     0.081 A 
HETATM    4  C   UNL     1       4.704  27.968  53.405  1.00  0.00     0.052 A 
HETATM    5  N   UNL     1       5.473  28.852  52.655  1.00  0.00    -0.228 NA
ENDROOT
BRANCH   1   6
HETATM    6  N   UNL     1       4.998  30.478  50.915  1.00  0.00    -0.287 N 
HETATM    7  C   UNL     1       5.829  30.263  49.880  1.00  0.00     0.326 C 
HETATM    8  N   UNL     1       5.772  29.162  49.093  1.00  0.00    -0.309 N 
HETATM    9  O   UNL     1       6.664  31.132  49.606  1.00  0.00    -0.247 OA
HETATM   10  H   UNL     1       6.591  29.108  48.499  1.00  0.00     0.170 HD
HETATM   11  H   UNL     1       4.969  31.432  51.246  1.00  0.00     0.172 HD
BRANCH   8  12
HETATM   12  C   UNL     1       4.734  28.267  48.768  1.00  0.00     0.036 A 
HETATM   13  C   UNL     1       3.627  28.580  47.976  1.00  0.00     0.036 A 
HETATM   14  C   UNL     1       2.628  27.627  47.713  1.00  0.00    -0.060 A 
HETATM   15  C   UNL     1       1.400  28.023  46.949  1.00  0.00     0.048 C 
HETATM   16  C   UNL     1       2.768  26.333  48.219  1.00  0.00     0.007 A 
HETATM   17  C   UNL     1       3.898  25.990  48.956  1.00  0.00     0.003 A 
HETATM   18  C   UNL     1       4.871  26.952  49.232  1.00  0.00     0.029 A 
ENDBRANCH   8  12
ENDBRANCH   1   6
BRANCH   4  19
HETATM   19  C   UNL     1       5.372  27.070  54.383  1.00  0.00     0.163 C 
BRANCH  19  20
HETATM   20  C   UNL     1       5.682  25.704  53.796  1.00  0.00     0.227 C 
HETATM   21  N   UNL     1       6.810  25.131  54.361  1.00  0.00    -0.327 N 
HETATM   22  H   UNL     1       7.412  25.767  54.873  1.00  0.00     0.169 HD
HETATM   23  O   UNL     1       4.938  25.192  52.963  1.00  0.00    -0.273 OA
BRANCH  21  24
HETATM   24  C   UNL     1       7.265  23.805  54.225  1.00  0.00     0.036 A 
HETATM   25  C   UNL     1       7.468  23.079  55.407  1.00  0.00     0.056 A 
HETATM   26  C   UNL     1       7.900  21.752  55.355  1.00  0.00     0.074 A 
HETATM   27 CL   UNL     1       8.140  20.885  56.822  1.00  0.00    -0.081 Cl
HETATM   28  C   UNL     1       8.134  21.146  54.125  1.00  0.00     0.138 A 
HETATM   29  F   UNL     1       8.552  19.874  54.054  1.00  0.00    -0.204 F 
HETATM   30  C   UNL     1       7.938  21.854  52.946  1.00  0.00     0.046 A 
HETATM   31  C   UNL     1       7.500  23.182  52.995  1.00  0.00     0.032 A 
ENDBRANCH  21  24
ENDBRANCH  19  20
ENDBRANCH   4  19
TORSDOF 5
ENDMDL
MODEL 6
REMARK VINA RESULT:      -8.8      3.250      5.879
REMARK  5 active torsions:
REMARK  status: ('A' for Active; 'I' for Inactive)
REMARK    1  A    between atoms: C_4  and  N_5 
REMARK       I    between atoms: N_5  and  C_6 
REMARK       I    between atoms: C_6  and  N_7 
REMARK    2  A    between atoms: N_7  and  C_8 
REMARK    3  A    between atoms: C_11  and  C_12 
REMARK    4  A    between atoms: C_12  and  C_13 
REMARK       I    between atoms: C_13  and  N_14 
REMARK    5  A    between atoms: N_14  and  C_15 
ROOT
HETATM    1  C   UNL     1       3.113  28.863  51.932  1.00  0.00     0.174 A 
HETATM    2  S   UNL     1       3.424  29.912  53.242  1.00  0.00    -0.062 SA
HETATM    3  C   UNL     1       4.920  29.120  53.492  1.00  0.00     0.081 A 
HETATM    4  C   UNL     1       5.104  28.138  52.534  1.00  0.00     0.052 A 
HETATM    5  N   UNL     1       4.065  28.019  51.617  1.00  0.00    -0.228 NA
ENDROOT
BRANCH   1   6
HETATM    6  N   UNL     1       1.883  29.056  51.364  1.00  0.00    -0.287 N 
HETATM    7  C   UNL     1       1.666  29.751  50.234  1.00  0.00     0.326 C 
HETATM    8  N   UNL     1       2.400  29.592  49.107  1.00  0.00    -0.309 N 
HETATM    9  O   UNL     1       0.724  30.550  50.207  1.00  0.00    -0.247 OA
HETATM   10  H   UNL     1       2.197  30.331  48.444  1.00  0.00     0.170 HD
HETATM   11  H   UNL     1       1.121  29.073  52.026  1.00  0.00     0.172 HD
BRANCH   8  12
HETATM   12  C   UNL     1       3.154  28.517  48.596  1.00  0.00     0.036 A 
HETATM   13  C   UNL     1       2.682  27.213  48.438  1.00  0.00     0.036 A 
HETATM   14  C   UNL     1       3.509  26.196  47.932  1.00  0.00    -0.060 A 
HETATM   15  C   UNL     1       3.007  24.784  47.874  1.00  0.00     0.048 C 
HETATM   16  C   UNL     1       4.814  26.506  47.543  1.00  0.00     0.007 A 
HETATM   17  C   UNL     1       5.276  27.816  47.635  1.00  0.00     0.003 A 
HETATM   18  C   UNL     1       4.454  28.813  48.162  1.00  0.00     0.029 A 
ENDBRANCH   8  12
ENDBRANCH   1   6
BRANCH   4  19
HETATM   19  C   UNL     1       6.310  27.282  52.383  1.00  0.00     0.163 C 
BRANCH  19  20
HETATM   20  C   UNL     1       6.083  25.869  52.890  1.00  0.00     0.227 C 
HETATM   21  N   UNL     1       7.272  25.205  53.151  1.00  0.00    -0.327 N 
HETATM   22  H   UNL     1       8.102  25.621  52.742  1.00  0.00     0.169 HD
HETATM   23  O   UNL     1       4.948  25.443  53.087  1.00  0.00    -0.273 OA
BRANCH  21  24
HETATM   24  C   UNL     1       7.448  23.982  53.826  1.00  0.00     0.036 A 
HETATM   25  C   UNL     1       7.769  22.865  53.042  1.00  0.00     0.056 A 
HETATM   26  C   UNL     1       7.979  21.621  53.639  1.00  0.00     0.074 A 
HETATM   27 CL   UNL     1       8.372  20.266  52.652  1.00  0.00    -0.081 Cl
HETATM   28  C   UNL     1       7.867  21.485  55.019  1.00  0.00     0.138 A 
HETATM   29  F   UNL     1       8.062  20.298  55.611  1.00  0.00    -0.204 F 
HETATM   30  C   UNL     1       7.549  22.583  55.808  1.00  0.00     0.046 A 
HETATM   31  C   UNL     1       7.343  23.833  55.212  1.00  0.00     0.032 A 
ENDBRANCH  21  24
ENDBRANCH  19  20
ENDBRANCH   4  19
TORSDOF 5
ENDMDL
MODEL 7
REMARK VINA RESULT:      -8.7      4.727      8.083
REMARK  5 active torsions:
REMARK  status: ('A' for Active; 'I' for Inactive)
REMARK    1  A    between atoms: C_4  and  N_5 
REMARK       I    between atoms: N_5  and  C_6 
REMARK       I    between atoms: C_6  and  N_7 
REMARK    2  A    between atoms: N_7  and  C_8 
REMARK    3  A    between atoms: C_11  and  C_12 
REMARK    4  A    between atoms: C_12  and  C_13 
REMARK       I    between atoms: C_13  and  N_14 
REMARK    5  A    between atoms: N_14  and  C_15 
ROOT
HETATM    1  C   UNL     1       5.349  26.323  55.046  1.00  0.00     0.174 A 
HETATM    2  S   UNL     1       5.020  25.888  56.664  1.00  0.00    -0.062 SA
HETATM    3  C   UNL     1       5.985  27.200  57.189  1.00  0.00     0.081 A 
HETATM    4  C   UNL     1       6.459  27.908  56.099  1.00  0.00     0.052 A 
HETATM    5  N   UNL     1       6.058  27.410  54.864  1.00  0.00    -0.228 NA
ENDROOT
BRANCH   1   6
HETATM    6  N   UNL     1       4.805  25.462  54.133  1.00  0.00    -0.287 N 
HETATM    7  C   UNL     1       5.487  24.888  53.126  1.00  0.00     0.326 C 
HETATM    8  N   UNL     1       6.696  24.297  53.284  1.00  0.00    -0.309 N 
HETATM    9  O   UNL     1       4.969  24.862  52.005  1.00  0.00    -0.247 OA
HETATM   10  H   UNL     1       7.113  24.096  52.383  1.00  0.00     0.170 HD
HETATM   11  H   UNL     1       3.826  25.624  53.945  1.00  0.00     0.172 HD
BRANCH   8  12
HETATM   12  C   UNL     1       7.336  23.702  54.389  1.00  0.00     0.036 A 
HETATM   13  C   UNL     1       7.328  22.336  54.678  1.00  0.00     0.036 A 
HETATM   14  C   UNL     1       7.984  21.829  55.812  1.00  0.00    -0.060 A 
HETATM   15  C   UNL     1       7.868  20.373  56.153  1.00  0.00     0.048 C 
HETATM   16  C   UNL     1       8.691  22.702  56.642  1.00  0.00     0.007 A 
HETATM   17  C   UNL     1       8.760  24.057  56.329  1.00  0.00     0.003 A 
HETATM   18  C   UNL     1       8.084  24.554  55.214  1.00  0.00     0.029 A 
ENDBRANCH   8  12
ENDBRANCH   1   6
BRANCH   4  19
HETATM   19  C   UNL     1       7.276  29.149  56.153  1.00  0.00     0.163 C 
BRANCH  19  20
HETATM   20  C   UNL     1       7.956  29.336  57.498  1.00  0.00     0.227 C 
HETATM   21  N   UNL     1       7.735  30.596  58.030  1.00  0.00    -0.327 N 
HETATM   22  H   UNL     1       7.393  31.292  57.375  1.00  0.00     0.169 HD
HETATM   23  O   UNL     1       8.565  28.412  58.031  1.00  0.00    -0.273 OA
BRANCH  21  24
HETATM   24  C   UNL     1       8.021  31.046  59.333  1.00  0.00     0.036 A 
HETATM   25  C   UNL     1       7.148  31.996  59.883  1.00  0.00     0.056 A 
HETATM   26  C   UNL     1       7.352  32.476  61.177  1.00  0.00     0.074 A 
HETATM   27 CL   UNL     1       6.264  33.642  61.827  1.00  0.00    -0.081 Cl
HETATM   28  C   UNL     1       8.428  32.014  61.928  1.00  0.00     0.138 A 
HETATM   29  F   UNL     1       8.644  32.465  63.172  1.00  0.00    -0.204 F 
HETATM   30  C   UNL     1       9.302  31.073  61.396  1.00  0.00     0.046 A 
HETATM   31  C   UNL     1       9.096  30.587  60.100  1.00  0.00     0.032 A 
ENDBRANCH  21  24
ENDBRANCH  19  20
ENDBRANCH   4  19
TORSDOF 5
ENDMDL
MODEL 8
REMARK VINA RESULT:      -8.7      2.537      3.766
REMARK  5 active torsions:
REMARK  status: ('A' for Active; 'I' for Inactive)
REMARK    1  A    between atoms: C_4  and  N_5 
REMARK       I    between atoms: N_5  and  C_6 
REMARK       I    between atoms: C_6  and  N_7 
REMARK    2  A    between atoms: N_7  and  C_8 
REMARK    3  A    between atoms: C_11  and  C_12 
REMARK    4  A    between atoms: C_12  and  C_13 
REMARK       I    between atoms: C_13  and  N_14 
REMARK    5  A    between atoms: N_14  and  C_15 
ROOT
HETATM    1  C   UNL     1       5.147  31.223  56.925  1.00  0.00     0.174 A 
HETATM    2  S   UNL     1       3.806  30.437  57.630  1.00  0.00    -0.062 SA
HETATM    3  C   UNL     1       3.651  29.484  56.217  1.00  0.00     0.081 A 
HETATM    4  C   UNL     1       4.656  29.797  55.320  1.00  0.00     0.052 A 
HETATM    5  N   UNL     1       5.535  30.784  55.753  1.00  0.00    -0.228 NA
ENDROOT
BRANCH   1   6
HETATM    6  N   UNL     1       5.657  32.226  57.703  1.00  0.00    -0.287 N 
HETATM    7  C   UNL     1       6.132  32.057  58.950  1.00  0.00     0.326 C 
HETATM    8  N   UNL     1       6.983  31.063  59.296  1.00  0.00    -0.309 N 
HETATM    9  O   UNL     1       5.805  32.874  59.818  1.00  0.00    -0.247 OA
HETATM   10  H   UNL     1       7.069  31.004  60.304  1.00  0.00     0.170 HD
HETATM   11  H   UNL     1       5.256  33.135  57.521  1.00  0.00     0.172 HD
BRANCH   8  12
HETATM   12  C   UNL     1       7.924  30.308  58.568  1.00  0.00     0.036 A 
HETATM   13  C   UNL     1       7.714  29.010  58.097  1.00  0.00     0.036 A 
HETATM   14  C   UNL     1       8.715  28.323  57.389  1.00  0.00    -0.060 A 
HETATM   15  C   UNL     1       8.499  26.894  56.988  1.00  0.00     0.048 C 
HETATM   16  C   UNL     1       9.924  28.966  57.117  1.00  0.00     0.007 A 
HETATM   17  C   UNL     1      10.122  30.282  57.526  1.00  0.00     0.003 A 
HETATM   18  C   UNL     1       9.130  30.946  58.250  1.00  0.00     0.029 A 
ENDBRANCH   8  12
ENDBRANCH   1   6
BRANCH   4  19
HETATM   19  C   UNL     1       4.891  29.137  54.009  1.00  0.00     0.163 C 
BRANCH  19  20
HETATM   20  C   UNL     1       6.041  28.146  54.058  1.00  0.00     0.227 C 
HETATM   21  N   UNL     1       5.629  26.847  53.806  1.00  0.00    -0.327 N 
HETATM   22  H   UNL     1       4.630  26.684  53.881  1.00  0.00     0.169 HD
HETATM   23  O   UNL     1       7.194  28.526  54.242  1.00  0.00    -0.273 OA
BRANCH  21  24
HETATM   24  C   UNL     1       6.433  25.718  53.559  1.00  0.00     0.036 A 
HETATM   25  C   UNL     1       6.518  24.762  54.581  1.00  0.00     0.056 A 
HETATM   26  C   UNL     1       7.280  23.606  54.404  1.00  0.00     0.074 A 
HETATM   27 CL   UNL     1       7.366  22.449  55.677  1.00  0.00    -0.081 Cl
HETATM   28  C   UNL     1       7.962  23.399  53.210  1.00  0.00     0.138 A 
HETATM   29  F   UNL     1       8.701  22.297  53.021  1.00  0.00    -0.204 F 
HETATM   30  C   UNL     1       7.887  24.338  52.188  1.00  0.00     0.046 A 
HETATM   31  C   UNL     1       7.120  25.495  52.361  1.00  0.00     0.032 A 
ENDBRANCH  21  24
ENDBRANCH  19  20
ENDBRANCH   4  19
TORSDOF 5
ENDMDL
MODEL 9
REMARK VINA RESULT:      -8.5      3.746      6.689
REMARK  5 active torsions:
REMARK  status: ('A' for Active; 'I' for Inactive)
REMARK    1  A    between atoms: C_4  and  N_5 
REMARK       I    between atoms: N_5  and  C_6 
REMARK       I    between atoms: C_6  and  N_7 
REMARK    2  A    between atoms: N_7  and  C_8 
REMARK    3  A    between atoms: C_11  and  C_12 
REMARK    4  A    between atoms: C_12  and  C_13 
REMARK       I    between atoms: C_13  and  N_14 
REMARK    5  A    between atoms: N_14  and  C_15 
ROOT
HETATM    1  C   UNL     1       4.942  27.052  49.941  1.00  0.00     0.174 A 
HETATM    2  S   UNL     1       5.400  28.684  49.734  1.00  0.00    -0.062 SA
HETATM    3  C   UNL     1       5.518  28.842  51.434  1.00  0.00     0.081 A 
HETATM    4  C   UNL     1       5.242  27.632  52.045  1.00  0.00     0.052 A 
HETATM    5  N   UNL     1       4.940  26.595  51.169  1.00  0.00    -0.228 NA
ENDROOT
BRANCH   1   6
HETATM    6  N   UNL     1       4.639  26.422  48.765  1.00  0.00    -0.287 N 
HETATM    7  C   UNL     1       3.417  25.965  48.438  1.00  0.00     0.326 C 
HETATM    8  N   UNL     1       2.283  26.689  48.591  1.00  0.00    -0.309 N 
HETATM    9  O   UNL     1       3.327  24.840  47.934  1.00  0.00    -0.247 OA
HETATM   10  H   UNL     1       1.468  26.102  48.461  1.00  0.00     0.170 HD
HETATM   11  H   UNL     1       5.408  25.904  48.364  1.00  0.00     0.172 HD
BRANCH   8  12
HETATM   12  C   UNL     1       2.027  28.073  48.633  1.00  0.00     0.036 A 
HETATM   13  C   UNL     1       2.118  28.938  47.540  1.00  0.00     0.036 A 
HETATM   14  C   UNL     1       1.857  30.312  47.676  1.00  0.00    -0.060 A 
HETATM   15  C   UNL     1       2.066  31.231  46.509  1.00  0.00     0.048 C 
HETATM   16  C   UNL     1       1.460  30.813  48.917  1.00  0.00     0.007 A 
HETATM   17  C   UNL     1       1.303  29.952  50.000  1.00  0.00     0.003 A 
HETATM   18  C   UNL     1       1.589  28.593  49.859  1.00  0.00     0.029 A 
ENDBRANCH   8  12
ENDBRANCH   1   6
BRANCH   4  19
HETATM   19  C   UNL     1       5.306  27.357  53.504  1.00  0.00     0.163 C 
BRANCH  19  20
HETATM   20  C   UNL     1       6.543  26.566  53.890  1.00  0.00     0.227 C 
HETATM   21  N   UNL     1       6.231  25.375  54.527  1.00  0.00    -0.327 N 
HETATM   22  H   UNL     1       5.282  25.306  54.880  1.00  0.00     0.169 HD
HETATM   23  O   UNL     1       7.666  26.961  53.585  1.00  0.00    -0.273 OA
BRANCH  21  24
HETATM   24  C   UNL     1       7.094  24.304  54.827  1.00  0.00     0.036 A 
HETATM   25  C   UNL     1       7.194  23.282  53.872  1.00  0.00     0.056 A 
HETATM   26  C   UNL     1       8.043  22.195  54.088  1.00  0.00     0.074 A 
HETATM   27 CL   UNL     1       8.146  20.955  52.898  1.00  0.00    -0.081 Cl
HETATM   28  C   UNL     1       8.794  22.122  55.256  1.00  0.00     0.138 A 
HETATM   29  F   UNL     1       9.613  21.085  55.483  1.00  0.00    -0.204 F 
HETATM   30  C   UNL     1       8.705  23.127  56.211  1.00  0.00     0.046 A 
HETATM   31  C   UNL     1       7.858  24.219  55.995  1.00  0.00     0.032 A 
ENDBRANCH  21  24
ENDBRANCH  19  20
ENDBRANCH   4  19
TORSDOF 5
ENDMDL
MODEL 10
REMARK VINA RESULT:      -8.4      6.246      9.647
REMARK  5 active torsions:
REMARK  status: ('A' for Active; 'I' for Inactive)
REMARK    1  A    between atoms: C_4  and  N_5 
REMARK       I    between atoms: N_5  and  C_6 
REMARK       I    between atoms: C_6  and  N_7 
REMARK    2  A    between atoms: N_7  and  C_8 
REMARK    3  A    between atoms: C_11  and  C_12 
REMARK    4  A    between atoms: C_12  and  C_13 
REMARK       I    between atoms: C_13  and  N_14 
REMARK    5  A    between atoms: N_14  and  C_15 
ROOT
HETATM    1  C   UNL     1       7.785  28.758  57.197  1.00  0.00     0.174 A 
HETATM    2  S   UNL     1       8.999  29.214  56.087  1.00  0.00    -0.062 SA
HETATM    3  C   UNL     1       9.767  30.108  57.328  1.00  0.00     0.081 A 
HETATM    4  C   UNL     1       9.071  29.966  58.516  1.00  0.00     0.052 A 
HETATM    5  N   UNL     1       7.943  29.156  58.435  1.00  0.00    -0.228 NA
ENDROOT
BRANCH   1   6
HETATM    6  N   UNL     1       6.789  28.010  56.631  1.00  0.00    -0.287 N 
HETATM    7  C   UNL     1       5.541  27.907  57.122  1.00  0.00     0.326 C 
HETATM    8  N   UNL     1       4.807  28.971  57.525  1.00  0.00    -0.309 N 
HETATM    9  O   UNL     1       5.020  26.788  57.172  1.00  0.00    -0.247 OA
HETATM   10  H   UNL     1       3.982  28.664  58.026  1.00  0.00     0.170 HD
HETATM   11  H   UNL     1       7.117  27.196  56.131  1.00  0.00     0.172 HD
BRANCH   8  12
HETATM   12  C   UNL     1       4.826  30.337  57.179  1.00  0.00     0.036 A 
HETATM   13  C   UNL     1       4.496  30.848  55.921  1.00  0.00     0.036 A 
HETATM   14  C   UNL     1       4.556  32.227  55.658  1.00  0.00    -0.060 A 
HETATM   15  C   UNL     1       4.298  32.734  54.271  1.00  0.00     0.048 C 
HETATM   16  C   UNL     1       4.912  33.104  56.685  1.00  0.00     0.007 A 
HETATM   17  C   UNL     1       5.181  32.614  57.959  1.00  0.00     0.003 A 
HETATM   18  C   UNL     1       5.143  31.239  58.203  1.00  0.00     0.029 A 
ENDBRANCH   8  12
ENDBRANCH   1   6
BRANCH   4  19
HETATM   19  C   UNL     1       9.464  30.538  59.830  1.00  0.00     0.163 C 
BRANCH  19  20
HETATM   20  C   UNL     1       8.502  31.614  60.303  1.00  0.00     0.227 C 
HETATM   21  N   UNL     1       7.600  31.139  61.243  1.00  0.00    -0.327 N 
HETATM   22  H   UNL     1       7.521  30.129  61.299  1.00  0.00     0.169 HD
HETATM   23  O   UNL     1       8.605  32.772  59.907  1.00  0.00    -0.273 OA
BRANCH  21  24
HETATM   24  C   UNL     1       6.720  31.886  62.049  1.00  0.00     0.036 A 
HETATM   25  C   UNL     1       7.222  32.358  63.270  1.00  0.00     0.056 A 
HETATM   26  C   UNL     1       6.417  33.122  64.116  1.00  0.00     0.074 A 
HETATM   27 CL   UNL     1       7.061  33.689  65.609  1.00  0.00    -0.081 Cl
HETATM   28  C   UNL     1       5.108  33.416  63.750  1.00  0.00     0.138 A 
HETATM   29  F   UNL     1       4.317  34.145  64.551  1.00  0.00    -0.204 F 
HETATM   30  C   UNL     1       4.596  32.954  62.544  1.00  0.00     0.046 A 
HETATM   31  C   UNL     1       5.403  32.192  61.692  1.00  0.00     0.032 A 
ENDBRANCH  21  24
ENDBRANCH  19  20
ENDBRANCH   4  19
TORSDOF 5
ENDMDL
