MODEL 1
REMARK VINA RESULT:     -10.6      0.000      0.000
REMARK  5 active torsions:
REMARK  status: ('A' for Active; 'I' for Inactive)
REMARK    1  A    between atoms: C_2  and  N_3 
REMARK       I    between atoms: N_3  and  C_4 
REMARK       I    between atoms: C_4  and  N_5 
REMARK    2  A    between atoms: N_5  and  C_6 
REMARK    3  A    between atoms: C_9  and  C_10 
REMARK    4  A    between atoms: C_10  and  C_11 
REMARK       I    between atoms: C_11  and  N_12 
REMARK    5  A    between atoms: N_12  and  C_13 
ROOT
HETATM    1  C   UNL     1       8.001  27.225  56.480  1.00  0.00     0.174 A 
HETATM    2  S   UNL     1       6.764  28.230  55.875  1.00  0.00    -0.062 SA
HETATM    3  C   UNL     1       7.696  29.605  56.312  1.00  0.00     0.081 A 
HETATM    4  C   UNL     1       8.898  29.205  56.872  1.00  0.00     0.052 A 
HETATM    5  N   UNL     1       9.060  27.828  56.957  1.00  0.00    -0.228 NA
ENDROOT
BRANCH   1   6
HETATM    6  N   UNL     1       7.757  25.887  56.369  1.00  0.00    -0.287 N 
HETATM    7  C   UNL     1       8.021  25.023  57.387  1.00  0.00     0.326 C 
HETATM    8  N   UNL     1       7.836  23.692  57.125  1.00  0.00    -0.309 N 
HETATM    9  O   UNL     1       8.325  25.340  58.535  1.00  0.00    -0.247 OA
HETATM   10  H   UNL     1       7.786  23.154  57.982  1.00  0.00     0.170 HD
HETATM   11  H   UNL     1       7.150  25.588  55.624  1.00  0.00     0.172 HD
BRANCH   8  12
HETATM   12  C   UNL     1       7.842  22.962  55.924  1.00  0.00     0.036 A 
HETATM   13  C   UNL     1       7.853  23.545  54.653  1.00  0.00     0.032 A 
HETATM   14  C   UNL     1       7.903  22.741  53.510  1.00  0.00     0.044 A 
HETATM   15  C   UNL     1       7.953  21.358  53.639  1.00  0.00     0.116 A 
HETATM   16  C   UNL     1       7.967  20.763  54.893  1.00  0.00     0.044 A 
HETATM   17  F   UNL     1       8.008  20.593  52.542  1.00  0.00    -0.206 F 
HETATM   18  C   UNL     1       7.920  21.565  56.035  1.00  0.00     0.032 A 
ENDBRANCH   8  12
ENDBRANCH   1   6
BRANCH   4  19
HETATM   19  C   UNL     1      10.017  30.083  57.325  1.00  0.00     0.163 C 
BRANCH  19  20
HETATM   20  C   UNL     1       9.632  31.092  58.398  1.00  0.00     0.227 C 
HETATM   21  N   UNL     1       8.724  30.625  59.330  1.00  0.00    -0.327 N 
HETATM   22  H   UNL     1       8.258  29.742  59.095  1.00  0.00     0.169 HD
HETATM   23  O   UNL     1      10.181  32.193  58.424  1.00  0.00    -0.273 OA
BRANCH  21  24
HETATM   24  C   UNL     1       8.303  31.254  60.518  1.00  0.00     0.036 A 
HETATM   25  C   UNL     1       7.336  32.260  60.571  1.00  0.00     0.055 A 
HETATM   26  C   UNL     1       6.995  32.858  61.792  1.00  0.00     0.058 A 
HETATM   27 CL   UNL     1       5.803  34.111  61.773  1.00  0.00    -0.082 Cl
HETATM   28  C   UNL     1       7.619  32.444  62.975  1.00  0.00     0.055 A 
HETATM   29 CL   UNL     1       7.251  33.136  64.515  1.00  0.00    -0.083 Cl
HETATM   30  C   UNL     1       8.584  31.440  62.928  1.00  0.00     0.028 A 
HETATM   31  C   UNL     1       8.926  30.854  61.706  1.00  0.00     0.031 A 
ENDBRANCH  21  24
ENDBRANCH  19  20
ENDBRANCH   4  19
TORSDOF 5
ENDMDL
MODEL 2
REMARK VINA RESULT:     -10.5      1.774      2.180
REMARK  5 active torsions:
REMARK  status: ('A' for Active; 'I' for Inactive)
REMARK    1  A    between atoms: C_2  and  N_3 
REMARK       I    between atoms: N_3  and  C_4 
REMARK       I    between atoms: C_4  and  N_5 
REMARK    2  A    between atoms: N_5  and  C_6 
REMARK    3  A    between atoms: C_9  and  C_10 
REMARK    4  A    between atoms: C_10  and  C_11 
REMARK       I    between atoms: C_11  and  N_12 
REMARK    5  A    between atoms: N_12  and  C_13 
ROOT
HETATM    1  C   UNL     1       7.213  28.070  56.763  1.00  0.00     0.174 A 
HETATM    2  S   UNL     1       6.267  29.387  56.236  1.00  0.00    -0.062 SA
HETATM    3  C   UNL     1       7.028  30.378  57.415  1.00  0.00     0.081 A 
HETATM    4  C   UNL     1       7.967  29.643  58.118  1.00  0.00     0.052 A 
HETATM    5  N   UNL     1       8.064  28.314  57.726  1.00  0.00    -0.228 NA
ENDROOT
BRANCH   1   6
HETATM    6  N   UNL     1       6.993  26.903  56.091  1.00  0.00    -0.287 N 
HETATM    7  C   UNL     1       5.901  26.129  56.339  1.00  0.00     0.326 C 
HETATM    8  N   UNL     1       5.840  24.929  55.682  1.00  0.00    -0.309 N 
HETATM    9  O   UNL     1       4.935  26.452  57.027  1.00  0.00    -0.247 OA
HETATM   10  H   UNL     1       4.900  24.549  55.701  1.00  0.00     0.170 HD
HETATM   11  H   UNL     1       7.513  26.753  55.243  1.00  0.00     0.172 HD
BRANCH   8  12
HETATM   12  C   UNL     1       6.838  24.107  55.132  1.00  0.00     0.036 A 
HETATM   13  C   UNL     1       7.732  23.346  55.892  1.00  0.00     0.032 A 
HETATM   14  C   UNL     1       8.667  22.520  55.261  1.00  0.00     0.044 A 
HETATM   15  C   UNL     1       8.699  22.447  53.873  1.00  0.00     0.116 A 
HETATM   16  C   UNL     1       7.804  23.177  53.104  1.00  0.00     0.044 A 
HETATM   17  F   UNL     1       9.591  21.649  53.273  1.00  0.00    -0.206 F 
HETATM   18  C   UNL     1       6.868  23.999  53.734  1.00  0.00     0.032 A 
ENDBRANCH   8  12
ENDBRANCH   1   6
BRANCH   4  19
HETATM   19  C   UNL     1       8.889  30.142  59.181  1.00  0.00     0.163 C 
BRANCH  19  20
HETATM   20  C   UNL     1       8.345  31.312  59.989  1.00  0.00     0.227 C 
HETATM   21  N   UNL     1       7.598  30.952  61.096  1.00  0.00    -0.327 N 
HETATM   22  H   UNL     1       7.322  29.966  61.145  1.00  0.00     0.169 HD
HETATM   23  O   UNL     1       8.647  32.462  59.674  1.00  0.00    -0.273 OA
BRANCH  21  24
HETATM   24  C   UNL     1       7.105  31.789  62.116  1.00  0.00     0.036 A 
HETATM   25  C   UNL     1       5.792  32.262  62.174  1.00  0.00     0.055 A 
HETATM   26  C   UNL     1       5.388  33.118  63.208  1.00  0.00     0.058 A 
HETATM   27 CL   UNL     1       3.752  33.678  63.200  1.00  0.00    -0.082 Cl
HETATM   28  C   UNL     1       6.299  33.502  64.198  1.00  0.00     0.055 A 
HETATM   29 CL   UNL     1       5.873  34.554  65.501  1.00  0.00    -0.083 Cl
HETATM   30  C   UNL     1       7.611  33.032  64.146  1.00  0.00     0.028 A 
HETATM   31  C   UNL     1       8.010  32.186  63.107  1.00  0.00     0.031 A 
ENDBRANCH  21  24
ENDBRANCH  19  20
ENDBRANCH   4  19
TORSDOF 5
ENDMDL
MODEL 3
REMARK VINA RESULT:     -10.2      5.705     10.833
REMARK  5 active torsions:
REMARK  status: ('A' for Active; 'I' for Inactive)
REMARK    1  A    between atoms: C_2  and  N_3 
REMARK       I    between atoms: N_3  and  C_4 
REMARK       I    between atoms: C_4  and  N_5 
REMARK    2  A    between atoms: N_5  and  C_6 
REMARK    3  A    between atoms: C_9  and  C_10 
REMARK    4  A    between atoms: C_10  and  C_11 
REMARK       I    between atoms: C_11  and  N_12 
REMARK    5  A    between atoms: N_12  and  C_13 
ROOT
HETATM    1  C   UNL     1       7.248  30.260  58.483  1.00  0.00     0.174 A 
HETATM    2  S   UNL     1       8.938  30.314  58.263  1.00  0.00    -0.062 SA
HETATM    3  C   UNL     1       8.786  29.179  56.983  1.00  0.00     0.081 A 
HETATM    4  C   UNL     1       7.454  28.850  56.796  1.00  0.00     0.052 A 
HETATM    5  N   UNL     1       6.579  29.486  57.667  1.00  0.00    -0.228 NA
ENDROOT
BRANCH   1   6
HETATM    6  N   UNL     1       6.775  31.063  59.480  1.00  0.00    -0.287 N 
HETATM    7  C   UNL     1       6.305  32.316  59.229  1.00  0.00     0.326 C 
HETATM    8  N   UNL     1       5.956  33.069  60.317  1.00  0.00    -0.309 N 
HETATM    9  O   UNL     1       6.087  32.789  58.115  1.00  0.00    -0.247 OA
HETATM   10  H   UNL     1       5.375  33.854  60.048  1.00  0.00     0.170 HD
HETATM   11  H   UNL     1       6.548  30.626  60.358  1.00  0.00     0.172 HD
BRANCH   8  12
HETATM   12  C   UNL     1       6.362  33.020  61.662  1.00  0.00     0.036 A 
HETATM   13  C   UNL     1       7.654  32.685  62.079  1.00  0.00     0.032 A 
HETATM   14  C   UNL     1       7.984  32.704  63.438  1.00  0.00     0.044 A 
HETATM   15  C   UNL     1       7.025  33.069  64.376  1.00  0.00     0.116 A 
HETATM   16  C   UNL     1       5.744  33.427  63.979  1.00  0.00     0.044 A 
HETATM   17  F   UNL     1       7.347  33.093  65.675  1.00  0.00    -0.206 F 
HETATM   18  C   UNL     1       5.416  33.411  62.622  1.00  0.00     0.032 A 
ENDBRANCH   8  12
ENDBRANCH   1   6
BRANCH   4  19
HETATM   19  C   UNL     1       6.887  27.950  55.747  1.00  0.00     0.163 C 
BRANCH  19  20
HETATM   20  C   UNL     1       7.374  26.510  55.823  1.00  0.00     0.227 C 
HETATM   21  N   UNL     1       6.906  25.688  54.814  1.00  0.00    -0.327 N 
HETATM   22  H   UNL     1       6.138  26.068  54.251  1.00  0.00     0.169 HD
HETATM   23  O   UNL     1       8.182  26.185  56.692  1.00  0.00    -0.273 OA
BRANCH  21  24
HETATM   24  C   UNL     1       7.299  24.367  54.523  1.00  0.00     0.036 A 
HETATM   25  C   UNL     1       7.246  23.315  55.439  1.00  0.00     0.055 A 
HETATM   26  C   UNL     1       7.686  22.033  55.078  1.00  0.00     0.058 A 
HETATM   27 CL   UNL     1       7.609  20.787  56.274  1.00  0.00    -0.082 Cl
HETATM   28  C   UNL     1       8.176  21.796  53.789  1.00  0.00     0.055 A 
HETATM   29 CL   UNL     1       8.736  20.244  53.274  1.00  0.00    -0.083 Cl
HETATM   30  C   UNL     1       8.230  22.843  52.870  1.00  0.00     0.028 A 
HETATM   31  C   UNL     1       7.798  24.120  53.239  1.00  0.00     0.031 A 
ENDBRANCH  21  24
ENDBRANCH  19  20
ENDBRANCH   4  19
TORSDOF 5
ENDMDL
MODEL 4
REMARK VINA RESULT:     -10.1      5.635      9.967
REMARK  5 active torsions:
REMARK  status: ('A' for Active; 'I' for Inactive)
REMARK    1  A    between atoms: C_2  and  N_3 
REMARK       I    between atoms: N_3  and  C_4 
REMARK       I    between atoms: C_4  and  N_5 
REMARK    2  A    between atoms: N_5  and  C_6 
REMARK    3  A    between atoms: C_9  and  C_10 
REMARK    4  A    between atoms: C_10  and  C_11 
REMARK       I    between atoms: C_11  and  N_12 
REMARK    5  A    between atoms: N_12  and  C_13 
ROOT
HETATM    1  C   UNL     1       6.872  29.492  56.835  1.00  0.00     0.174 A 
HETATM    2  S   UNL     1       5.232  29.300  57.262  1.00  0.00    -0.062 SA
HETATM    3  C   UNL     1       4.968  28.461  55.787  1.00  0.00     0.081 A 
HETATM    4  C   UNL     1       6.153  28.365  55.076  1.00  0.00     0.052 A 
HETATM    5  N   UNL     1       7.242  28.962  55.697  1.00  0.00    -0.228 NA
ENDROOT
BRANCH   1   6
HETATM    6  N   UNL     1       7.628  30.160  57.754  1.00  0.00    -0.287 N 
HETATM    7  C   UNL     1       8.944  29.872  57.944  1.00  0.00     0.326 C 
HETATM    8  N   UNL     1       9.574  30.531  58.965  1.00  0.00    -0.309 N 
HETATM    9  O   UNL     1       9.629  29.143  57.229  1.00  0.00    -0.247 OA
HETATM   10  H   UNL     1      10.582  30.476  58.871  1.00  0.00     0.170 HD
HETATM   11  H   UNL     1       7.265  31.030  58.107  1.00  0.00     0.172 HD
BRANCH   8  12
HETATM   12  C   UNL     1       9.086  31.126  60.142  1.00  0.00     0.036 A 
HETATM   13  C   UNL     1       8.433  32.362  60.181  1.00  0.00     0.032 A 
HETATM   14  C   UNL     1       7.940  32.860  61.391  1.00  0.00     0.044 A 
HETATM   15  C   UNL     1       8.090  32.117  62.556  1.00  0.00     0.116 A 
HETATM   16  C   UNL     1       8.715  30.878  62.532  1.00  0.00     0.044 A 
HETATM   17  F   UNL     1       7.610  32.595  63.711  1.00  0.00    -0.206 F 
HETATM   18  C   UNL     1       9.204  30.379  61.323  1.00  0.00     0.032 A 
ENDBRANCH   8  12
ENDBRANCH   1   6
BRANCH   4  19
HETATM   19  C   UNL     1       6.370  27.659  53.779  1.00  0.00     0.163 C 
BRANCH  19  20
HETATM   20  C   UNL     1       6.334  26.140  53.875  1.00  0.00     0.227 C 
HETATM   21  N   UNL     1       7.542  25.553  54.204  1.00  0.00    -0.327 N 
HETATM   22  H   UNL     1       8.364  26.164  54.150  1.00  0.00     0.169 HD
HETATM   23  O   UNL     1       5.265  25.547  53.737  1.00  0.00    -0.273 OA
BRANCH  21  24
HETATM   24  C   UNL     1       7.790  24.203  54.521  1.00  0.00     0.036 A 
HETATM   25  C   UNL     1       7.872  23.179  53.576  1.00  0.00     0.055 A 
HETATM   26  C   UNL     1       8.091  21.854  53.978  1.00  0.00     0.058 A 
HETATM   27 CL   UNL     1       8.160  20.638  52.749  1.00  0.00    -0.082 Cl
HETATM   28  C   UNL     1       8.236  21.546  55.335  1.00  0.00     0.055 A 
HETATM   29 CL   UNL     1       8.507  19.937  55.903  1.00  0.00    -0.083 Cl
HETATM   30  C   UNL     1       8.156  22.565  56.283  1.00  0.00     0.028 A 
HETATM   31  C   UNL     1       7.929  23.883  55.877  1.00  0.00     0.031 A 
ENDBRANCH  21  24
ENDBRANCH  19  20
ENDBRANCH   4  19
TORSDOF 5
ENDMDL
MODEL 5
REMARK VINA RESULT:     -10.1      5.810      9.849
REMARK  5 active torsions:
REMARK  status: ('A' for Active; 'I' for Inactive)
REMARK    1  A    between atoms: C_2  and  N_3 
REMARK       I    between atoms: N_3  and  C_4 
REMARK       I    between atoms: C_4  and  N_5 
REMARK    2  A    between atoms: N_5  and  C_6 
REMARK    3  A    between atoms: C_9  and  C_10 
REMARK    4  A    between atoms: C_10  and  C_11 
REMARK       I    between atoms: C_11  and  N_12 
REMARK    5  A    between atoms: N_12  and  C_13 
ROOT
HETATM    1  C   UNL     1       6.296  28.714  54.748  1.00  0.00     0.174 A 
HETATM    2  S   UNL     1       4.756  29.428  54.909  1.00  0.00    -0.062 SA
HETATM    3  C   UNL     1       4.225  28.543  53.535  1.00  0.00     0.081 A 
HETATM    4  C   UNL     1       5.253  27.747  53.058  1.00  0.00     0.052 A 
HETATM    5  N   UNL     1       6.440  27.855  53.772  1.00  0.00    -0.228 NA
ENDROOT
BRANCH   1   6
HETATM    6  N   UNL     1       7.207  29.104  55.686  1.00  0.00    -0.287 N 
HETATM    7  C   UNL     1       7.990  28.204  56.342  1.00  0.00     0.326 C 
HETATM    8  N   UNL     1       8.790  28.699  57.336  1.00  0.00    -0.309 N 
HETATM    9  O   UNL     1       8.101  27.012  56.062  1.00  0.00    -0.247 OA
HETATM   10  H   UNL     1       9.521  28.040  57.580  1.00  0.00     0.170 HD
HETATM   11  H   UNL     1       7.466  30.077  55.703  1.00  0.00     0.172 HD
BRANCH   8  12
HETATM   12  C   UNL     1       8.694  29.852  58.134  1.00  0.00     0.036 A 
HETATM   13  C   UNL     1       7.538  30.232  58.824  1.00  0.00     0.032 A 
HETATM   14  C   UNL     1       7.543  31.373  59.632  1.00  0.00     0.044 A 
HETATM   15  C   UNL     1       8.705  32.125  59.758  1.00  0.00     0.116 A 
HETATM   16  C   UNL     1       9.868  31.750  59.100  1.00  0.00     0.044 A 
HETATM   17  F   UNL     1       8.707  33.213  60.539  1.00  0.00    -0.206 F 
HETATM   18  C   UNL     1       9.864  30.608  58.296  1.00  0.00     0.032 A 
ENDBRANCH   8  12
ENDBRANCH   1   6
BRANCH   4  19
HETATM   19  C   UNL     1       5.190  26.778  51.923  1.00  0.00     0.163 C 
BRANCH  19  20
HETATM   20  C   UNL     1       5.435  25.329  52.318  1.00  0.00     0.227 C 
HETATM   21  N   UNL     1       6.643  25.099  52.951  1.00  0.00    -0.327 N 
HETATM   22  H   UNL     1       7.321  25.867  52.909  1.00  0.00     0.169 HD
HETATM   23  O   UNL     1       4.555  24.490  52.132  1.00  0.00    -0.273 OA
BRANCH  21  24
HETATM   24  C   UNL     1       7.082  23.913  53.571  1.00  0.00     0.036 A 
HETATM   25  C   UNL     1       7.559  22.798  52.880  1.00  0.00     0.055 A 
HETATM   26  C   UNL     1       7.949  21.643  53.572  1.00  0.00     0.058 A 
HETATM   27 CL   UNL     1       8.509  20.295  52.643  1.00  0.00    -0.082 Cl
HETATM   28  C   UNL     1       7.869  21.600  54.968  1.00  0.00     0.055 A 
HETATM   29 CL   UNL     1       8.330  20.211  55.887  1.00  0.00    -0.083 Cl
HETATM   30  C   UNL     1       7.395  22.711  55.664  1.00  0.00     0.028 A 
HETATM   31  C   UNL     1       7.000  23.857  54.968  1.00  0.00     0.031 A 
ENDBRANCH  21  24
ENDBRANCH  19  20
ENDBRANCH   4  19
TORSDOF 5
ENDMDL
MODEL 6
REMARK VINA RESULT:     -10.0      7.062      9.682
REMARK  5 active torsions:
REMARK  status: ('A' for Active; 'I' for Inactive)
REMARK    1  A    between atoms: C_2  and  N_3 
REMARK       I    between atoms: N_3  and  C_4 
REMARK       I    between atoms: C_4  and  N_5 
REMARK    2  A    between atoms: N_5  and  C_6 
REMARK    3  A    between atoms: C_9  and  C_10 
REMARK    4  A    between atoms: C_10  and  C_11 
REMARK       I    between atoms: C_11  and  N_12 
REMARK    5  A    between atoms: N_12  and  C_13 
ROOT
HETATM    1  C   UNL     1       4.417  27.516  53.052  1.00  0.00     0.174 A 
HETATM    2  S   UNL     1       3.813  29.064  53.435  1.00  0.00    -0.062 SA
HETATM    3  C   UNL     1       4.406  28.876  55.036  1.00  0.00     0.081 A 
HETATM    4  C   UNL     1       5.044  27.654  55.165  1.00  0.00     0.052 A 
HETATM    5  N   UNL     1       5.044  26.883  54.010  1.00  0.00    -0.228 NA
ENDROOT
BRANCH   1   6
HETATM    6  N   UNL     1       4.201  27.121  51.763  1.00  0.00    -0.287 N 
HETATM    7  C   UNL     1       5.207  26.640  50.983  1.00  0.00     0.326 C 
HETATM    8  N   UNL     1       4.895  26.375  49.676  1.00  0.00    -0.309 N 
HETATM    9  O   UNL     1       6.336  26.346  51.370  1.00  0.00    -0.247 OA
HETATM   10  H   UNL     1       5.594  25.780  49.247  1.00  0.00     0.170 HD
HETATM   11  H   UNL     1       3.248  26.954  51.485  1.00  0.00     0.172 HD
BRANCH   8  12
HETATM   12  C   UNL     1       3.891  26.876  48.830  1.00  0.00     0.036 A 
HETATM   13  C   UNL     1       3.659  28.237  48.610  1.00  0.00     0.032 A 
HETATM   14  C   UNL     1       2.665  28.647  47.716  1.00  0.00     0.044 A 
HETATM   15  C   UNL     1       1.914  27.697  47.035  1.00  0.00     0.116 A 
HETATM   16  C   UNL     1       2.146  26.342  47.222  1.00  0.00     0.044 A 
HETATM   17  F   UNL     1       0.969  28.094  46.174  1.00  0.00    -0.206 F 
HETATM   18  C   UNL     1       3.141  25.932  48.113  1.00  0.00     0.032 A 
ENDBRANCH   8  12
ENDBRANCH   1   6
BRANCH   4  19
HETATM   19  C   UNL     1       5.751  27.130  56.371  1.00  0.00     0.163 C 
BRANCH  19  20
HETATM   20  C   UNL     1       6.748  26.016  56.083  1.00  0.00     0.227 C 
HETATM   21  N   UNL     1       6.194  24.870  55.542  1.00  0.00    -0.327 N 
HETATM   22  H   UNL     1       5.170  24.810  55.580  1.00  0.00     0.169 HD
HETATM   23  O   UNL     1       7.949  26.212  56.265  1.00  0.00    -0.273 OA
BRANCH  21  24
HETATM   24  C   UNL     1       6.866  23.746  55.025  1.00  0.00     0.036 A 
HETATM   25  C   UNL     1       7.440  22.746  55.812  1.00  0.00     0.055 A 
HETATM   26  C   UNL     1       8.119  21.673  55.218  1.00  0.00     0.058 A 
HETATM   27 CL   UNL     1       8.821  20.485  56.262  1.00  0.00    -0.082 Cl
HETATM   28  C   UNL     1       8.222  21.592  53.825  1.00  0.00     0.055 A 
HETATM   29 CL   UNL     1       9.045  20.300  53.024  1.00  0.00    -0.083 Cl
HETATM   30  C   UNL     1       7.650  22.586  53.034  1.00  0.00     0.028 A 
HETATM   31  C   UNL     1       6.981  23.658  53.633  1.00  0.00     0.031 A 
ENDBRANCH  21  24
ENDBRANCH  19  20
ENDBRANCH   4  19
TORSDOF 5
ENDMDL
MODEL 7
REMARK VINA RESULT:      -9.6      2.603      3.151
REMARK  5 active torsions:
REMARK  status: ('A' for Active; 'I' for Inactive)
REMARK    1  A    between atoms: C_2  and  N_3 
REMARK       I    between atoms: N_3  and  C_4 
REMARK       I    between atoms: C_4  and  N_5 
REMARK    2  A    between atoms: N_5  and  C_6 
REMARK    3  A    between atoms: C_9  and  C_10 
REMARK    4  A    between atoms: C_10  and  C_11 
REMARK       I    between atoms: C_11  and  N_12 
REMARK    5  A    between atoms: N_12  and  C_13 
ROOT
HETATM    1  C   UNL     1       5.648  27.147  54.699  1.00  0.00     0.174 A 
HETATM    2  S   UNL     1       5.687  27.612  53.059  1.00  0.00    -0.062 SA
HETATM    3  C   UNL     1       4.875  29.067  53.474  1.00  0.00     0.081 A 
HETATM    4  C   UNL     1       4.646  29.111  54.839  1.00  0.00     0.052 A 
HETATM    5  N   UNL     1       5.102  27.996  55.531  1.00  0.00    -0.228 NA
ENDROOT
BRANCH   1   6
HETATM    6  N   UNL     1       6.223  25.939  54.965  1.00  0.00    -0.287 N 
HETATM    7  C   UNL     1       7.299  25.823  55.792  1.00  0.00     0.326 C 
HETATM    8  N   UNL     1       7.857  24.579  55.900  1.00  0.00    -0.309 N 
HETATM    9  O   UNL     1       7.751  26.715  56.508  1.00  0.00    -0.247 OA
HETATM   10  H   UNL     1       8.455  24.515  56.716  1.00  0.00     0.170 HD
HETATM   11  H   UNL     1       5.691  25.114  54.743  1.00  0.00     0.172 HD
BRANCH   8  12
HETATM   12  C   UNL     1       7.853  23.468  55.038  1.00  0.00     0.036 A 
HETATM   13  C   UNL     1       8.004  23.554  53.650  1.00  0.00     0.032 A 
HETATM   14  C   UNL     1       8.031  22.393  52.872  1.00  0.00     0.044 A 
HETATM   15  C   UNL     1       7.920  21.149  53.482  1.00  0.00     0.116 A 
HETATM   16  C   UNL     1       7.793  21.044  54.860  1.00  0.00     0.044 A 
HETATM   17  F   UNL     1       7.954  20.040  52.733  1.00  0.00    -0.206 F 
HETATM   18  C   UNL     1       7.769  22.203  55.638  1.00  0.00     0.032 A 
ENDBRANCH   8  12
ENDBRANCH   1   6
BRANCH   4  19
HETATM   19  C   UNL     1       4.027  30.227  55.613  1.00  0.00     0.163 C 
BRANCH  19  20
HETATM   20  C   UNL     1       4.532  30.357  57.044  1.00  0.00     0.227 C 
HETATM   21  N   UNL     1       5.894  30.567  57.159  1.00  0.00    -0.327 N 
HETATM   22  H   UNL     1       6.442  30.413  56.306  1.00  0.00     0.169 HD
HETATM   23  O   UNL     1       3.729  30.347  57.976  1.00  0.00    -0.273 OA
BRANCH  21  24
HETATM   24  C   UNL     1       6.625  30.883  58.321  1.00  0.00     0.036 A 
HETATM   25  C   UNL     1       6.271  31.893  59.218  1.00  0.00     0.055 A 
HETATM   26  C   UNL     1       7.071  32.165  60.336  1.00  0.00     0.058 A 
HETATM   27 CL   UNL     1       6.577  33.446  61.389  1.00  0.00    -0.082 Cl
HETATM   28  C   UNL     1       8.231  31.419  60.568  1.00  0.00     0.055 A 
HETATM   29 CL   UNL     1       9.265  31.699  61.924  1.00  0.00    -0.083 Cl
HETATM   30  C   UNL     1       8.589  30.409  59.677  1.00  0.00     0.028 A 
HETATM   31  C   UNL     1       7.792  30.148  58.558  1.00  0.00     0.031 A 
ENDBRANCH  21  24
ENDBRANCH  19  20
ENDBRANCH   4  19
TORSDOF 5
ENDMDL
MODEL 8
REMARK VINA RESULT:      -9.2      7.686      9.653
REMARK  5 active torsions:
REMARK  status: ('A' for Active; 'I' for Inactive)
REMARK    1  A    between atoms: C_2  and  N_3 
REMARK       I    between atoms: N_3  and  C_4 
REMARK       I    between atoms: C_4  and  N_5 
REMARK    2  A    between atoms: N_5  and  C_6 
REMARK    3  A    between atoms: C_9  and  C_10 
REMARK    4  A    between atoms: C_10  and  C_11 
REMARK       I    between atoms: C_11  and  N_12 
REMARK    5  A    between atoms: N_12  and  C_13 
ROOT
HETATM    1  C   UNL     1       3.591  28.719  52.387  1.00  0.00     0.174 A 
HETATM    2  S   UNL     1       3.741  30.414  52.496  1.00  0.00    -0.062 SA
HETATM    3  C   UNL     1       4.022  30.259  54.184  1.00  0.00     0.081 A 
HETATM    4  C   UNL     1       4.003  28.923  54.547  1.00  0.00     0.052 A 
HETATM    5  N   UNL     1       3.757  28.048  53.497  1.00  0.00    -0.228 NA
ENDROOT
BRANCH   1   6
HETATM    6  N   UNL     1       3.341  28.247  51.131  1.00  0.00    -0.287 N 
HETATM    7  C   UNL     1       4.335  27.768  50.334  1.00  0.00     0.326 C 
HETATM    8  N   UNL     1       3.983  27.422  49.057  1.00  0.00    -0.309 N 
HETATM    9  O   UNL     1       5.490  27.542  50.688  1.00  0.00    -0.247 OA
HETATM   10  H   UNL     1       4.689  26.834  48.630  1.00  0.00     0.170 HD
HETATM   11  H   UNL     1       2.386  28.028  50.902  1.00  0.00     0.172 HD
BRANCH   8  12
HETATM   12  C   UNL     1       2.924  27.835  48.230  1.00  0.00     0.036 A 
HETATM   13  C   UNL     1       2.868  29.079  47.593  1.00  0.00     0.032 A 
HETATM   14  C   UNL     1       1.797  29.391  46.750  1.00  0.00     0.044 A 
HETATM   15  C   UNL     1       0.792  28.456  46.535  1.00  0.00     0.116 A 
HETATM   16  C   UNL     1       0.843  27.208  47.140  1.00  0.00     0.044 A 
HETATM   17  F   UNL     1      -0.228  28.756  45.722  1.00  0.00    -0.206 F 
HETATM   18  C   UNL     1       1.914  26.894  47.979  1.00  0.00     0.032 A 
ENDBRANCH   8  12
ENDBRANCH   1   6
BRANCH   4  19
HETATM   19  C   UNL     1       4.267  28.355  55.902  1.00  0.00     0.163 C 
BRANCH  19  20
HETATM   20  C   UNL     1       5.500  27.465  55.983  1.00  0.00     0.227 C 
HETATM   21  N   UNL     1       5.262  26.124  55.742  1.00  0.00    -0.327 N 
HETATM   22  H   UNL     1       4.276  25.841  55.737  1.00  0.00     0.169 HD
HETATM   23  O   UNL     1       6.605  27.972  56.173  1.00  0.00    -0.273 OA
BRANCH  21  24
HETATM   24  C   UNL     1       6.208  25.093  55.588  1.00  0.00     0.036 A 
HETATM   25  C   UNL     1       6.502  24.476  54.370  1.00  0.00     0.055 A 
HETATM   26  C   UNL     1       7.437  23.433  54.307  1.00  0.00     0.058 A 
HETATM   27 CL   UNL     1       7.732  22.705  52.766  1.00  0.00    -0.082 Cl
HETATM   28  C   UNL     1       8.091  23.005  55.468  1.00  0.00     0.055 A 
HETATM   29 CL   UNL     1       9.253  21.726  55.466  1.00  0.00    -0.083 Cl
HETATM   30  C   UNL     1       7.803  23.618  56.686  1.00  0.00     0.028 A 
HETATM   31  C   UNL     1       6.863  24.651  56.744  1.00  0.00     0.031 A 
ENDBRANCH  21  24
ENDBRANCH  19  20
ENDBRANCH   4  19
TORSDOF 5
ENDMDL
MODEL 9
REMARK VINA RESULT:      -8.9      7.803     10.146
REMARK  5 active torsions:
REMARK  status: ('A' for Active; 'I' for Inactive)
REMARK    1  A    between atoms: C_2  and  N_3 
REMARK       I    between atoms: N_3  and  C_4 
REMARK       I    between atoms: C_4  and  N_5 
REMARK    2  A    between atoms: N_5  and  C_6 
REMARK    3  A    between atoms: C_9  and  C_10 
REMARK    4  A    between atoms: C_10  and  C_11 
REMARK       I    between atoms: C_11  and  N_12 
REMARK    5  A    between atoms: N_12  and  C_13 
ROOT
HETATM    1  C   UNL     1       5.723  27.361  53.380  1.00  0.00     0.174 A 
HETATM    2  S   UNL     1       4.453  28.087  54.256  1.00  0.00    -0.062 SA
HETATM    3  C   UNL     1       4.338  29.300  53.045  1.00  0.00     0.081 A 
HETATM    4  C   UNL     1       5.263  29.058  52.042  1.00  0.00     0.052 A 
HETATM    5  N   UNL     1       6.051  27.933  52.249  1.00  0.00    -0.228 NA
ENDROOT
BRANCH   1   6
HETATM    6  N   UNL     1       6.240  26.234  53.950  1.00  0.00    -0.287 N 
HETATM    7  C   UNL     1       7.250  26.291  54.861  1.00  0.00     0.326 C 
HETATM    8  N   UNL     1       7.760  25.093  55.285  1.00  0.00    -0.309 N 
HETATM    9  O   UNL     1       7.678  27.313  55.395  1.00  0.00    -0.247 OA
HETATM   10  H   UNL     1       8.296  25.205  56.138  1.00  0.00     0.170 HD
HETATM   11  H   UNL     1       5.700  25.389  53.876  1.00  0.00     0.172 HD
BRANCH   8  12
HETATM   12  C   UNL     1       7.782  23.819  54.692  1.00  0.00     0.036 A 
HETATM   13  C   UNL     1       7.997  23.594  53.329  1.00  0.00     0.032 A 
HETATM   14  C   UNL     1       8.047  22.288  52.830  1.00  0.00     0.044 A 
HETATM   15  C   UNL     1       7.894  21.211  53.696  1.00  0.00     0.116 A 
HETATM   16  C   UNL     1       7.703  21.416  55.055  1.00  0.00     0.044 A 
HETATM   17  F   UNL     1       7.949  19.963  53.215  1.00  0.00    -0.206 F 
HETATM   18  C   UNL     1       7.657  22.719  55.554  1.00  0.00     0.032 A 
ENDBRANCH   8  12
ENDBRANCH   1   6
BRANCH   4  19
HETATM   19  C   UNL     1       5.447  29.835  50.781  1.00  0.00     0.163 C 
BRANCH  19  20
HETATM   20  C   UNL     1       4.786  29.214  49.557  1.00  0.00     0.227 C 
HETATM   21  N   UNL     1       3.404  29.187  49.597  1.00  0.00    -0.327 N 
HETATM   22  H   UNL     1       2.981  29.394  50.508  1.00  0.00     0.169 HD
HETATM   23  O   UNL     1       5.481  28.856  48.607  1.00  0.00    -0.273 OA
BRANCH  21  24
HETATM   24  C   UNL     1       2.516  28.830  48.564  1.00  0.00     0.036 A 
HETATM   25  C   UNL     1       1.994  29.732  47.634  1.00  0.00     0.055 A 
HETATM   26  C   UNL     1       1.090  29.300  46.654  1.00  0.00     0.058 A 
HETATM   27 CL   UNL     1       0.471  30.481  45.551  1.00  0.00    -0.082 Cl
HETATM   28  C   UNL     1       0.707  27.956  46.594  1.00  0.00     0.055 A 
HETATM   29 CL   UNL     1      -0.403  27.353  45.414  1.00  0.00    -0.083 Cl
HETATM   30  C   UNL     1       1.226  27.051  47.519  1.00  0.00     0.028 A 
HETATM   31  C   UNL     1       2.121  27.489  48.500  1.00  0.00     0.031 A 
ENDBRANCH  21  24
ENDBRANCH  19  20
ENDBRANCH   4  19
TORSDOF 5
ENDMDL
MODEL 10
REMARK VINA RESULT:      -8.9      2.715      3.600
REMARK  5 active torsions:
REMARK  status: ('A' for Active; 'I' for Inactive)
REMARK    1  A    between atoms: C_2  and  N_3 
REMARK       I    between atoms: N_3  and  C_4 
REMARK       I    between atoms: C_4  and  N_5 
REMARK    2  A    between atoms: N_5  and  C_6 
REMARK    3  A    between atoms: C_9  and  C_10 
REMARK    4  A    between atoms: C_10  and  C_11 
REMARK       I    between atoms: C_11  and  N_12 
REMARK    5  A    between atoms: N_12  and  C_13 
ROOT
HETATM    1  C   UNL     1       6.468  26.419  54.815  1.00  0.00     0.174 A 
HETATM    2  S   UNL     1       7.300  26.827  53.384  1.00  0.00    -0.062 SA
HETATM    3  C   UNL     1       6.289  28.206  53.214  1.00  0.00     0.081 A 
HETATM    4  C   UNL     1       5.398  28.273  54.272  1.00  0.00     0.052 A 
HETATM    5  N   UNL     1       5.518  27.236  55.189  1.00  0.00    -0.228 NA
ENDROOT
BRANCH   1   6
HETATM    6  N   UNL     1       6.914  25.286  55.432  1.00  0.00    -0.287 N 
HETATM    7  C   UNL     1       7.666  25.336  56.565  1.00  0.00     0.326 C 
HETATM    8  N   UNL     1       8.145  24.143  57.035  1.00  0.00    -0.309 N 
HETATM    9  O   UNL     1       7.875  26.340  57.243  1.00  0.00    -0.247 OA
HETATM   10  H   UNL     1       8.449  24.224  57.998  1.00  0.00     0.170 HD
HETATM   11  H   UNL     1       6.471  24.418  55.180  1.00  0.00     0.172 HD
BRANCH   8  12
HETATM   12  C   UNL     1       8.404  22.917  56.396  1.00  0.00     0.036 A 
HETATM   13  C   UNL     1       8.190  21.667  56.986  1.00  0.00     0.032 A 
HETATM   14  C   UNL     1       8.433  20.496  56.262  1.00  0.00     0.044 A 
HETATM   15  C   UNL     1       8.878  20.576  54.947  1.00  0.00     0.116 A 
HETATM   16  C   UNL     1       9.074  21.808  54.339  1.00  0.00     0.044 A 
HETATM   17  F   UNL     1       9.102  19.452  54.255  1.00  0.00    -0.206 F 
HETATM   18  C   UNL     1       8.827  22.978  55.060  1.00  0.00     0.032 A 
ENDBRANCH   8  12
ENDBRANCH   1   6
BRANCH   4  19
HETATM   19  C   UNL     1       4.394  29.347  54.537  1.00  0.00     0.163 C 
BRANCH  19  20
HETATM   20  C   UNL     1       4.847  30.398  55.540  1.00  0.00     0.227 C 
HETATM   21  N   UNL     1       5.258  29.894  56.761  1.00  0.00    -0.327 N 
HETATM   22  H   UNL     1       5.029  28.910  56.936  1.00  0.00     0.169 HD
HETATM   23  O   UNL     1       4.896  31.581  55.203  1.00  0.00    -0.273 OA
BRANCH  21  24
HETATM   24  C   UNL     1       5.875  30.588  57.820  1.00  0.00     0.036 A 
HETATM   25  C   UNL     1       7.165  30.324  58.283  1.00  0.00     0.055 A 
HETATM   26  C   UNL     1       7.695  31.042  59.365  1.00  0.00     0.058 A 
HETATM   27 CL   UNL     1       9.292  30.642  59.894  1.00  0.00    -0.082 Cl
HETATM   28  C   UNL     1       6.934  32.038  59.987  1.00  0.00     0.055 A 
HETATM   29 CL   UNL     1       7.521  32.961  61.325  1.00  0.00    -0.083 Cl
HETATM   30  C   UNL     1       5.646  32.307  59.528  1.00  0.00     0.028 A 
HETATM   31  C   UNL     1       5.120  31.582  58.455  1.00  0.00     0.031 A 
ENDBRANCH  21  24
ENDBRANCH  19  20
ENDBRANCH   4  19
TORSDOF 5
ENDMDL
