MODEL 1
REMARK VINA RESULT:     -10.1      0.000      0.000
REMARK  6 active torsions:
REMARK  status: ('A' for Active; 'I' for Inactive)
REMARK    1  A    between atoms: C_6  and  C_7 
REMARK    2  A    between atoms: N_8  and  N_9 
REMARK       I    between atoms: N_9  and  C_10 
REMARK    3  A    between atoms: C_10  and  C_11 
REMARK    4  A    between atoms: C_14  and  O_15 
REMARK    5  A    between atoms: O_15  and  C_16 
REMARK    6  A    between atoms: C_16  and  C_17 
ROOT
HETATM    1  C   UNL     1       6.243  25.631  55.837  1.00  0.00     0.244 C 
HETATM    2  N   UNL     1       6.823  26.919  55.472  1.00  0.00    -0.225 N 
HETATM    3  C   UNL     1       7.034  27.297  54.159  1.00  0.00     0.276 C 
HETATM    4  O   UNL     1       7.754  28.242  53.842  1.00  0.00    -0.266 OA
HETATM    5  C   UNL     1       6.287  26.518  53.148  1.00  0.00     0.060 A 
HETATM    6  C   UNL     1       5.285  25.651  53.611  1.00  0.00     0.045 A 
HETATM    7  N   UNL     1       5.045  25.510  54.985  1.00  0.00    -0.362 N 
HETATM    8  C   UNL     1       6.515  26.707  51.782  1.00  0.00     0.019 A 
HETATM    9  C   UNL     1       5.724  26.029  50.857  1.00  0.00     0.001 A 
HETATM   10  C   UNL     1       4.697  25.193  51.301  1.00  0.00     0.002 A 
HETATM   11  C   UNL     1       4.470  25.017  52.670  1.00  0.00     0.030 A 
HETATM   12  H   UNL     1       4.419  24.767  55.253  1.00  0.00     0.162 HD
ENDROOT
BRANCH   2  13
HETATM   13  N   UNL     1       7.345  27.769  56.473  1.00  0.00    -0.258 N 
HETATM   14  C   UNL     1       6.548  28.683  57.135  1.00  0.00     0.270 C 
HETATM   15  O   UNL     1       5.325  28.676  57.180  1.00  0.00    -0.266 OA
HETATM   16  H   UNL     1       8.343  27.941  56.370  1.00  0.00     0.190 HD
BRANCH  14  17
HETATM   17  C   UNL     1       7.304  29.696  57.910  1.00  0.00     0.033 A 
HETATM   18  C   UNL     1       8.671  29.546  58.161  1.00  0.00     0.020 A 
HETATM   19  C   UNL     1       9.350  30.505  58.922  1.00  0.00     0.038 A 
HETATM   20  C   UNL     1       8.666  31.610  59.434  1.00  0.00     0.069 A 
HETATM   21  C   UNL     1       7.300  31.758  59.167  1.00  0.00     0.038 A 
HETATM   22  C   UNL     1       6.619  30.811  58.399  1.00  0.00     0.020 A 
BRANCH  20  23
HETATM   23  O   UNL     1       9.203  32.605  60.204  1.00  0.00    -0.348 OA
BRANCH  23  24
HETATM   24  C   UNL     1       9.813  32.220  61.433  1.00  0.00     0.202 C 
BRANCH  24  25
HETATM   25  C   UNL     1       8.720  31.765  62.353  1.00  0.00    -0.011 C 
HETATM   26  C   UNL     1       8.044  32.563  63.189  1.00  0.00     0.009 C 
ENDBRANCH  24  25
ENDBRANCH  23  24
ENDBRANCH  20  23
ENDBRANCH  14  17
ENDBRANCH   2  13
BRANCH   1  27
HETATM   27  C   UNL     1       7.164  24.382  55.722  1.00  0.00    -0.009 A 
HETATM   28  C   UNL     1       8.194  24.032  56.632  1.00  0.00    -0.051 A 
HETATM   29  C   UNL     1       8.926  22.834  56.443  1.00  0.00     0.014 A 
HETATM   30  C   UNL     1       8.571  24.839  57.843  1.00  0.00     0.049 C 
HETATM   31  C   UNL     1       8.655  21.953  55.397  1.00  0.00    -0.061 A 
HETATM   32  C   UNL     1       9.414  20.667  55.259  1.00  0.00     0.048 C 
HETATM   33  C   UNL     1       7.613  22.257  54.534  1.00  0.00     0.007 A 
HETATM   34  C   UNL     1       6.884  23.439  54.699  1.00  0.00     0.012 A 
ENDBRANCH   1  27
TORSDOF 6
ENDMDL
MODEL 2
REMARK VINA RESULT:      -9.5      3.780      9.122
REMARK  6 active torsions:
REMARK  status: ('A' for Active; 'I' for Inactive)
REMARK    1  A    between atoms: C_6  and  C_7 
REMARK    2  A    between atoms: N_8  and  N_9 
REMARK       I    between atoms: N_9  and  C_10 
REMARK    3  A    between atoms: C_10  and  C_11 
REMARK    4  A    between atoms: C_14  and  O_15 
REMARK    5  A    between atoms: O_15  and  C_16 
REMARK    6  A    between atoms: C_16  and  C_17 
ROOT
HETATM    1  C   UNL     1       7.257  27.095  53.410  1.00  0.00     0.244 C 
HETATM    2  N   UNL     1       5.872  27.469  53.148  1.00  0.00    -0.225 N 
HETATM    3  C   UNL     1       5.040  27.984  54.125  1.00  0.00     0.276 C 
HETATM    4  O   UNL     1       3.818  28.052  53.998  1.00  0.00    -0.266 OA
HETATM    5  C   UNL     1       5.724  28.506  55.328  1.00  0.00     0.060 A 
HETATM    6  C   UNL     1       7.120  28.643  55.270  1.00  0.00     0.045 A 
HETATM    7  N   UNL     1       7.825  28.255  54.122  1.00  0.00    -0.362 N 
HETATM    8  C   UNL     1       4.995  28.927  56.444  1.00  0.00     0.019 A 
HETATM    9  C   UNL     1       5.666  29.505  57.519  1.00  0.00     0.001 A 
HETATM   10  C   UNL     1       7.050  29.685  57.460  1.00  0.00     0.002 A 
HETATM   11  C   UNL     1       7.770  29.270  56.335  1.00  0.00     0.030 A 
HETATM   12  H   UNL     1       8.830  28.241  54.201  1.00  0.00     0.162 HD
ENDROOT
BRANCH   2  13
HETATM   13  N   UNL     1       5.279  27.161  51.903  1.00  0.00    -0.258 N 
HETATM   14  C   UNL     1       5.199  28.094  50.888  1.00  0.00     0.270 C 
HETATM   15  O   UNL     1       5.849  29.127  50.804  1.00  0.00    -0.266 OA
HETATM   16  H   UNL     1       4.595  26.409  51.962  1.00  0.00     0.190 HD
BRANCH  14  17
HETATM   17  C   UNL     1       4.279  27.715  49.787  1.00  0.00     0.033 A 
HETATM   18  C   UNL     1       4.593  26.677  48.905  1.00  0.00     0.020 A 
HETATM   19  C   UNL     1       3.719  26.364  47.857  1.00  0.00     0.038 A 
HETATM   20  C   UNL     1       2.536  27.087  47.688  1.00  0.00     0.069 A 
HETATM   21  C   UNL     1       2.225  28.115  48.584  1.00  0.00     0.038 A 
HETATM   22  C   UNL     1       3.086  28.426  49.638  1.00  0.00     0.020 A 
BRANCH  20  23
HETATM   23  O   UNL     1       1.609  26.896  46.701  1.00  0.00    -0.348 OA
BRANCH  23  24
HETATM   24  C   UNL     1       0.349  27.545  46.854  1.00  0.00     0.202 C 
BRANCH  24  25
HETATM   25  C   UNL     1      -0.305  27.579  45.506  1.00  0.00    -0.011 C 
HETATM   26  C   UNL     1      -0.933  28.642  44.988  1.00  0.00     0.009 C 
ENDBRANCH  24  25
ENDBRANCH  23  24
ENDBRANCH  20  23
ENDBRANCH  14  17
ENDBRANCH   2  13
BRANCH   1  27
HETATM   27  C   UNL     1       7.496  25.766  54.184  1.00  0.00    -0.009 A 
HETATM   28  C   UNL     1       7.709  24.495  53.593  1.00  0.00    -0.051 A 
HETATM   29  C   UNL     1       7.972  23.370  54.411  1.00  0.00     0.014 A 
HETATM   30  C   UNL     1       7.712  24.234  52.112  1.00  0.00     0.049 C 
HETATM   31  C   UNL     1       8.058  23.464  55.801  1.00  0.00    -0.061 A 
HETATM   32  C   UNL     1       8.392  22.262  56.633  1.00  0.00     0.048 C 
HETATM   33  C   UNL     1       7.907  24.712  56.386  1.00  0.00     0.007 A 
HETATM   34  C   UNL     1       7.639  25.833  55.595  1.00  0.00     0.012 A 
ENDBRANCH   1  27
TORSDOF 6
ENDMDL
MODEL 3
REMARK VINA RESULT:      -9.2      3.667     10.905
REMARK  6 active torsions:
REMARK  status: ('A' for Active; 'I' for Inactive)
REMARK    1  A    between atoms: C_6  and  C_7 
REMARK    2  A    between atoms: N_8  and  N_9 
REMARK       I    between atoms: N_9  and  C_10 
REMARK    3  A    between atoms: C_10  and  C_11 
REMARK    4  A    between atoms: C_14  and  O_15 
REMARK    5  A    between atoms: O_15  and  C_16 
REMARK    6  A    between atoms: C_16  and  C_17 
ROOT
HETATM    1  C   UNL     1       5.107  32.349  61.797  1.00  0.00     0.244 C 
HETATM    2  N   UNL     1       6.495  31.903  61.854  1.00  0.00    -0.225 N 
HETATM    3  C   UNL     1       7.396  32.386  62.785  1.00  0.00     0.276 C 
HETATM    4  O   UNL     1       8.613  32.231  62.682  1.00  0.00    -0.266 OA
HETATM    5  C   UNL     1       6.797  33.065  63.954  1.00  0.00     0.060 A 
HETATM    6  C   UNL     1       5.409  32.952  64.125  1.00  0.00     0.045 A 
HETATM    7  N   UNL     1       4.631  32.255  63.190  1.00  0.00    -0.362 N 
HETATM    8  C   UNL     1       7.598  33.718  64.895  1.00  0.00     0.019 A 
HETATM    9  C   UNL     1       7.009  34.259  66.035  1.00  0.00     0.001 A 
HETATM   10  C   UNL     1       5.634  34.121  66.240  1.00  0.00     0.002 A 
HETATM   11  C   UNL     1       4.841  33.457  65.297  1.00  0.00     0.030 A 
HETATM   12  H   UNL     1       3.631  32.338  63.292  1.00  0.00     0.162 HD
ENDROOT
BRANCH   2  13
HETATM   13  N   UNL     1       7.012  31.066  60.840  1.00  0.00    -0.258 N 
HETATM   14  C   UNL     1       7.378  31.565  59.605  1.00  0.00     0.270 C 
HETATM   15  O   UNL     1       7.593  32.741  59.336  1.00  0.00    -0.266 OA
HETATM   16  H   UNL     1       6.713  30.098  60.931  1.00  0.00     0.190 HD
BRANCH  14  17
HETATM   17  C   UNL     1       7.594  30.526  58.570  1.00  0.00     0.033 A 
HETATM   18  C   UNL     1       8.851  29.946  58.375  1.00  0.00     0.020 A 
HETATM   19  C   UNL     1       9.029  28.989  57.369  1.00  0.00     0.038 A 
HETATM   20  C   UNL     1       7.956  28.613  56.557  1.00  0.00     0.069 A 
HETATM   21  C   UNL     1       6.700  29.190  56.769  1.00  0.00     0.038 A 
HETATM   22  C   UNL     1       6.511  30.137  57.778  1.00  0.00     0.020 A 
BRANCH  20  23
HETATM   23  O   UNL     1       8.000  27.709  55.532  1.00  0.00    -0.348 OA
BRANCH  23  24
HETATM   24  C   UNL     1       6.833  26.921  55.309  1.00  0.00     0.202 C 
BRANCH  24  25
HETATM   25  C   UNL     1       7.008  25.635  56.060  1.00  0.00    -0.011 C 
HETATM   26  C   UNL     1       6.209  25.213  57.048  1.00  0.00     0.009 C 
ENDBRANCH  24  25
ENDBRANCH  23  24
ENDBRANCH  20  23
ENDBRANCH  14  17
ENDBRANCH   2  13
BRANCH   1  27
HETATM   27  C   UNL     1       4.841  33.756  61.188  1.00  0.00    -0.009 A 
HETATM   28  C   UNL     1       4.342  34.007  59.884  1.00  0.00    -0.051 A 
HETATM   29  C   UNL     1       4.089  35.338  59.469  1.00  0.00     0.014 A 
HETATM   30  C   UNL     1       4.015  32.941  58.877  1.00  0.00     0.049 C 
HETATM   31  C   UNL     1       4.289  36.431  60.312  1.00  0.00    -0.061 A 
HETATM   32  C   UNL     1       3.961  37.821  59.858  1.00  0.00     0.048 C 
HETATM   33  C   UNL     1       4.724  36.193  61.607  1.00  0.00     0.007 A 
HETATM   34  C   UNL     1       4.986  34.887  62.033  1.00  0.00     0.012 A 
ENDBRANCH   1  27
TORSDOF 6
ENDMDL
MODEL 4
REMARK VINA RESULT:      -9.0      2.114      4.644
REMARK  6 active torsions:
REMARK  status: ('A' for Active; 'I' for Inactive)
REMARK    1  A    between atoms: C_6  and  C_7 
REMARK    2  A    between atoms: N_8  and  N_9 
REMARK       I    between atoms: N_9  and  C_10 
REMARK    3  A    between atoms: C_10  and  C_11 
REMARK    4  A    between atoms: C_14  and  O_15 
REMARK    5  A    between atoms: O_15  and  C_16 
REMARK    6  A    between atoms: C_16  and  C_17 
ROOT
HETATM    1  C   UNL     1       7.122  28.411  54.060  1.00  0.00     0.244 C 
HETATM    2  N   UNL     1       7.097  27.996  55.458  1.00  0.00    -0.225 N 
HETATM    3  C   UNL     1       6.865  26.688  55.843  1.00  0.00     0.276 C 
HETATM    4  O   UNL     1       6.577  26.372  56.997  1.00  0.00    -0.266 OA
HETATM    5  C   UNL     1       7.038  25.675  54.782  1.00  0.00     0.060 A 
HETATM    6  C   UNL     1       7.632  26.091  53.581  1.00  0.00     0.045 A 
HETATM    7  N   UNL     1       8.002  27.431  53.398  1.00  0.00    -0.362 N 
HETATM    8  C   UNL     1       6.700  24.336  55.004  1.00  0.00     0.019 A 
HETATM    9  C   UNL     1       6.970  23.391  54.016  1.00  0.00     0.001 A 
HETATM   10  C   UNL     1       7.596  23.783  52.831  1.00  0.00     0.002 A 
HETATM   11  C   UNL     1       7.940  25.123  52.622  1.00  0.00     0.030 A 
HETATM   12  H   UNL     1       8.285  27.691  52.465  1.00  0.00     0.162 HD
ENDROOT
BRANCH   2  13
HETATM   13  N   UNL     1       7.154  28.964  56.485  1.00  0.00    -0.258 N 
HETATM   14  C   UNL     1       8.347  29.545  56.869  1.00  0.00     0.270 C 
HETATM   15  O   UNL     1       9.389  29.547  56.227  1.00  0.00    -0.266 OA
HETATM   16  H   UNL     1       6.386  28.887  57.149  1.00  0.00     0.190 HD
BRANCH  14  17
HETATM   17  C   UNL     1       8.275  30.287  58.151  1.00  0.00     0.033 A 
HETATM   18  C   UNL     1       9.367  30.334  59.024  1.00  0.00     0.020 A 
HETATM   19  C   UNL     1       9.258  31.018  60.241  1.00  0.00     0.038 A 
HETATM   20  C   UNL     1       8.061  31.649  60.588  1.00  0.00     0.069 A 
HETATM   21  C   UNL     1       6.979  31.606  59.702  1.00  0.00     0.038 A 
HETATM   22  C   UNL     1       7.084  30.937  58.482  1.00  0.00     0.020 A 
BRANCH  20  23
HETATM   23  O   UNL     1       7.818  32.331  61.748  1.00  0.00    -0.348 OA
BRANCH  23  24
HETATM   24  C   UNL     1       6.717  31.894  62.543  1.00  0.00     0.202 C 
BRANCH  24  25
HETATM   25  C   UNL     1       6.569  32.865  63.675  1.00  0.00    -0.011 C 
HETATM   26  C   UNL     1       7.578  33.319  64.430  1.00  0.00     0.009 C 
ENDBRANCH  24  25
ENDBRANCH  23  24
ENDBRANCH  20  23
ENDBRANCH  14  17
ENDBRANCH   2  13
BRANCH   1  27
HETATM   27  C   UNL     1       5.750  28.539  53.337  1.00  0.00    -0.009 A 
HETATM   28  C   UNL     1       4.634  29.274  53.812  1.00  0.00    -0.051 A 
HETATM   29  C   UNL     1       3.457  29.358  53.028  1.00  0.00     0.014 A 
HETATM   30  C   UNL     1       4.601  30.027  55.113  1.00  0.00     0.049 C 
HETATM   31  C   UNL     1       3.356  28.759  51.772  1.00  0.00    -0.061 A 
HETATM   32  C   UNL     1       2.114  28.914  50.945  1.00  0.00     0.048 C 
HETATM   33  C   UNL     1       4.460  28.086  51.272  1.00  0.00     0.007 A 
HETATM   34  C   UNL     1       5.628  27.986  52.035  1.00  0.00     0.012 A 
ENDBRANCH   1  27
TORSDOF 6
ENDMDL
MODEL 5
REMARK VINA RESULT:      -8.9      3.298      8.358
REMARK  6 active torsions:
REMARK  status: ('A' for Active; 'I' for Inactive)
REMARK    1  A    between atoms: C_6  and  C_7 
REMARK    2  A    between atoms: N_8  and  N_9 
REMARK       I    between atoms: N_9  and  C_10 
REMARK    3  A    between atoms: C_10  and  C_11 
REMARK    4  A    between atoms: C_14  and  O_15 
REMARK    5  A    between atoms: O_15  and  C_16 
REMARK    6  A    between atoms: C_16  and  C_17 
ROOT
HETATM    1  C   UNL     1       7.663  27.821  53.745  1.00  0.00     0.244 C 
HETATM    2  N   UNL     1       6.429  28.597  53.791  1.00  0.00    -0.225 N 
HETATM    3  C   UNL     1       5.922  29.122  54.966  1.00  0.00     0.276 C 
HETATM    4  O   UNL     1       4.769  29.539  55.070  1.00  0.00    -0.266 OA
HETATM    5  C   UNL     1       6.880  29.202  56.089  1.00  0.00     0.060 A 
HETATM    6  C   UNL     1       8.233  28.967  55.803  1.00  0.00     0.045 A 
HETATM    7  N   UNL     1       8.637  28.628  54.504  1.00  0.00    -0.362 N 
HETATM    8  C   UNL     1       6.460  29.584  57.367  1.00  0.00     0.019 A 
HETATM    9  C   UNL     1       7.406  29.745  58.377  1.00  0.00     0.001 A 
HETATM   10  C   UNL     1       8.760  29.553  58.098  1.00  0.00     0.002 A 
HETATM   11  C   UNL     1       9.173  29.181  56.814  1.00  0.00     0.030 A 
HETATM   12  H   UNL     1       9.594  28.329  54.398  1.00  0.00     0.162 HD
ENDROOT
BRANCH   2  13
HETATM   13  N   UNL     1       5.615  28.702  52.641  1.00  0.00    -0.258 N 
HETATM   14  C   UNL     1       4.820  27.655  52.218  1.00  0.00     0.270 C 
HETATM   15  O   UNL     1       4.487  26.685  52.886  1.00  0.00    -0.266 OA
HETATM   16  H   UNL     1       5.958  29.387  51.971  1.00  0.00     0.190 HD
BRANCH  14  17
HETATM   17  C   UNL     1       4.288  27.816  50.843  1.00  0.00     0.033 A 
HETATM   18  C   UNL     1       4.822  27.097  49.769  1.00  0.00     0.020 A 
HETATM   19  C   UNL     1       4.318  27.293  48.478  1.00  0.00     0.038 A 
HETATM   20  C   UNL     1       3.285  28.208  48.258  1.00  0.00     0.069 A 
HETATM   21  C   UNL     1       2.749  28.913  49.340  1.00  0.00     0.038 A 
HETATM   22  C   UNL     1       3.239  28.714  50.633  1.00  0.00     0.020 A 
BRANCH  20  23
HETATM   23  O   UNL     1       2.718  28.506  47.050  1.00  0.00    -0.348 OA
BRANCH  23  24
HETATM   24  C   UNL     1       2.552  29.885  46.730  1.00  0.00     0.202 C 
BRANCH  24  25
HETATM   25  C   UNL     1       3.909  30.440  46.418  1.00  0.00    -0.011 C 
HETATM   26  C   UNL     1       4.481  31.466  47.061  1.00  0.00     0.009 C 
ENDBRANCH  24  25
ENDBRANCH  23  24
ENDBRANCH  20  23
ENDBRANCH  14  17
ENDBRANCH   2  13
BRANCH   1  27
HETATM   27  C   UNL     1       7.597  26.355  54.263  1.00  0.00    -0.009 A 
HETATM   28  C   UNL     1       7.597  25.194  53.450  1.00  0.00    -0.051 A 
HETATM   29  C   UNL     1       7.590  23.911  54.050  1.00  0.00     0.014 A 
HETATM   30  C   UNL     1       7.636  25.206  51.947  1.00  0.00     0.049 C 
HETATM   31  C   UNL     1       7.611  23.737  55.434  1.00  0.00    -0.061 A 
HETATM   32  C   UNL     1       7.658  22.364  56.035  1.00  0.00     0.048 C 
HETATM   33  C   UNL     1       7.668  24.865  56.238  1.00  0.00     0.007 A 
HETATM   34  C   UNL     1       7.667  26.140  55.665  1.00  0.00     0.012 A 
ENDBRANCH   1  27
TORSDOF 6
ENDMDL
MODEL 6
REMARK VINA RESULT:      -8.7      3.554      8.520
REMARK  6 active torsions:
REMARK  status: ('A' for Active; 'I' for Inactive)
REMARK    1  A    between atoms: C_6  and  C_7 
REMARK    2  A    between atoms: N_8  and  N_9 
REMARK       I    between atoms: N_9  and  C_10 
REMARK    3  A    between atoms: C_10  and  C_11 
REMARK    4  A    between atoms: C_14  and  O_15 
REMARK    5  A    between atoms: O_15  and  C_16 
REMARK    6  A    between atoms: C_16  and  C_17 
ROOT
HETATM    1  C   UNL     1       6.124  26.341  54.517  1.00  0.00     0.244 C 
HETATM    2  N   UNL     1       6.486  26.034  53.138  1.00  0.00    -0.225 N 
HETATM    3  C   UNL     1       7.443  25.091  52.811  1.00  0.00     0.276 C 
HETATM    4  O   UNL     1       7.948  25.010  51.691  1.00  0.00    -0.266 OA
HETATM    5  C   UNL     1       7.789  24.139  53.887  1.00  0.00     0.060 A 
HETATM    6  C   UNL     1       6.972  24.128  55.028  1.00  0.00     0.045 A 
HETATM    7  N   UNL     1       5.899  25.024  55.143  1.00  0.00    -0.362 N 
HETATM    8  C   UNL     1       8.836  23.226  53.732  1.00  0.00     0.019 A 
HETATM    9  C   UNL     1       9.069  22.278  54.725  1.00  0.00     0.001 A 
HETATM   10  C   UNL     1       8.241  22.230  55.848  1.00  0.00     0.002 A 
HETATM   11  C   UNL     1       7.188  23.140  55.991  1.00  0.00     0.030 A 
HETATM   12  H   UNL     1       5.448  25.065  56.044  1.00  0.00     0.162 HD
ENDROOT
BRANCH   2  13
HETATM   13  N   UNL     1       5.975  26.819  52.081  1.00  0.00    -0.258 N 
HETATM   14  C   UNL     1       5.192  26.271  51.084  1.00  0.00     0.270 C 
HETATM   15  O   UNL     1       4.611  25.194  51.132  1.00  0.00    -0.266 OA
HETATM   16  H   UNL     1       6.535  27.648  51.892  1.00  0.00     0.190 HD
BRANCH  14  17
HETATM   17  C   UNL     1       5.010  27.149  49.903  1.00  0.00     0.033 A 
HETATM   18  C   UNL     1       4.569  26.636  48.679  1.00  0.00     0.020 A 
HETATM   19  C   UNL     1       4.437  27.486  47.574  1.00  0.00     0.038 A 
HETATM   20  C   UNL     1       4.747  28.843  47.689  1.00  0.00     0.069 A 
HETATM   21  C   UNL     1       5.176  29.348  48.921  1.00  0.00     0.038 A 
HETATM   22  C   UNL     1       5.299  28.510  50.031  1.00  0.00     0.020 A 
BRANCH  20  23
HETATM   23  O   UNL     1       4.679  29.772  46.688  1.00  0.00    -0.348 OA
BRANCH  23  24
HETATM   24  C   UNL     1       3.767  30.854  46.863  1.00  0.00     0.202 C 
BRANCH  24  25
HETATM   25  C   UNL     1       2.454  30.432  46.274  1.00  0.00    -0.011 C 
HETATM   26  C   UNL     1       1.412  29.977  46.981  1.00  0.00     0.009 C 
ENDBRANCH  24  25
ENDBRANCH  23  24
ENDBRANCH  20  23
ENDBRANCH  14  17
ENDBRANCH   2  13
BRANCH   1  27
HETATM   27  C   UNL     1       7.125  27.207  55.335  1.00  0.00    -0.009 A 
HETATM   28  C   UNL     1       7.359  27.100  56.730  1.00  0.00    -0.051 A 
HETATM   29  C   UNL     1       8.342  27.913  57.346  1.00  0.00     0.014 A 
HETATM   30  C   UNL     1       6.648  26.139  57.641  1.00  0.00     0.049 C 
HETATM   31  C   UNL     1       9.124  28.813  56.622  1.00  0.00    -0.061 A 
HETATM   32  C   UNL     1      10.193  29.618  57.298  1.00  0.00     0.048 C 
HETATM   33  C   UNL     1       8.944  28.885  55.249  1.00  0.00     0.007 A 
HETATM   34  C   UNL     1       7.973  28.097  54.624  1.00  0.00     0.012 A 
ENDBRANCH   1  27
TORSDOF 6
ENDMDL
MODEL 7
REMARK VINA RESULT:      -8.7      3.565      8.793
REMARK  6 active torsions:
REMARK  status: ('A' for Active; 'I' for Inactive)
REMARK    1  A    between atoms: C_6  and  C_7 
REMARK    2  A    between atoms: N_8  and  N_9 
REMARK       I    between atoms: N_9  and  C_10 
REMARK    3  A    between atoms: C_10  and  C_11 
REMARK    4  A    between atoms: C_14  and  O_15 
REMARK    5  A    between atoms: O_15  and  C_16 
REMARK    6  A    between atoms: C_16  and  C_17 
ROOT
HETATM    1  C   UNL     1       6.218  26.704  54.453  1.00  0.00     0.244 C 
HETATM    2  N   UNL     1       6.449  26.240  53.090  1.00  0.00    -0.225 N 
HETATM    3  C   UNL     1       7.309  25.200  52.791  1.00  0.00     0.276 C 
HETATM    4  O   UNL     1       7.717  24.975  51.652  1.00  0.00    -0.266 OA
HETATM    5  C   UNL     1       7.673  24.331  53.930  1.00  0.00     0.060 A 
HETATM    6  C   UNL     1       6.950  24.492  55.122  1.00  0.00     0.045 A 
HETATM    7  N   UNL     1       5.954  25.474  55.223  1.00  0.00    -0.362 N 
HETATM    8  C   UNL     1       8.640  23.331  53.792  1.00  0.00     0.019 A 
HETATM    9  C   UNL     1       8.885  22.467  54.857  1.00  0.00     0.001 A 
HETATM   10  C   UNL     1       8.146  22.589  56.036  1.00  0.00     0.002 A 
HETATM   11  C   UNL     1       7.173  23.587  56.162  1.00  0.00     0.030 A 
HETATM   12  H   UNL     1       5.579  25.635  56.145  1.00  0.00     0.162 HD
ENDROOT
BRANCH   2  13
HETATM   13  N   UNL     1       5.910  26.958  51.998  1.00  0.00    -0.258 N 
HETATM   14  C   UNL     1       4.621  27.452  52.020  1.00  0.00     0.270 C 
HETATM   15  O   UNL     1       3.925  27.609  53.015  1.00  0.00    -0.266 OA
HETATM   16  H   UNL     1       6.353  26.727  51.111  1.00  0.00     0.190 HD
BRANCH  14  17
HETATM   17  C   UNL     1       4.116  27.891  50.697  1.00  0.00     0.033 A 
HETATM   18  C   UNL     1       3.169  28.914  50.584  1.00  0.00     0.020 A 
HETATM   19  C   UNL     1       2.690  29.284  49.322  1.00  0.00     0.038 A 
HETATM   20  C   UNL     1       3.151  28.634  48.175  1.00  0.00     0.069 A 
HETATM   21  C   UNL     1       4.108  27.620  48.298  1.00  0.00     0.038 A 
HETATM   22  C   UNL     1       4.599  27.253  49.552  1.00  0.00     0.020 A 
BRANCH  20  23
HETATM   23  O   UNL     1       2.753  28.885  46.892  1.00  0.00    -0.348 OA
BRANCH  23  24
HETATM   24  C   UNL     1       1.371  29.166  46.682  1.00  0.00     0.202 C 
BRANCH  24  25
HETATM   25  C   UNL     1       0.674  27.856  46.466  1.00  0.00    -0.011 C 
HETATM   26  C   UNL     1      -0.567  27.722  45.982  1.00  0.00     0.009 C 
ENDBRANCH  24  25
ENDBRANCH  23  24
ENDBRANCH  20  23
ENDBRANCH  14  17
ENDBRANCH   2  13
BRANCH   1  27
HETATM   27  C   UNL     1       7.338  27.566  55.105  1.00  0.00    -0.009 A 
HETATM   28  C   UNL     1       7.581  27.684  56.497  1.00  0.00    -0.051 A 
HETATM   29  C   UNL     1       8.672  28.459  56.961  1.00  0.00     0.014 A 
HETATM   30  C   UNL     1       6.768  27.006  57.564  1.00  0.00     0.049 C 
HETATM   31  C   UNL     1       9.552  29.102  56.090  1.00  0.00    -0.061 A 
HETATM   32  C   UNL     1      10.728  29.870  56.614  1.00  0.00     0.048 C 
HETATM   33  C   UNL     1       9.357  28.947  54.726  1.00  0.00     0.007 A 
HETATM   34  C   UNL     1       8.281  28.193  54.248  1.00  0.00     0.012 A 
ENDBRANCH   1  27
TORSDOF 6
ENDMDL
MODEL 8
REMARK VINA RESULT:      -8.7      3.366      8.854
REMARK  6 active torsions:
REMARK  status: ('A' for Active; 'I' for Inactive)
REMARK    1  A    between atoms: C_6  and  C_7 
REMARK    2  A    between atoms: N_8  and  N_9 
REMARK       I    between atoms: N_9  and  C_10 
REMARK    3  A    between atoms: C_10  and  C_11 
REMARK    4  A    between atoms: C_14  and  O_15 
REMARK    5  A    between atoms: O_15  and  C_16 
REMARK    6  A    between atoms: C_16  and  C_17 
ROOT
HETATM    1  C   UNL     1       3.921  29.083  55.798  1.00  0.00     0.244 C 
HETATM    2  N   UNL     1       5.310  28.677  55.982  1.00  0.00    -0.225 N 
HETATM    3  C   UNL     1       6.233  29.458  56.653  1.00  0.00     0.276 C 
HETATM    4  O   UNL     1       7.446  29.266  56.587  1.00  0.00    -0.266 OA
HETATM    5  C   UNL     1       5.661  30.519  57.509  1.00  0.00     0.060 A 
HETATM    6  C   UNL     1       4.277  30.488  57.740  1.00  0.00     0.045 A 
HETATM    7  N   UNL     1       3.478  29.505  57.140  1.00  0.00    -0.362 N 
HETATM    8  C   UNL     1       6.484  31.463  58.131  1.00  0.00     0.019 A 
HETATM    9  C   UNL     1       5.921  32.386  59.009  1.00  0.00     0.001 A 
HETATM   10  C   UNL     1       4.552  32.343  59.280  1.00  0.00     0.002 A 
HETATM   11  C   UNL     1       3.738  31.389  58.661  1.00  0.00     0.030 A 
HETATM   12  H   UNL     1       2.481  29.628  57.227  1.00  0.00     0.162 HD
ENDROOT
BRANCH   2  13
HETATM   13  N   UNL     1       5.802  27.525  55.330  1.00  0.00    -0.258 N 
HETATM   14  C   UNL     1       5.713  26.272  55.904  1.00  0.00     0.270 C 
HETATM   15  O   UNL     1       4.979  25.954  56.831  1.00  0.00    -0.266 OA
HETATM   16  H   UNL     1       6.545  27.730  54.664  1.00  0.00     0.190 HD
BRANCH  14  17
HETATM   17  C   UNL     1       6.549  25.241  55.244  1.00  0.00     0.033 A 
HETATM   18  C   UNL     1       6.208  24.725  53.990  1.00  0.00     0.020 A 
HETATM   19  C   UNL     1       7.002  23.729  53.407  1.00  0.00     0.038 A 
HETATM   20  C   UNL     1       8.130  23.247  54.075  1.00  0.00     0.069 A 
HETATM   21  C   UNL     1       8.469  23.779  55.323  1.00  0.00     0.038 A 
HETATM   22  C   UNL     1       7.690  24.780  55.906  1.00  0.00     0.020 A 
BRANCH  20  23
HETATM   23  O   UNL     1       8.974  22.269  53.626  1.00  0.00    -0.348 OA
BRANCH  23  24
HETATM   24  C   UNL     1       8.399  21.001  53.321  1.00  0.00     0.202 C 
BRANCH  24  25
HETATM   25  C   UNL     1       7.889  20.419  54.605  1.00  0.00    -0.011 C 
HETATM   26  C   UNL     1       8.654  20.102  55.657  1.00  0.00     0.009 C 
ENDBRANCH  24  25
ENDBRANCH  23  24
ENDBRANCH  20  23
ENDBRANCH  14  17
ENDBRANCH   2  13
BRANCH   1  27
HETATM   27  C   UNL     1       3.640  30.175  54.725  1.00  0.00    -0.009 A 
HETATM   28  C   UNL     1       3.721  29.990  53.321  1.00  0.00    -0.051 A 
HETATM   29  C   UNL     1       3.383  31.053  52.448  1.00  0.00     0.014 A 
HETATM   30  C   UNL     1       4.119  28.703  52.653  1.00  0.00     0.049 C 
HETATM   31  C   UNL     1       2.941  32.290  52.917  1.00  0.00    -0.061 A 
HETATM   32  C   UNL     1       2.541  33.375  51.963  1.00  0.00     0.048 C 
HETATM   33  C   UNL     1       2.804  32.463  54.286  1.00  0.00     0.007 A 
HETATM   34  C   UNL     1       3.140  31.429  55.165  1.00  0.00     0.012 A 
ENDBRANCH   1  27
TORSDOF 6
ENDMDL
MODEL 9
REMARK VINA RESULT:      -8.6      5.815      9.473
REMARK  6 active torsions:
REMARK  status: ('A' for Active; 'I' for Inactive)
REMARK    1  A    between atoms: C_6  and  C_7 
REMARK    2  A    between atoms: N_8  and  N_9 
REMARK       I    between atoms: N_9  and  C_10 
REMARK    3  A    between atoms: C_10  and  C_11 
REMARK    4  A    between atoms: C_14  and  O_15 
REMARK    5  A    between atoms: O_15  and  C_16 
REMARK    6  A    between atoms: C_16  and  C_17 
ROOT
HETATM    1  C   UNL     1       2.915  28.660  50.306  1.00  0.00     0.244 C 
HETATM    2  N   UNL     1       4.359  28.458  50.331  1.00  0.00    -0.225 N 
HETATM    3  C   UNL     1       5.244  29.326  49.719  1.00  0.00     0.276 C 
HETATM    4  O   UNL     1       6.420  29.038  49.500  1.00  0.00    -0.266 OA
HETATM    5  C   UNL     1       4.698  30.659  49.388  1.00  0.00     0.060 A 
HETATM    6  C   UNL     1       3.443  30.994  49.920  1.00  0.00     0.045 A 
HETATM    7  N   UNL     1       2.732  30.070  50.698  1.00  0.00    -0.362 N 
HETATM    8  C   UNL     1       5.445  31.579  48.646  1.00  0.00     0.019 A 
HETATM    9  C   UNL     1       4.939  32.860  48.438  1.00  0.00     0.001 A 
HETATM   10  C   UNL     1       3.710  33.221  48.994  1.00  0.00     0.002 A 
HETATM   11  C   UNL     1       2.974  32.298  49.744  1.00  0.00     0.030 A 
HETATM   12  H   UNL     1       1.780  30.317  50.924  1.00  0.00     0.162 HD
ENDROOT
BRANCH   2  13
HETATM   13  N   UNL     1       4.897  27.261  50.855  1.00  0.00    -0.258 N 
HETATM   14  C   UNL     1       4.898  27.000  52.211  1.00  0.00     0.270 C 
HETATM   15  O   UNL     1       4.214  27.563  53.056  1.00  0.00    -0.266 OA
HETATM   16  H   UNL     1       5.605  26.845  50.254  1.00  0.00     0.190 HD
BRANCH  14  17
HETATM   17  C   UNL     1       5.772  25.870  52.610  1.00  0.00     0.033 A 
HETATM   18  C   UNL     1       5.554  25.170  53.800  1.00  0.00     0.020 A 
HETATM   19  C   UNL     1       6.415  24.127  54.164  1.00  0.00     0.038 A 
HETATM   20  C   UNL     1       7.493  23.786  53.344  1.00  0.00     0.069 A 
HETATM   21  C   UNL     1       7.695  24.485  52.149  1.00  0.00     0.038 A 
HETATM   22  C   UNL     1       6.834  25.517  51.774  1.00  0.00     0.020 A 
BRANCH  20  23
HETATM   23  O   UNL     1       8.414  22.806  53.591  1.00  0.00    -0.348 OA
BRANCH  23  24
HETATM   24  C   UNL     1       8.134  21.505  53.079  1.00  0.00     0.202 C 
BRANCH  24  25
HETATM   25  C   UNL     1       8.349  20.528  54.195  1.00  0.00    -0.011 C 
HETATM   26  C   UNL     1       7.832  20.648  55.425  1.00  0.00     0.009 C 
ENDBRANCH  24  25
ENDBRANCH  23  24
ENDBRANCH  20  23
ENDBRANCH  14  17
ENDBRANCH   2  13
BRANCH   1  27
HETATM   27  C   UNL     1       2.177  28.329  48.976  1.00  0.00    -0.009 A 
HETATM   28  C   UNL     1       2.342  27.142  48.217  1.00  0.00    -0.051 A 
HETATM   29  C   UNL     1       1.566  26.937  47.050  1.00  0.00     0.014 A 
HETATM   30  C   UNL     1       3.284  26.026  48.574  1.00  0.00     0.049 C 
HETATM   31  C   UNL     1       0.609  27.856  46.621  1.00  0.00    -0.061 A 
HETATM   32  C   UNL     1      -0.232  27.582  45.411  1.00  0.00     0.048 C 
HETATM   33  C   UNL     1       0.399  28.993  47.387  1.00  0.00     0.007 A 
HETATM   34  C   UNL     1       1.161  29.218  48.538  1.00  0.00     0.012 A 
ENDBRANCH   1  27
TORSDOF 6
ENDMDL
MODEL 10
REMARK VINA RESULT:      -8.5      4.884      8.381
REMARK  6 active torsions:
REMARK  status: ('A' for Active; 'I' for Inactive)
REMARK    1  A    between atoms: C_6  and  C_7 
REMARK    2  A    between atoms: N_8  and  N_9 
REMARK       I    between atoms: N_9  and  C_10 
REMARK    3  A    between atoms: C_10  and  C_11 
REMARK    4  A    between atoms: C_14  and  O_15 
REMARK    5  A    between atoms: O_15  and  C_16 
REMARK    6  A    between atoms: C_16  and  C_17 
ROOT
HETATM    1  C   UNL     1       5.827  28.576  50.691  1.00  0.00     0.244 C 
HETATM    2  N   UNL     1       5.474  27.183  50.438  1.00  0.00    -0.225 N 
HETATM    3  C   UNL     1       4.411  26.817  49.633  1.00  0.00     0.276 C 
HETATM    4  O   UNL     1       3.939  25.680  49.623  1.00  0.00    -0.266 OA
HETATM    5  C   UNL     1       3.904  27.875  48.734  1.00  0.00     0.060 A 
HETATM    6  C   UNL     1       4.672  29.043  48.612  1.00  0.00     0.045 A 
HETATM    7  N   UNL     1       5.850  29.200  49.355  1.00  0.00    -0.362 N 
HETATM    8  C   UNL     1       2.749  27.678  47.972  1.00  0.00     0.019 A 
HETATM    9  C   UNL     1       2.356  28.657  47.062  1.00  0.00     0.001 A 
HETATM   10  C   UNL     1       3.131  29.808  46.901  1.00  0.00     0.002 A 
HETATM   11  C   UNL     1       4.291  29.992  47.661  1.00  0.00     0.030 A 
HETATM   12  H   UNL     1       6.272  30.116  49.334  1.00  0.00     0.162 HD
ENDROOT
BRANCH   2  13
HETATM   13  N   UNL     1       6.123  26.148  51.149  1.00  0.00    -0.258 N 
HETATM   14  C   UNL     1       5.633  25.677  52.351  1.00  0.00     0.270 C 
HETATM   15  O   UNL     1       4.499  25.843  52.784  1.00  0.00    -0.266 OA
HETATM   16  H   UNL     1       7.118  26.085  50.943  1.00  0.00     0.190 HD
BRANCH  14  17
HETATM   17  C   UNL     1       6.589  24.832  53.107  1.00  0.00     0.033 A 
HETATM   18  C   UNL     1       7.516  24.019  52.447  1.00  0.00     0.020 A 
HETATM   19  C   UNL     1       8.385  23.209  53.189  1.00  0.00     0.038 A 
HETATM   20  C   UNL     1       8.327  23.208  54.585  1.00  0.00     0.069 A 
HETATM   21  C   UNL     1       7.404  24.034  55.235  1.00  0.00     0.038 A 
HETATM   22  C   UNL     1       6.542  24.853  54.502  1.00  0.00     0.020 A 
BRANCH  20  23
HETATM   23  O   UNL     1       9.102  22.455  55.422  1.00  0.00    -0.348 OA
BRANCH  23  24
HETATM   24  C   UNL     1       8.442  21.781  56.491  1.00  0.00     0.202 C 
BRANCH  24  25
HETATM   25  C   UNL     1       8.269  20.349  56.080  1.00  0.00    -0.011 C 
HETATM   26  C   UNL     1       8.664  19.839  54.907  1.00  0.00     0.009 C 
ENDBRANCH  24  25
ENDBRANCH  23  24
ENDBRANCH  20  23
ENDBRANCH  14  17
ENDBRANCH   2  13
BRANCH   1  27
HETATM   27  C   UNL     1       4.924  29.364  51.684  1.00  0.00    -0.009 A 
HETATM   28  C   UNL     1       5.050  29.357  53.096  1.00  0.00    -0.051 A 
HETATM   29  C   UNL     1       4.197  30.166  53.886  1.00  0.00     0.014 A 
HETATM   30  C   UNL     1       6.072  28.558  53.856  1.00  0.00     0.049 C 
HETATM   31  C   UNL     1       3.237  31.006  53.322  1.00  0.00    -0.061 A 
HETATM   32  C   UNL     1       2.387  31.889  54.186  1.00  0.00     0.048 C 
HETATM   33  C   UNL     1       3.142  31.064  51.940  1.00  0.00     0.007 A 
HETATM   34  C   UNL     1       3.970  30.267  51.144  1.00  0.00     0.012 A 
ENDBRANCH   1  27
TORSDOF 6
ENDMDL
