MODEL 1
REMARK VINA RESULT:      -9.6      0.000      0.000
REMARK  7 active torsions:
REMARK  status: ('A' for Active; 'I' for Inactive)
REMARK    1  A    between atoms: C_2  and  N_3 
REMARK    2  A    between atoms: C_4  and  C_5 
REMARK       I    between atoms: C_5  and  N_6 
REMARK    3  A    between atoms: N_6  and  C_7 
REMARK    4  A    between atoms: C_7  and  C_8 
REMARK    5  A    between atoms: C_19  and  N_20 
REMARK       I    between atoms: N_20  and  C_21 
REMARK    6  A    between atoms: C_21  and  C_22 
REMARK    7  A    between atoms: C_25  and  O_26 
ROOT
HETATM    1  N   UNL     1       6.391  28.198  54.740  1.00  0.00    -0.342 N 
HETATM    2  C   UNL     1       7.185  27.089  54.996  1.00  0.00     0.104 A 
HETATM    3  C   UNL     1       7.631  27.229  56.303  1.00  0.00     0.049 A 
HETATM    4  C   UNL     1       7.139  28.446  56.831  1.00  0.00    -0.005 A 
HETATM    5  C   UNL     1       6.386  29.056  55.831  1.00  0.00     0.045 A 
HETATM    6  C   UNL     1       7.277  29.082  58.083  1.00  0.00     0.043 A 
HETATM    7  C   UNL     1       6.671  30.319  58.315  1.00  0.00     0.035 A 
HETATM    8  C   UNL     1       5.945  30.924  57.285  1.00  0.00     0.032 A 
HETATM    9  C   UNL     1       5.784  30.308  56.035  1.00  0.00     0.033 A 
ENDROOT
BRANCH   7  10
HETATM   10  N   UNL     1       6.761  31.011  59.544  1.00  0.00    -0.323 N 
HETATM   11  C   UNL     1       7.680  31.990  59.876  1.00  0.00     0.256 C 
HETATM   12  O   UNL     1       8.621  32.382  59.199  1.00  0.00    -0.267 OA
HETATM   13  H   UNL     1       6.147  30.687  60.280  1.00  0.00     0.169 HD
BRANCH  11  14
HETATM   14  C   UNL     1       7.508  32.579  61.230  1.00  0.00     0.032 A 
HETATM   15  C   UNL     1       6.472  33.496  61.430  1.00  0.00     0.020 A 
HETATM   16  C   UNL     1       6.256  34.038  62.699  1.00  0.00     0.038 A 
HETATM   17  C   UNL     1       7.049  33.647  63.779  1.00  0.00     0.068 A 
HETATM   18  C   UNL     1       8.089  32.735  63.579  1.00  0.00     0.038 A 
HETATM   19  C   UNL     1       8.318  32.197  62.306  1.00  0.00     0.020 A 
BRANCH  17  20
HETATM   20  O   UNL     1       6.724  34.231  64.973  1.00  0.00    -0.356 OA
HETATM   21  C   UNL     1       5.493  33.819  65.556  1.00  0.00     0.210 C 
ENDBRANCH  17  20
ENDBRANCH  11  14
ENDBRANCH   7  10
BRANCH   2  22
HETATM   22  C   UNL     1       7.456  26.006  54.065  1.00  0.00     0.268 C 
HETATM   23  N   UNL     1       7.066  24.766  54.528  1.00  0.00    -0.353 N 
HETATM   24  H   UNL     1       6.790  24.696  55.497  1.00  0.00     0.162 HD
HETATM   25  O   UNL     1       7.985  26.163  52.969  1.00  0.00    -0.266 OA
BRANCH  23  26
HETATM   26  C   UNL     1       7.398  23.542  53.822  1.00  0.00     0.160 C 
BRANCH  26  27
HETATM   27  C   UNL     1       8.374  22.614  54.599  1.00  0.00     0.073 C 
HETATM   28  O   UNL     1       9.389  22.100  53.716  1.00  0.00    -0.379 OA
HETATM   29  C   UNL     1       8.986  20.805  53.244  1.00  0.00     0.169 C 
HETATM   30  C   UNL     1       7.671  20.457  53.912  1.00  0.00     0.029 C 
HETATM   31  C   UNL     1       7.652  21.369  55.114  1.00  0.00     0.041 C 
HETATM   32  C   UNL     1       9.066  23.367  55.734  1.00  0.00     0.047 C 
ENDBRANCH  26  27
ENDBRANCH  23  26
ENDBRANCH   2  22
BRANCH   1  33
HETATM   33  C   UNL     1       5.677  28.452  53.496  1.00  0.00     0.125 C 
HETATM   34  C   UNL     1       4.254  27.924  53.522  1.00  0.00     0.027 C 
ENDBRANCH   1  33
TORSDOF 7
ENDMDL
MODEL 2
REMARK VINA RESULT:      -9.5      1.842     11.069
REMARK  7 active torsions:
REMARK  status: ('A' for Active; 'I' for Inactive)
REMARK    1  A    between atoms: C_2  and  N_3 
REMARK    2  A    between atoms: C_4  and  C_5 
REMARK       I    between atoms: C_5  and  N_6 
REMARK    3  A    between atoms: N_6  and  C_7 
REMARK    4  A    between atoms: C_7  and  C_8 
REMARK    5  A    between atoms: C_19  and  N_20 
REMARK       I    between atoms: N_20  and  C_21 
REMARK    6  A    between atoms: C_21  and  C_22 
REMARK    7  A    between atoms: C_25  and  O_26 
ROOT
HETATM    1  N   UNL     1       6.591  30.990  58.205  1.00  0.00    -0.342 N 
HETATM    2  C   UNL     1       7.565  31.110  59.186  1.00  0.00     0.104 A 
HETATM    3  C   UNL     1       8.276  29.918  59.169  1.00  0.00     0.049 A 
HETATM    4  C   UNL     1       7.707  29.055  58.202  1.00  0.00    -0.005 A 
HETATM    5  C   UNL     1       6.635  29.730  57.625  1.00  0.00     0.045 A 
HETATM    6  C   UNL     1       8.018  27.748  57.773  1.00  0.00     0.043 A 
HETATM    7  C   UNL     1       7.250  27.131  56.782  1.00  0.00     0.035 A 
HETATM    8  C   UNL     1       6.161  27.819  56.239  1.00  0.00     0.032 A 
HETATM    9  C   UNL     1       5.838  29.124  56.642  1.00  0.00     0.033 A 
ENDROOT
BRANCH   7  10
HETATM   10  N   UNL     1       7.506  25.828  56.298  1.00  0.00    -0.323 N 
HETATM   11  C   UNL     1       8.161  24.811  56.970  1.00  0.00     0.256 C 
HETATM   12  O   UNL     1       8.699  24.875  58.068  1.00  0.00    -0.267 OA
HETATM   13  H   UNL     1       7.264  25.659  55.331  1.00  0.00     0.169 HD
BRANCH  11  14
HETATM   14  C   UNL     1       8.246  23.524  56.231  1.00  0.00     0.032 A 
HETATM   15  C   UNL     1       8.269  23.559  54.833  1.00  0.00     0.020 A 
HETATM   16  C   UNL     1       8.388  22.372  54.108  1.00  0.00     0.038 A 
HETATM   17  C   UNL     1       8.517  21.149  54.769  1.00  0.00     0.068 A 
HETATM   18  C   UNL     1       8.487  21.113  56.166  1.00  0.00     0.038 A 
HETATM   19  C   UNL     1       8.355  22.298  56.899  1.00  0.00     0.020 A 
BRANCH  17  20
HETATM   20  O   UNL     1       8.650  20.062  53.949  1.00  0.00    -0.356 OA
HETATM   21  C   UNL     1       8.329  20.270  52.579  1.00  0.00     0.210 C 
ENDBRANCH  17  20
ENDBRANCH  11  14
ENDBRANCH   7  10
BRANCH   2  22
HETATM   22  C   UNL     1       7.782  32.274  60.029  1.00  0.00     0.268 C 
HETATM   23  N   UNL     1       6.788  32.474  60.965  1.00  0.00    -0.353 N 
HETATM   24  H   UNL     1       5.949  31.918  60.880  1.00  0.00     0.162 HD
HETATM   25  O   UNL     1       8.750  33.020  59.929  1.00  0.00    -0.266 OA
BRANCH  23  26
HETATM   26  C   UNL     1       6.734  33.669  61.788  1.00  0.00     0.160 C 
BRANCH  26  27
HETATM   27  C   UNL     1       6.710  33.380  63.315  1.00  0.00     0.073 C 
HETATM   28  O   UNL     1       5.581  32.550  63.651  1.00  0.00    -0.379 OA
HETATM   29  C   UNL     1       4.497  33.387  64.081  1.00  0.00     0.169 C 
HETATM   30  C   UNL     1       4.987  34.821  64.071  1.00  0.00     0.029 C 
HETATM   31  C   UNL     1       6.488  34.665  64.111  1.00  0.00     0.041 C 
HETATM   32  C   UNL     1       7.981  32.660  63.761  1.00  0.00     0.047 C 
ENDBRANCH  26  27
ENDBRANCH  23  26
ENDBRANCH   2  22
BRANCH   1  33
HETATM   33  C   UNL     1       5.632  32.026  57.841  1.00  0.00     0.125 C 
HETATM   34  C   UNL     1       4.278  31.823  58.497  1.00  0.00     0.027 C 
ENDBRANCH   1  33
TORSDOF 7
ENDMDL
MODEL 3
REMARK VINA RESULT:      -9.3      2.054     11.429
REMARK  7 active torsions:
REMARK  status: ('A' for Active; 'I' for Inactive)
REMARK    1  A    between atoms: C_2  and  N_3 
REMARK    2  A    between atoms: C_4  and  C_5 
REMARK       I    between atoms: C_5  and  N_6 
REMARK    3  A    between atoms: N_6  and  C_7 
REMARK    4  A    between atoms: C_7  and  C_8 
REMARK    5  A    between atoms: C_19  and  N_20 
REMARK       I    between atoms: N_20  and  C_21 
REMARK    6  A    between atoms: C_21  and  C_22 
REMARK    7  A    between atoms: C_25  and  O_26 
ROOT
HETATM    1  N   UNL     1       7.691  31.516  59.145  1.00  0.00    -0.342 N 
HETATM    2  C   UNL     1       6.330  31.786  59.184  1.00  0.00     0.104 A 
HETATM    3  C   UNL     1       5.714  30.762  58.479  1.00  0.00     0.049 A 
HETATM    4  C   UNL     1       6.706  29.887  57.975  1.00  0.00    -0.005 A 
HETATM    5  C   UNL     1       7.941  30.387  58.378  1.00  0.00     0.045 A 
HETATM    6  C   UNL     1       6.651  28.707  57.203  1.00  0.00     0.043 A 
HETATM    7  C   UNL     1       7.829  28.050  56.837  1.00  0.00     0.035 A 
HETATM    8  C   UNL     1       9.058  28.589  57.230  1.00  0.00     0.032 A 
HETATM    9  C   UNL     1       9.138  29.755  58.006  1.00  0.00     0.033 A 
ENDROOT
BRANCH   7  10
HETATM   10  N   UNL     1       7.851  26.863  56.072  1.00  0.00    -0.323 N 
HETATM   11  C   UNL     1       7.953  25.570  56.555  1.00  0.00     0.256 C 
HETATM   12  O   UNL     1       8.115  25.224  57.718  1.00  0.00    -0.267 OA
HETATM   13  H   UNL     1       7.887  26.984  55.069  1.00  0.00     0.169 HD
BRANCH  11  14
HETATM   14  C   UNL     1       7.904  24.507  55.516  1.00  0.00     0.032 A 
HETATM   15  C   UNL     1       8.022  23.174  55.922  1.00  0.00     0.020 A 
HETATM   16  C   UNL     1       7.940  22.149  54.978  1.00  0.00     0.038 A 
HETATM   17  C   UNL     1       7.708  22.443  53.633  1.00  0.00     0.068 A 
HETATM   18  C   UNL     1       7.596  23.775  53.226  1.00  0.00     0.038 A 
HETATM   19  C   UNL     1       7.690  24.808  54.166  1.00  0.00     0.020 A 
BRANCH  17  20
HETATM   20  O   UNL     1       7.625  21.352  52.812  1.00  0.00    -0.356 OA
HETATM   21  C   UNL     1       8.597  20.334  53.023  1.00  0.00     0.210 C 
ENDBRANCH  17  20
ENDBRANCH  11  14
ENDBRANCH   7  10
BRANCH   2  22
HETATM   22  C   UNL     1       5.708  32.915  59.858  1.00  0.00     0.268 C 
HETATM   23  N   UNL     1       5.755  32.834  61.235  1.00  0.00    -0.353 N 
HETATM   24  H   UNL     1       6.055  31.959  61.639  1.00  0.00     0.162 HD
HETATM   25  O   UNL     1       5.183  33.856  59.272  1.00  0.00    -0.266 OA
BRANCH  23  26
HETATM   26  C   UNL     1       5.047  33.773  62.085  1.00  0.00     0.160 C 
BRANCH  26  27
HETATM   27  C   UNL     1       5.581  33.824  63.544  1.00  0.00     0.073 C 
HETATM   28  O   UNL     1       4.628  33.232  64.449  1.00  0.00    -0.379 OA
HETATM   29  C   UNL     1       3.811  34.270  65.012  1.00  0.00     0.169 C 
HETATM   30  C   UNL     1       4.314  35.596  64.480  1.00  0.00     0.029 C 
HETATM   31  C   UNL     1       5.717  35.268  64.027  1.00  0.00     0.041 C 
HETATM   32  C   UNL     1       6.900  33.064  63.677  1.00  0.00     0.047 C 
ENDBRANCH  26  27
ENDBRANCH  23  26
ENDBRANCH   2  22
BRANCH   1  33
HETATM   33  C   UNL     1       8.725  32.311  59.794  1.00  0.00     0.125 C 
HETATM   34  C   UNL     1       9.207  31.692  61.094  1.00  0.00     0.027 C 
ENDBRANCH   1  33
TORSDOF 7
ENDMDL
MODEL 4
REMARK VINA RESULT:      -9.3      1.468     11.204
REMARK  7 active torsions:
REMARK  status: ('A' for Active; 'I' for Inactive)
REMARK    1  A    between atoms: C_2  and  N_3 
REMARK    2  A    between atoms: C_4  and  C_5 
REMARK       I    between atoms: C_5  and  N_6 
REMARK    3  A    between atoms: N_6  and  C_7 
REMARK    4  A    between atoms: C_7  and  C_8 
REMARK    5  A    between atoms: C_19  and  N_20 
REMARK       I    between atoms: N_20  and  C_21 
REMARK    6  A    between atoms: C_21  and  C_22 
REMARK    7  A    between atoms: C_25  and  O_26 
ROOT
HETATM    1  N   UNL     1       6.514  31.231  58.554  1.00  0.00    -0.342 N 
HETATM    2  C   UNL     1       7.586  31.241  59.435  1.00  0.00     0.104 A 
HETATM    3  C   UNL     1       8.271  30.053  59.220  1.00  0.00     0.049 A 
HETATM    4  C   UNL     1       7.591  29.301  58.233  1.00  0.00    -0.005 A 
HETATM    5  C   UNL     1       6.477  30.040  57.845  1.00  0.00     0.045 A 
HETATM    6  C   UNL     1       7.834  28.044  57.639  1.00  0.00     0.043 A 
HETATM    7  C   UNL     1       6.957  27.540  56.675  1.00  0.00     0.035 A 
HETATM    8  C   UNL     1       5.830  28.288  56.325  1.00  0.00     0.032 A 
HETATM    9  C   UNL     1       5.572  29.545  56.893  1.00  0.00     0.033 A 
ENDROOT
BRANCH   7  10
HETATM   10  N   UNL     1       7.140  26.294  56.034  1.00  0.00    -0.323 N 
HETATM   11  C   UNL     1       7.454  26.088  54.702  1.00  0.00     0.256 C 
HETATM   12  O   UNL     1       7.560  26.936  53.826  1.00  0.00    -0.267 OA
HETATM   13  H   UNL     1       6.928  25.476  56.589  1.00  0.00     0.169 HD
BRANCH  11  14
HETATM   14  C   UNL     1       7.632  24.664  54.313  1.00  0.00     0.032 A 
HETATM   15  C   UNL     1       7.557  23.686  55.310  1.00  0.00     0.020 A 
HETATM   16  C   UNL     1       7.679  22.337  54.975  1.00  0.00     0.038 A 
HETATM   17  C   UNL     1       7.845  21.952  53.643  1.00  0.00     0.068 A 
HETATM   18  C   UNL     1       7.928  22.928  52.647  1.00  0.00     0.038 A 
HETATM   19  C   UNL     1       7.818  24.284  52.979  1.00  0.00     0.020 A 
BRANCH  17  20
HETATM   20  O   UNL     1       7.930  20.602  53.441  1.00  0.00    -0.356 OA
HETATM   21  C   UNL     1       8.732  19.879  54.367  1.00  0.00     0.210 C 
ENDBRANCH  17  20
ENDBRANCH  11  14
ENDBRANCH   7  10
BRANCH   2  22
HETATM   22  C   UNL     1       7.909  32.309  60.368  1.00  0.00     0.268 C 
HETATM   23  N   UNL     1       7.127  32.306  61.506  1.00  0.00    -0.353 N 
HETATM   24  H   UNL     1       6.324  31.694  61.518  1.00  0.00     0.162 HD
HETATM   25  O   UNL     1       8.787  33.143  60.175  1.00  0.00    -0.266 OA
BRANCH  23  26
HETATM   26  C   UNL     1       7.180  33.383  62.478  1.00  0.00     0.160 C 
BRANCH  26  27
HETATM   27  C   UNL     1       5.813  34.086  62.710  1.00  0.00     0.073 C 
HETATM   28  O   UNL     1       5.966  35.195  63.617  1.00  0.00    -0.379 OA
HETATM   29  C   UNL     1       5.646  34.759  64.947  1.00  0.00     0.169 C 
HETATM   30  C   UNL     1       5.210  33.310  64.868  1.00  0.00     0.029 C 
HETATM   31  C   UNL     1       4.830  33.151  63.415  1.00  0.00     0.041 C 
HETATM   32  C   UNL     1       5.235  34.617  61.399  1.00  0.00     0.047 C 
ENDBRANCH  26  27
ENDBRANCH  23  26
ENDBRANCH   2  22
BRANCH   1  33
HETATM   33  C   UNL     1       5.541  32.305  58.403  1.00  0.00     0.125 C 
HETATM   34  C   UNL     1       4.256  32.039  59.168  1.00  0.00     0.027 C 
ENDBRANCH   1  33
TORSDOF 7
ENDMDL
MODEL 5
REMARK VINA RESULT:      -9.3      2.909      4.961
REMARK  7 active torsions:
REMARK  status: ('A' for Active; 'I' for Inactive)
REMARK    1  A    between atoms: C_2  and  N_3 
REMARK    2  A    between atoms: C_4  and  C_5 
REMARK       I    between atoms: C_5  and  N_6 
REMARK    3  A    between atoms: N_6  and  C_7 
REMARK    4  A    between atoms: C_7  and  C_8 
REMARK    5  A    between atoms: C_19  and  N_20 
REMARK       I    between atoms: N_20  and  C_21 
REMARK    6  A    between atoms: C_21  and  C_22 
REMARK    7  A    between atoms: C_25  and  O_26 
ROOT
HETATM    1  N   UNL     1       6.857  25.799  54.309  1.00  0.00    -0.342 N 
HETATM    2  C   UNL     1       5.776  26.300  53.598  1.00  0.00     0.104 A 
HETATM    3  C   UNL     1       5.347  27.423  54.291  1.00  0.00     0.049 A 
HETATM    4  C   UNL     1       6.145  27.582  55.449  1.00  0.00    -0.005 A 
HETATM    5  C   UNL     1       7.069  26.542  55.461  1.00  0.00     0.045 A 
HETATM    6  C   UNL     1       6.152  28.532  56.493  1.00  0.00     0.043 A 
HETATM    7  C   UNL     1       7.074  28.422  57.537  1.00  0.00     0.035 A 
HETATM    8  C   UNL     1       7.972  27.351  57.541  1.00  0.00     0.032 A 
HETATM    9  C   UNL     1       7.992  26.401  56.509  1.00  0.00     0.033 A 
ENDROOT
BRANCH   7  10
HETATM   10  N   UNL     1       7.144  29.338  58.612  1.00  0.00    -0.323 N 
HETATM   11  C   UNL     1       8.218  30.146  58.940  1.00  0.00     0.256 C 
HETATM   12  O   UNL     1       9.320  30.165  58.410  1.00  0.00    -0.267 OA
HETATM   13  H   UNL     1       6.362  29.328  59.253  1.00  0.00     0.169 HD
BRANCH  11  14
HETATM   14  C   UNL     1       7.991  31.049  60.100  1.00  0.00     0.032 A 
HETATM   15  C   UNL     1       7.007  32.035  59.994  1.00  0.00     0.020 A 
HETATM   16  C   UNL     1       6.740  32.874  61.077  1.00  0.00     0.038 A 
HETATM   17  C   UNL     1       7.429  32.714  62.281  1.00  0.00     0.068 A 
HETATM   18  C   UNL     1       8.418  31.732  62.386  1.00  0.00     0.038 A 
HETATM   19  C   UNL     1       8.698  30.896  61.299  1.00  0.00     0.020 A 
BRANCH  17  20
HETATM   20  O   UNL     1       7.062  33.581  63.274  1.00  0.00    -0.356 OA
HETATM   21  C   UNL     1       7.556  33.287  64.575  1.00  0.00     0.210 C 
ENDBRANCH  17  20
ENDBRANCH  11  14
ENDBRANCH   7  10
BRANCH   2  22
HETATM   22  C   UNL     1       5.240  25.745  52.365  1.00  0.00     0.268 C 
HETATM   23  N   UNL     1       5.470  26.535  51.256  1.00  0.00    -0.353 N 
HETATM   24  H   UNL     1       5.827  27.466  51.414  1.00  0.00     0.162 HD
HETATM   25  O   UNL     1       4.635  24.680  52.300  1.00  0.00    -0.266 OA
BRANCH  23  26
HETATM   26  C   UNL     1       4.874  26.241  49.966  1.00  0.00     0.160 C 
BRANCH  26  27
HETATM   27  C   UNL     1       4.533  27.506  49.129  1.00  0.00     0.073 C 
HETATM   28  O   UNL     1       3.179  27.926  49.383  1.00  0.00    -0.379 OA
HETATM   29  C   UNL     1       2.320  27.375  48.373  1.00  0.00     0.169 C 
HETATM   30  C   UNL     1       3.188  26.611  47.393  1.00  0.00     0.029 C 
HETATM   31  C   UNL     1       4.560  27.195  47.632  1.00  0.00     0.041 C 
HETATM   32  C   UNL     1       5.466  28.665  49.474  1.00  0.00     0.047 C 
ENDBRANCH  26  27
ENDBRANCH  23  26
ENDBRANCH   2  22
BRANCH   1  33
HETATM   33  C   UNL     1       7.652  24.639  53.924  1.00  0.00     0.125 C 
HETATM   34  C   UNL     1       7.129  23.348  54.527  1.00  0.00     0.027 C 
ENDBRANCH   1  33
TORSDOF 7
ENDMDL
MODEL 6
REMARK VINA RESULT:      -8.8      2.275      3.830
REMARK  7 active torsions:
REMARK  status: ('A' for Active; 'I' for Inactive)
REMARK    1  A    between atoms: C_2  and  N_3 
REMARK    2  A    between atoms: C_4  and  C_5 
REMARK       I    between atoms: C_5  and  N_6 
REMARK    3  A    between atoms: N_6  and  C_7 
REMARK    4  A    between atoms: C_7  and  C_8 
REMARK    5  A    between atoms: C_19  and  N_20 
REMARK       I    between atoms: N_20  and  C_21 
REMARK    6  A    between atoms: C_21  and  C_22 
REMARK    7  A    between atoms: C_25  and  O_26 
ROOT
HETATM    1  N   UNL     1       6.278  30.735  57.193  1.00  0.00    -0.342 N 
HETATM    2  C   UNL     1       7.435  29.971  57.255  1.00  0.00     0.104 A 
HETATM    3  C   UNL     1       7.933  30.131  58.540  1.00  0.00     0.049 A 
HETATM    4  C   UNL     1       7.098  31.025  59.251  1.00  0.00    -0.005 A 
HETATM    5  C   UNL     1       6.080  31.417  58.386  1.00  0.00     0.045 A 
HETATM    6  C   UNL     1       7.129  31.536  60.566  1.00  0.00     0.043 A 
HETATM    7  C   UNL     1       6.150  32.438  60.993  1.00  0.00     0.035 A 
HETATM    8  C   UNL     1       5.156  32.838  60.096  1.00  0.00     0.032 A 
HETATM    9  C   UNL     1       5.098  32.335  58.787  1.00  0.00     0.033 A 
ENDROOT
BRANCH   7  10
HETATM   10  N   UNL     1       6.114  32.986  62.295  1.00  0.00    -0.323 N 
HETATM   11  C   UNL     1       5.491  32.441  63.404  1.00  0.00     0.256 C 
HETATM   12  O   UNL     1       4.802  31.431  63.445  1.00  0.00    -0.267 OA
HETATM   13  H   UNL     1       6.506  33.912  62.396  1.00  0.00     0.169 HD
BRANCH  11  14
HETATM   14  C   UNL     1       5.657  33.218  64.661  1.00  0.00     0.032 A 
HETATM   15  C   UNL     1       4.510  33.654  65.331  1.00  0.00     0.020 A 
HETATM   16  C   UNL     1       4.629  34.350  66.535  1.00  0.00     0.038 A 
HETATM   17  C   UNL     1       5.886  34.588  67.094  1.00  0.00     0.068 A 
HETATM   18  C   UNL     1       7.033  34.158  66.421  1.00  0.00     0.038 A 
HETATM   19  C   UNL     1       6.921  33.470  65.207  1.00  0.00     0.020 A 
BRANCH  17  20
HETATM   20  O   UNL     1       5.869  35.260  68.286  1.00  0.00    -0.356 OA
HETATM   21  C   UNL     1       6.904  34.929  69.205  1.00  0.00     0.210 C 
ENDBRANCH  17  20
ENDBRANCH  11  14
ENDBRANCH   7  10
BRANCH   2  22
HETATM   22  C   UNL     1       7.977  29.162  56.175  1.00  0.00     0.268 C 
HETATM   23  N   UNL     1       7.292  27.982  55.970  1.00  0.00    -0.353 N 
HETATM   24  H   UNL     1       6.608  27.714  56.663  1.00  0.00     0.162 HD
HETATM   25  O   UNL     1       8.952  29.482  55.503  1.00  0.00    -0.266 OA
BRANCH  23  26
HETATM   26  C   UNL     1       7.772  26.963  55.054  1.00  0.00     0.160 C 
BRANCH  26  27
HETATM   27  C   UNL     1       6.828  25.734  54.932  1.00  0.00     0.073 C 
HETATM   28  O   UNL     1       7.533  24.523  55.269  1.00  0.00    -0.379 OA
HETATM   29  C   UNL     1       8.018  23.913  54.064  1.00  0.00     0.169 C 
HETATM   30  C   UNL     1       7.544  24.752  52.895  1.00  0.00     0.029 C 
HETATM   31  C   UNL     1       6.387  25.525  53.483  1.00  0.00     0.041 C 
HETATM   32  C   UNL     1       5.627  25.864  55.867  1.00  0.00     0.047 C 
ENDBRANCH  26  27
ENDBRANCH  23  26
ENDBRANCH   2  22
BRANCH   1  33
HETATM   33  C   UNL     1       5.398  30.836  56.037  1.00  0.00     0.125 C 
HETATM   34  C   UNL     1       4.208  29.898  56.126  1.00  0.00     0.027 C 
ENDBRANCH   1  33
TORSDOF 7
ENDMDL
MODEL 7
REMARK VINA RESULT:      -8.6      1.763      2.301
REMARK  7 active torsions:
REMARK  status: ('A' for Active; 'I' for Inactive)
REMARK    1  A    between atoms: C_2  and  N_3 
REMARK    2  A    between atoms: C_4  and  C_5 
REMARK       I    between atoms: C_5  and  N_6 
REMARK    3  A    between atoms: N_6  and  C_7 
REMARK    4  A    between atoms: C_7  and  C_8 
REMARK    5  A    between atoms: C_19  and  N_20 
REMARK       I    between atoms: N_20  and  C_21 
REMARK    6  A    between atoms: C_21  and  C_22 
REMARK    7  A    between atoms: C_25  and  O_26 
ROOT
HETATM    1  N   UNL     1       5.927  26.368  54.471  1.00  0.00    -0.342 N 
HETATM    2  C   UNL     1       7.200  25.874  54.717  1.00  0.00     0.104 A 
HETATM    3  C   UNL     1       7.688  26.591  55.801  1.00  0.00     0.049 A 
HETATM    4  C   UNL     1       6.724  27.551  56.190  1.00  0.00    -0.005 A 
HETATM    5  C   UNL     1       5.637  27.418  55.331  1.00  0.00     0.045 A 
HETATM    6  C   UNL     1       6.691  28.527  57.208  1.00  0.00     0.043 A 
HETATM    7  C   UNL     1       5.579  29.363  57.346  1.00  0.00     0.035 A 
HETATM    8  C   UNL     1       4.513  29.229  56.451  1.00  0.00     0.032 A 
HETATM    9  C   UNL     1       4.518  28.258  55.438  1.00  0.00     0.033 A 
ENDROOT
BRANCH   7  10
HETATM   10  N   UNL     1       5.473  30.358  58.344  1.00  0.00    -0.323 N 
HETATM   11  C   UNL     1       6.396  31.350  58.622  1.00  0.00     0.256 C 
HETATM   12  O   UNL     1       7.497  31.502  58.110  1.00  0.00    -0.267 OA
HETATM   13  H   UNL     1       4.684  30.273  58.971  1.00  0.00     0.169 HD
BRANCH  11  14
HETATM   14  C   UNL     1       5.998  32.292  59.702  1.00  0.00     0.032 A 
HETATM   15  C   UNL     1       4.733  32.884  59.635  1.00  0.00     0.020 A 
HETATM   16  C   UNL     1       4.311  33.742  60.652  1.00  0.00     0.038 A 
HETATM   17  C   UNL     1       5.131  33.990  61.754  1.00  0.00     0.068 A 
HETATM   18  C   UNL     1       6.398  33.404  61.818  1.00  0.00     0.038 A 
HETATM   19  C   UNL     1       6.832  32.552  60.795  1.00  0.00     0.020 A 
BRANCH  17  20
HETATM   20  O   UNL     1       4.596  34.829  62.693  1.00  0.00    -0.356 OA
HETATM   21  C   UNL     1       3.201  34.689  62.935  1.00  0.00     0.210 C 
ENDBRANCH  17  20
ENDBRANCH  11  14
ENDBRANCH   7  10
BRANCH   2  22
HETATM   22  C   UNL     1       7.853  24.804  53.980  1.00  0.00     0.268 C 
HETATM   23  N   UNL     1       8.197  23.721  54.763  1.00  0.00    -0.353 N 
HETATM   24  H   UNL     1       8.121  23.827  55.764  1.00  0.00     0.162 HD
HETATM   25  O   UNL     1       8.087  24.847  52.776  1.00  0.00    -0.266 OA
BRANCH  23  26
HETATM   26  C   UNL     1       9.002  22.626  54.251  1.00  0.00     0.160 C 
BRANCH  26  27
HETATM   27  C   UNL     1       8.296  21.243  54.320  1.00  0.00     0.073 C 
HETATM   28  O   UNL     1       7.280  21.247  55.341  1.00  0.00    -0.379 OA
HETATM   29  C   UNL     1       7.831  20.709  56.552  1.00  0.00     0.169 C 
HETATM   30  C   UNL     1       9.258  20.286  56.264  1.00  0.00     0.029 C 
HETATM   31  C   UNL     1       9.273  20.152  54.760  1.00  0.00     0.041 C 
HETATM   32  C   UNL     1       7.633  20.894  52.988  1.00  0.00     0.047 C 
ENDBRANCH  26  27
ENDBRANCH  23  26
ENDBRANCH   2  22
BRANCH   1  33
HETATM   33  C   UNL     1       5.021  25.880  53.440  1.00  0.00     0.125 C 
HETATM   34  C   UNL     1       5.127  26.670  52.147  1.00  0.00     0.027 C 
ENDBRANCH   1  33
TORSDOF 7
ENDMDL
MODEL 8
REMARK VINA RESULT:      -8.3      2.246     11.072
REMARK  7 active torsions:
REMARK  status: ('A' for Active; 'I' for Inactive)
REMARK    1  A    between atoms: C_2  and  N_3 
REMARK    2  A    between atoms: C_4  and  C_5 
REMARK       I    between atoms: C_5  and  N_6 
REMARK    3  A    between atoms: N_6  and  C_7 
REMARK    4  A    between atoms: C_7  and  C_8 
REMARK    5  A    between atoms: C_19  and  N_20 
REMARK       I    between atoms: N_20  and  C_21 
REMARK    6  A    between atoms: C_21  and  C_22 
REMARK    7  A    between atoms: C_25  and  O_26 
ROOT
HETATM    1  N   UNL     1       4.253  30.950  56.463  1.00  0.00    -0.342 N 
HETATM    2  C   UNL     1       4.963  31.250  57.617  1.00  0.00     0.104 A 
HETATM    3  C   UNL     1       5.816  30.177  57.833  1.00  0.00     0.049 A 
HETATM    4  C   UNL     1       5.594  29.202  56.831  1.00  0.00    -0.005 A 
HETATM    5  C   UNL     1       4.593  29.689  55.995  1.00  0.00     0.045 A 
HETATM    6  C   UNL     1       6.167  27.940  56.569  1.00  0.00     0.043 A 
HETATM    7  C   UNL     1       5.725  27.178  55.484  1.00  0.00     0.035 A 
HETATM    8  C   UNL     1       4.697  27.676  54.678  1.00  0.00     0.032 A 
HETATM    9  C   UNL     1       4.120  28.933  54.911  1.00  0.00     0.033 A 
ENDROOT
BRANCH   7  10
HETATM   10  N   UNL     1       6.255  25.909  55.158  1.00  0.00    -0.323 N 
HETATM   11  C   UNL     1       7.211  25.636  54.195  1.00  0.00     0.256 C 
HETATM   12  O   UNL     1       7.716  26.424  53.408  1.00  0.00    -0.267 OA
HETATM   13  H   UNL     1       5.821  25.118  55.614  1.00  0.00     0.169 HD
BRANCH  11  14
HETATM   14  C   UNL     1       7.615  24.208  54.102  1.00  0.00     0.032 A 
HETATM   15  C   UNL     1       7.955  23.533  55.278  1.00  0.00     0.020 A 
HETATM   16  C   UNL     1       8.301  22.182  55.231  1.00  0.00     0.038 A 
HETATM   17  C   UNL     1       8.279  21.487  54.020  1.00  0.00     0.068 A 
HETATM   18  C   UNL     1       7.945  22.163  52.843  1.00  0.00     0.038 A 
HETATM   19  C   UNL     1       7.610  23.521  52.882  1.00  0.00     0.020 A 
BRANCH  17  20
HETATM   20  O   UNL     1       8.614  20.164  54.109  1.00  0.00    -0.356 OA
HETATM   21  C   UNL     1       8.870  19.670  55.419  1.00  0.00     0.210 C 
ENDBRANCH  17  20
ENDBRANCH  11  14
ENDBRANCH   7  10
BRANCH   2  22
HETATM   22  C   UNL     1       4.831  32.466  58.403  1.00  0.00     0.268 C 
HETATM   23  N   UNL     1       4.000  32.331  59.497  1.00  0.00    -0.353 N 
HETATM   24  H   UNL     1       3.449  31.487  59.562  1.00  0.00     0.162 HD
HETATM   25  O   UNL     1       5.394  33.521  58.132  1.00  0.00    -0.266 OA
BRANCH  23  26
HETATM   26  C   UNL     1       3.607  33.467  60.310  1.00  0.00     0.160 C 
BRANCH  26  27
HETATM   27  C   UNL     1       4.154  33.417  61.765  1.00  0.00     0.073 C 
HETATM   28  O   UNL     1       3.107  33.048  62.682  1.00  0.00    -0.379 OA
HETATM   29  C   UNL     1       2.532  34.238  63.241  1.00  0.00     0.169 C 
HETATM   30  C   UNL     1       3.297  35.425  62.691  1.00  0.00     0.029 C 
HETATM   31  C   UNL     1       4.595  34.805  62.231  1.00  0.00     0.041 C 
HETATM   32  C   UNL     1       5.285  32.399  61.896  1.00  0.00     0.047 C 
ENDBRANCH  26  27
ENDBRANCH  23  26
ENDBRANCH   2  22
BRANCH   1  33
HETATM   33  C   UNL     1       3.265  31.818  55.835  1.00  0.00     0.125 C 
HETATM   34  C   UNL     1       3.865  32.693  54.748  1.00  0.00     0.027 C 
ENDBRANCH   1  33
TORSDOF 7
ENDMDL
MODEL 9
REMARK VINA RESULT:      -8.2      7.406     11.308
REMARK  7 active torsions:
REMARK  status: ('A' for Active; 'I' for Inactive)
REMARK    1  A    between atoms: C_2  and  N_3 
REMARK    2  A    between atoms: C_4  and  C_5 
REMARK       I    between atoms: C_5  and  N_6 
REMARK    3  A    between atoms: N_6  and  C_7 
REMARK    4  A    between atoms: C_7  and  C_8 
REMARK    5  A    between atoms: C_19  and  N_20 
REMARK       I    between atoms: N_20  and  C_21 
REMARK    6  A    between atoms: C_21  and  C_22 
REMARK    7  A    between atoms: C_25  and  O_26 
ROOT
HETATM    1  N   UNL     1       4.208  29.197  48.599  1.00  0.00    -0.342 N 
HETATM    2  C   UNL     1       4.504  30.401  49.222  1.00  0.00     0.104 A 
HETATM    3  C   UNL     1       5.096  30.071  50.433  1.00  0.00     0.049 A 
HETATM    4  C   UNL     1       5.124  28.663  50.564  1.00  0.00    -0.005 A 
HETATM    5  C   UNL     1       4.540  28.129  49.419  1.00  0.00     0.045 A 
HETATM    6  C   UNL     1       5.600  27.796  51.571  1.00  0.00     0.043 A 
HETATM    7  C   UNL     1       5.477  26.412  51.425  1.00  0.00     0.035 A 
HETATM    8  C   UNL     1       4.859  25.903  50.279  1.00  0.00     0.032 A 
HETATM    9  C   UNL     1       4.388  26.743  49.259  1.00  0.00     0.033 A 
ENDROOT
BRANCH   7  10
HETATM   10  N   UNL     1       5.935  25.484  52.388  1.00  0.00    -0.323 N 
HETATM   11  C   UNL     1       7.233  25.034  52.548  1.00  0.00     0.256 C 
HETATM   12  O   UNL     1       8.201  25.297  51.848  1.00  0.00    -0.267 OA
HETATM   13  H   UNL     1       5.221  25.043  52.951  1.00  0.00     0.169 HD
BRANCH  11  14
HETATM   14  C   UNL     1       7.433  24.089  53.680  1.00  0.00     0.032 A 
HETATM   15  C   UNL     1       7.898  22.801  53.398  1.00  0.00     0.020 A 
HETATM   16  C   UNL     1       8.135  21.903  54.439  1.00  0.00     0.038 A 
HETATM   17  C   UNL     1       7.941  22.290  55.766  1.00  0.00     0.068 A 
HETATM   18  C   UNL     1       7.470  23.575  56.048  1.00  0.00     0.038 A 
HETATM   19  C   UNL     1       7.219  24.477  55.008  1.00  0.00     0.020 A 
BRANCH  17  20
HETATM   20  O   UNL     1       8.230  21.329  56.695  1.00  0.00    -0.356 OA
HETATM   21  C   UNL     1       9.104  20.290  56.269  1.00  0.00     0.210 C 
ENDBRANCH  17  20
ENDBRANCH  11  14
ENDBRANCH   7  10
BRANCH   2  22
HETATM   22  C   UNL     1       4.249  31.725  48.677  1.00  0.00     0.268 C 
HETATM   23  N   UNL     1       5.335  32.274  48.025  1.00  0.00    -0.353 N 
HETATM   24  H   UNL     1       6.223  31.803  48.122  1.00  0.00     0.162 HD
HETATM   25  O   UNL     1       3.178  32.313  48.781  1.00  0.00    -0.266 OA
BRANCH  23  26
HETATM   26  C   UNL     1       5.338  33.648  47.558  1.00  0.00     0.160 C 
BRANCH  26  27
HETATM   27  C   UNL     1       6.452  34.525  48.194  1.00  0.00     0.073 C 
HETATM   28  O   UNL     1       6.401  35.865  47.665  1.00  0.00    -0.379 OA
HETATM   29  C   UNL     1       7.331  35.974  46.577  1.00  0.00     0.169 C 
HETATM   30  C   UNL     1       8.052  34.648  46.448  1.00  0.00     0.029 C 
HETATM   31  C   UNL     1       7.839  34.016  47.803  1.00  0.00     0.041 C 
HETATM   32  C   UNL     1       6.294  34.605  49.711  1.00  0.00     0.047 C 
ENDBRANCH  26  27
ENDBRANCH  23  26
ENDBRANCH   2  22
BRANCH   1  33
HETATM   33  C   UNL     1       3.609  29.060  47.277  1.00  0.00     0.125 C 
HETATM   34  C   UNL     1       2.095  28.960  47.331  1.00  0.00     0.027 C 
ENDBRANCH   1  33
TORSDOF 7
ENDMDL
MODEL 10
REMARK VINA RESULT:      -8.1      7.646     11.764
REMARK  7 active torsions:
REMARK  status: ('A' for Active; 'I' for Inactive)
REMARK    1  A    between atoms: C_2  and  N_3 
REMARK    2  A    between atoms: C_4  and  C_5 
REMARK       I    between atoms: C_5  and  N_6 
REMARK    3  A    between atoms: N_6  and  C_7 
REMARK    4  A    between atoms: C_7  and  C_8 
REMARK    5  A    between atoms: C_19  and  N_20 
REMARK       I    between atoms: N_20  and  C_21 
REMARK    6  A    between atoms: C_21  and  C_22 
REMARK    7  A    between atoms: C_25  and  O_26 
ROOT
HETATM    1  N   UNL     1       3.487  29.444  49.435  1.00  0.00    -0.342 N 
HETATM    2  C   UNL     1       3.182  28.857  48.215  1.00  0.00     0.104 A 
HETATM    3  C   UNL     1       3.549  27.523  48.328  1.00  0.00     0.049 A 
HETATM    4  C   UNL     1       4.115  27.307  49.607  1.00  0.00    -0.005 A 
HETATM    5  C   UNL     1       4.094  28.525  50.280  1.00  0.00     0.045 A 
HETATM    6  C   UNL     1       4.648  26.168  50.247  1.00  0.00     0.043 A 
HETATM    7  C   UNL     1       5.160  26.264  51.543  1.00  0.00     0.035 A 
HETATM    8  C   UNL     1       5.154  27.505  52.186  1.00  0.00     0.032 A 
HETATM    9  C   UNL     1       4.621  28.650  51.575  1.00  0.00     0.033 A 
ENDROOT
BRANCH   7  10
HETATM   10  N   UNL     1       5.703  25.166  52.248  1.00  0.00    -0.323 N 
HETATM   11  C   UNL     1       7.045  24.895  52.448  1.00  0.00     0.256 C 
HETATM   12  O   UNL     1       8.001  25.510  51.994  1.00  0.00    -0.267 OA
HETATM   13  H   UNL     1       5.041  24.466  52.555  1.00  0.00     0.169 HD
BRANCH  11  14
HETATM   14  C   UNL     1       7.325  23.689  53.271  1.00  0.00     0.032 A 
HETATM   15  C   UNL     1       7.874  22.566  52.644  1.00  0.00     0.020 A 
HETATM   16  C   UNL     1       8.187  21.431  53.394  1.00  0.00     0.038 A 
HETATM   17  C   UNL     1       7.985  21.419  54.775  1.00  0.00     0.068 A 
HETATM   18  C   UNL     1       7.430  22.538  55.402  1.00  0.00     0.038 A 
HETATM   19  C   UNL     1       7.103  23.674  54.653  1.00  0.00     0.020 A 
BRANCH  17  20
HETATM   20  O   UNL     1       8.351  20.259  55.400  1.00  0.00    -0.356 OA
HETATM   21  C   UNL     1       9.505  20.333  56.230  1.00  0.00     0.210 C 
ENDBRANCH  17  20
ENDBRANCH  11  14
ENDBRANCH   7  10
BRANCH   2  22
HETATM   22  C   UNL     1       2.580  29.531  47.076  1.00  0.00     0.268 C 
HETATM   23  N   UNL     1       1.204  29.433  47.038  1.00  0.00    -0.353 N 
HETATM   24  H   UNL     1       0.765  28.791  47.682  1.00  0.00     0.162 HD
HETATM   25  O   UNL     1       3.221  30.130  46.219  1.00  0.00    -0.266 OA
BRANCH  23  26
HETATM   26  C   UNL     1       0.431  29.893  45.898  1.00  0.00     0.160 C 
BRANCH  26  27
HETATM   27  C   UNL     1      -0.684  28.905  45.456  1.00  0.00     0.073 C 
HETATM   28  O   UNL     1      -0.958  29.052  44.050  1.00  0.00    -0.379 OA
HETATM   29  C   UNL     1      -2.072  29.942  43.880  1.00  0.00     0.169 C 
HETATM   30  C   UNL     1      -2.568  30.332  45.258  1.00  0.00     0.029 C 
HETATM   31  C   UNL     1      -2.011  29.239  46.138  1.00  0.00     0.041 C 
HETATM   32  C   UNL     1      -0.274  27.456  45.714  1.00  0.00     0.047 C 
ENDBRANCH  26  27
ENDBRANCH  23  26
ENDBRANCH   2  22
BRANCH   1  33
HETATM   33  C   UNL     1       3.232  30.835  49.786  1.00  0.00     0.125 C 
HETATM   34  C   UNL     1       1.870  31.036  50.425  1.00  0.00     0.027 C 
ENDBRANCH   1  33
TORSDOF 7
ENDMDL
