MODEL 1
REMARK VINA RESULT:     -10.4      0.000      0.000
REMARK  7 active torsions:
REMARK  status: ('A' for Active; 'I' for Inactive)
REMARK    1  A    between atoms: C_2  and  C_3 
REMARK    2  A    between atoms: C_6  and  N_7 
REMARK       I    between atoms: N_7  and  C_8 
REMARK       I    between atoms: C_8  and  N_9 
REMARK    3  A    between atoms: N_13  and  C_14 
REMARK    4  A    between atoms: N_21  and  C_22 
REMARK    5  A    between atoms: C_22  and  C_23 
REMARK       I    between atoms: C_23  and  N_24 
REMARK    6  A    between atoms: N_24  and  C_25 
REMARK    7  A    between atoms: C_25  and  C_26 
ROOT
HETATM    1  N   UNL     1       6.997  29.476  57.579  1.00  0.00    -0.309 N 
HETATM    2  C   UNL     1       7.789  29.339  56.462  1.00  0.00     0.322 C 
HETATM    3  N   UNL     1       7.204  28.628  55.406  1.00  0.00    -0.334 N 
HETATM    4  C   UNL     1       7.975  28.546  54.168  1.00  0.00     0.130 C 
HETATM    5  C   UNL     1       7.817  27.190  53.492  1.00  0.00     0.061 C 
HETATM    6  C   UNL     1       6.349  26.740  53.392  1.00  0.00     0.118 C 
HETATM    7  N   UNL     1       6.236  25.311  52.964  1.00  0.00    -0.346 N 
HETATM    8  C   UNL     1       5.868  25.230  51.553  1.00  0.00     0.254 C 
HETATM    9  N   UNL     1       5.464  26.557  51.203  1.00  0.00    -0.325 N 
HETATM   10  C   UNL     1       5.741  27.483  52.185  1.00  0.00     0.250 C 
HETATM   11  O   UNL     1       5.574  28.690  52.082  1.00  0.00    -0.270 OA
HETATM   12  C   UNL     1       5.477  27.044  54.618  1.00  0.00     0.061 C 
HETATM   13  C   UNL     1       5.767  28.416  55.221  1.00  0.00     0.130 C 
HETATM   14  O   UNL     1       8.930  29.787  56.368  1.00  0.00    -0.247 OA
HETATM   15  H   UNL     1       6.233  28.829  57.667  1.00  0.00     0.170 HD
ENDROOT
BRANCH   7  16
HETATM   16  C   UNL     1       6.786  24.205  53.597  1.00  0.00     0.032 A 
HETATM   17  C   UNL     1       6.741  24.011  54.989  1.00  0.00     0.029 A 
HETATM   18  C   UNL     1       7.325  22.903  55.622  1.00  0.00     0.002 A 
HETATM   19  C   UNL     1       7.963  21.927  54.871  1.00  0.00     0.000 A 
HETATM   20  C   UNL     1       8.004  22.060  53.492  1.00  0.00     0.002 A 
HETATM   21  C   UNL     1       7.419  23.174  52.872  1.00  0.00     0.029 A 
ENDBRANCH   7  16
BRANCH   9  22
HETATM   22  C   UNL     1       5.276  26.938  49.813  1.00  0.00     0.230 C 
BRANCH  22  23
HETATM   23  C   UNL     1       3.883  26.696  49.238  1.00  0.00     0.235 C 
HETATM   24  N   UNL     1       2.993  27.731  49.379  1.00  0.00    -0.354 N 
HETATM   25  H   UNL     1       3.291  28.605  49.799  1.00  0.00     0.162 HD
HETATM   26  O   UNL     1       3.628  25.694  48.571  1.00  0.00    -0.272 OA
BRANCH  24  27
HETATM   27  C   UNL     1       1.738  27.704  48.665  1.00  0.00     0.187 C 
BRANCH  27  28
HETATM   28  C   UNL     1       1.653  28.797  47.665  1.00  0.00     0.070 A 
HETATM   29  O   UNL     1       0.421  29.133  47.173  1.00  0.00    -0.325 OA
HETATM   30  C   UNL     1       0.612  30.139  46.281  1.00  0.00     0.142 A 
HETATM   31  C   UNL     1       1.945  30.460  46.192  1.00  0.00     0.027 A 
HETATM   32  C   UNL     1       2.619  29.596  47.086  1.00  0.00     0.036 A 
ENDBRANCH  27  28
ENDBRANCH  24  27
ENDBRANCH  22  23
ENDBRANCH   9  22
BRANCH   1  33
HETATM   33  C   UNL     1       7.224  30.298  58.704  1.00  0.00     0.036 A 
HETATM   34  C   UNL     1       8.309  30.163  59.569  1.00  0.00     0.030 A 
HETATM   35  C   UNL     1       8.486  31.049  60.639  1.00  0.00     0.010 A 
HETATM   36  C   UNL     1       7.594  32.107  60.855  1.00  0.00    -0.055 A 
HETATM   37  C   UNL     1       6.496  32.229  59.996  1.00  0.00     0.010 A 
HETATM   38  C   UNL     1       6.311  31.333  58.935  1.00  0.00     0.030 A 
BRANCH  36  39
HETATM   39  C   UNL     1       7.778  33.100  61.989  1.00  0.00     0.010 C 
HETATM   40  C   UNL     1       8.107  32.429  63.327  1.00  0.00     0.015 C 
HETATM   41  C   UNL     1       6.548  33.999  62.124  1.00  0.00     0.015 C 
ENDBRANCH  36  39
ENDBRANCH   1  33
TORSDOF 7
ENDMDL
MODEL 2
REMARK VINA RESULT:     -10.4      4.860     10.127
REMARK  7 active torsions:
REMARK  status: ('A' for Active; 'I' for Inactive)
REMARK    1  A    between atoms: C_2  and  C_3 
REMARK    2  A    between atoms: C_6  and  N_7 
REMARK       I    between atoms: N_7  and  C_8 
REMARK       I    between atoms: C_8  and  N_9 
REMARK    3  A    between atoms: N_13  and  C_14 
REMARK    4  A    between atoms: N_21  and  C_22 
REMARK    5  A    between atoms: C_22  and  C_23 
REMARK       I    between atoms: C_23  and  N_24 
REMARK    6  A    between atoms: N_24  and  C_25 
REMARK    7  A    between atoms: C_25  and  C_26 
ROOT
HETATM    1  N   UNL     1       7.008  26.291  56.133  1.00  0.00    -0.309 N 
HETATM    2  C   UNL     1       5.793  26.818  56.506  1.00  0.00     0.322 C 
HETATM    3  N   UNL     1       5.739  28.218  56.531  1.00  0.00    -0.334 N 
HETATM    4  C   UNL     1       4.439  28.815  56.826  1.00  0.00     0.130 C 
HETATM    5  C   UNL     1       4.573  30.070  57.679  1.00  0.00     0.061 C 
HETATM    6  C   UNL     1       5.646  31.039  57.152  1.00  0.00     0.118 C 
HETATM    7  N   UNL     1       5.939  32.129  58.134  1.00  0.00    -0.346 N 
HETATM    8  C   UNL     1       5.286  33.369  57.726  1.00  0.00     0.254 C 
HETATM    9  N   UNL     1       4.863  33.137  56.379  1.00  0.00    -0.325 N 
HETATM   10  C   UNL     1       5.000  31.822  55.990  1.00  0.00     0.250 C 
HETATM   11  O   UNL     1       4.624  31.361  54.922  1.00  0.00    -0.270 OA
HETATM   12  C   UNL     1       6.928  30.383  56.620  1.00  0.00     0.061 C 
HETATM   13  C   UNL     1       6.652  29.114  55.818  1.00  0.00     0.130 C 
HETATM   14  O   UNL     1       4.813  26.141  56.807  1.00  0.00    -0.247 OA
HETATM   15  H   UNL     1       7.803  26.902  56.209  1.00  0.00     0.170 HD
ENDROOT
BRANCH   7  16
HETATM   16  C   UNL     1       6.373  31.976  59.443  1.00  0.00     0.032 A 
HETATM   17  C   UNL     1       7.600  31.382  59.785  1.00  0.00     0.029 A 
HETATM   18  C   UNL     1       8.017  31.208  61.114  1.00  0.00     0.002 A 
HETATM   19  C   UNL     1       7.218  31.647  62.158  1.00  0.00     0.000 A 
HETATM   20  C   UNL     1       6.013  32.268  61.868  1.00  0.00     0.002 A 
HETATM   21  C   UNL     1       5.607  32.434  60.536  1.00  0.00     0.029 A 
ENDBRANCH   7  16
BRANCH   9  22
HETATM   22  C   UNL     1       3.943  34.046  55.717  1.00  0.00     0.230 C 
BRANCH  22  23
HETATM   23  C   UNL     1       2.605  34.266  56.417  1.00  0.00     0.235 C 
HETATM   24  N   UNL     1       2.513  35.402  57.182  1.00  0.00    -0.354 N 
HETATM   25  H   UNL     1       3.288  36.056  57.217  1.00  0.00     0.162 HD
HETATM   26  O   UNL     1       1.635  33.545  56.189  1.00  0.00    -0.272 OA
BRANCH  24  27
HETATM   27  C   UNL     1       1.229  35.830  57.684  1.00  0.00     0.187 C 
BRANCH  27  28
HETATM   28  C   UNL     1       1.003  35.369  59.077  1.00  0.00     0.070 A 
HETATM   29  O   UNL     1      -0.279  35.114  59.476  1.00  0.00    -0.325 OA
HETATM   30  C   UNL     1      -0.218  34.723  60.776  1.00  0.00     0.142 A 
HETATM   31  C   UNL     1       1.083  34.717  61.218  1.00  0.00     0.027 A 
HETATM   32  C   UNL     1       1.874  35.133  60.123  1.00  0.00     0.036 A 
ENDBRANCH  27  28
ENDBRANCH  24  27
ENDBRANCH  22  23
ENDBRANCH   9  22
BRANCH   1  33
HETATM   33  C   UNL     1       7.309  24.947  55.822  1.00  0.00     0.036 A 
HETATM   34  C   UNL     1       7.872  24.041  56.720  1.00  0.00     0.030 A 
HETATM   35  C   UNL     1       8.099  22.710  56.346  1.00  0.00     0.010 A 
HETATM   36  C   UNL     1       7.745  22.248  55.072  1.00  0.00    -0.055 A 
HETATM   37  C   UNL     1       7.198  23.165  54.167  1.00  0.00     0.010 A 
HETATM   38  C   UNL     1       6.985  24.499  54.537  1.00  0.00     0.030 A 
BRANCH  36  39
HETATM   39  C   UNL     1       7.953  20.805  54.649  1.00  0.00     0.010 C 
HETATM   40  C   UNL     1       8.782  19.998  55.654  1.00  0.00     0.015 C 
HETATM   41  C   UNL     1       8.577  20.735  53.255  1.00  0.00     0.015 C 
ENDBRANCH  36  39
ENDBRANCH   1  33
TORSDOF 7
ENDMDL
MODEL 3
REMARK VINA RESULT:     -10.0      4.203     11.261
REMARK  7 active torsions:
REMARK  status: ('A' for Active; 'I' for Inactive)
REMARK    1  A    between atoms: C_2  and  C_3 
REMARK    2  A    between atoms: C_6  and  N_7 
REMARK       I    between atoms: N_7  and  C_8 
REMARK       I    between atoms: C_8  and  N_9 
REMARK    3  A    between atoms: N_13  and  C_14 
REMARK    4  A    between atoms: N_21  and  C_22 
REMARK    5  A    between atoms: C_22  and  C_23 
REMARK       I    between atoms: C_23  and  N_24 
REMARK    6  A    between atoms: N_24  and  C_25 
REMARK    7  A    between atoms: C_25  and  C_26 
ROOT
HETATM    1  N   UNL     1       6.295  26.380  55.030  1.00  0.00    -0.309 N 
HETATM    2  C   UNL     1       6.926  27.397  55.709  1.00  0.00     0.322 C 
HETATM    3  N   UNL     1       6.089  28.449  56.107  1.00  0.00    -0.334 N 
HETATM    4  C   UNL     1       6.703  29.500  56.916  1.00  0.00     0.130 C 
HETATM    5  C   UNL     1       6.151  30.876  56.568  1.00  0.00     0.061 C 
HETATM    6  C   UNL     1       4.615  30.904  56.498  1.00  0.00     0.118 C 
HETATM    7  N   UNL     1       4.110  32.183  55.910  1.00  0.00    -0.346 N 
HETATM    8  C   UNL     1       3.611  33.064  56.963  1.00  0.00     0.254 C 
HETATM    9  N   UNL     1       3.521  32.233  58.125  1.00  0.00    -0.325 N 
HETATM   10  C   UNL     1       4.107  30.998  57.951  1.00  0.00     0.250 C 
HETATM   11  O   UNL     1       4.239  30.153  58.825  1.00  0.00    -0.270 OA
HETATM   12  C   UNL     1       3.959  29.676  55.851  1.00  0.00     0.061 C 
HETATM   13  C   UNL     1       4.635  28.367  56.251  1.00  0.00     0.130 C 
HETATM   14  O   UNL     1       8.129  27.416  55.958  1.00  0.00    -0.247 OA
HETATM   15  H   UNL     1       5.404  26.602  54.620  1.00  0.00     0.170 HD
ENDROOT
BRANCH   7  16
HETATM   16  C   UNL     1       4.419  32.708  54.663  1.00  0.00     0.032 A 
HETATM   17  C   UNL     1       3.980  32.137  53.456  1.00  0.00     0.029 A 
HETATM   18  C   UNL     1       4.322  32.659  52.199  1.00  0.00     0.002 A 
HETATM   19  C   UNL     1       5.108  33.797  52.107  1.00  0.00     0.000 A 
HETATM   20  C   UNL     1       5.538  34.413  53.272  1.00  0.00     0.002 A 
HETATM   21  C   UNL     1       5.192  33.879  54.522  1.00  0.00     0.029 A 
ENDBRANCH   7  16
BRANCH   9  22
HETATM   22  C   UNL     1       3.312  32.811  59.441  1.00  0.00     0.230 C 
BRANCH  22  23
HETATM   23  C   UNL     1       4.564  32.994  60.295  1.00  0.00     0.235 C 
HETATM   24  N   UNL     1       4.749  32.065  61.288  1.00  0.00    -0.354 N 
HETATM   25  H   UNL     1       4.101  31.291  61.387  1.00  0.00     0.162 HD
HETATM   26  O   UNL     1       5.417  33.836  60.012  1.00  0.00    -0.272 OA
BRANCH  24  27
HETATM   27  C   UNL     1       6.011  32.000  61.987  1.00  0.00     0.187 C 
BRANCH  27  28
HETATM   28  C   UNL     1       5.945  32.686  63.302  1.00  0.00     0.070 A 
HETATM   29  O   UNL     1       4.720  32.854  63.886  1.00  0.00    -0.325 OA
HETATM   30  C   UNL     1       4.926  33.508  65.058  1.00  0.00     0.142 A 
HETATM   31  C   UNL     1       6.265  33.760  65.242  1.00  0.00     0.027 A 
HETATM   32  C   UNL     1       6.925  33.229  64.109  1.00  0.00     0.036 A 
ENDBRANCH  27  28
ENDBRANCH  24  27
ENDBRANCH  22  23
ENDBRANCH   9  22
BRANCH   1  33
HETATM   33  C   UNL     1       6.819  25.115  54.686  1.00  0.00     0.036 A 
HETATM   34  C   UNL     1       7.291  24.780  53.418  1.00  0.00     0.030 A 
HETATM   35  C   UNL     1       7.837  23.514  53.169  1.00  0.00     0.010 A 
HETATM   36  C   UNL     1       7.948  22.563  54.191  1.00  0.00    -0.055 A 
HETATM   37  C   UNL     1       7.456  22.897  55.458  1.00  0.00     0.010 A 
HETATM   38  C   UNL     1       6.896  24.157  55.702  1.00  0.00     0.030 A 
BRANCH  36  39
HETATM   39  C   UNL     1       8.562  21.194  53.957  1.00  0.00     0.010 C 
HETATM   40  C   UNL     1       8.049  20.514  52.683  1.00  0.00     0.015 C 
HETATM   41  C   UNL     1       8.349  20.291  55.174  1.00  0.00     0.015 C 
ENDBRANCH  36  39
ENDBRANCH   1  33
TORSDOF 7
ENDMDL
MODEL 4
REMARK VINA RESULT:     -10.0      5.058     11.850
REMARK  7 active torsions:
REMARK  status: ('A' for Active; 'I' for Inactive)
REMARK    1  A    between atoms: C_2  and  C_3 
REMARK    2  A    between atoms: C_6  and  N_7 
REMARK       I    between atoms: N_7  and  C_8 
REMARK       I    between atoms: C_8  and  N_9 
REMARK    3  A    between atoms: N_13  and  C_14 
REMARK    4  A    between atoms: N_21  and  C_22 
REMARK    5  A    between atoms: C_22  and  C_23 
REMARK       I    between atoms: C_23  and  N_24 
REMARK    6  A    between atoms: N_24  and  C_25 
REMARK    7  A    between atoms: C_25  and  C_26 
ROOT
HETATM    1  N   UNL     1       5.718  28.550  56.288  1.00  0.00    -0.309 N 
HETATM    2  C   UNL     1       6.298  29.299  57.285  1.00  0.00     0.322 C 
HETATM    3  N   UNL     1       5.497  30.332  57.790  1.00  0.00    -0.334 N 
HETATM    4  C   UNL     1       6.041  31.087  58.917  1.00  0.00     0.130 C 
HETATM    5  C   UNL     1       5.683  32.564  58.833  1.00  0.00     0.061 C 
HETATM    6  C   UNL     1       4.194  32.803  58.529  1.00  0.00     0.118 C 
HETATM    7  N   UNL     1       3.918  34.236  58.199  1.00  0.00    -0.346 N 
HETATM    8  C   UNL     1       3.312  34.913  59.342  1.00  0.00     0.254 C 
HETATM    9  N   UNL     1       2.940  33.861  60.238  1.00  0.00    -0.325 N 
HETATM   10  C   UNL     1       3.439  32.632  59.863  1.00  0.00     0.250 C 
HETATM   11  O   UNL     1       3.335  31.602  60.514  1.00  0.00    -0.270 OA
HETATM   12  C   UNL     1       3.564  31.846  57.508  1.00  0.00     0.061 C 
HETATM   13  C   UNL     1       4.039  30.406  57.679  1.00  0.00     0.130 C 
HETATM   14  O   UNL     1       7.433  29.108  57.717  1.00  0.00    -0.247 OA
HETATM   15  H   UNL     1       4.940  28.969  55.809  1.00  0.00     0.170 HD
ENDROOT
BRANCH   7  16
HETATM   16  C   UNL     1       4.495  34.983  57.182  1.00  0.00     0.032 A 
HETATM   17  C   UNL     1       4.861  34.441  55.938  1.00  0.00     0.029 A 
HETATM   18  C   UNL     1       5.469  35.199  54.926  1.00  0.00     0.002 A 
HETATM   19  C   UNL     1       5.716  36.549  55.120  1.00  0.00     0.000 A 
HETATM   20  C   UNL     1       5.343  37.135  56.320  1.00  0.00     0.002 A 
HETATM   21  C   UNL     1       4.739  36.365  57.324  1.00  0.00     0.029 A 
ENDBRANCH   7  16
BRANCH   9  22
HETATM   22  C   UNL     1       2.544  34.150  61.606  1.00  0.00     0.230 C 
BRANCH  22  23
HETATM   23  C   UNL     1       3.680  34.458  62.577  1.00  0.00     0.235 C 
HETATM   24  N   UNL     1       3.950  33.484  63.505  1.00  0.00    -0.354 N 
HETATM   25  H   UNL     1       3.441  32.607  63.485  1.00  0.00     0.162 HD
HETATM   26  O   UNL     1       4.391  35.452  62.438  1.00  0.00    -0.272 OA
BRANCH  24  27
HETATM   27  C   UNL     1       5.150  33.565  64.305  1.00  0.00     0.187 C 
BRANCH  27  28
HETATM   28  C   UNL     1       6.285  32.853  63.666  1.00  0.00     0.070 A 
HETATM   29  O   UNL     1       6.006  31.852  62.778  1.00  0.00    -0.325 OA
HETATM   30  C   UNL     1       7.197  31.361  62.349  1.00  0.00     0.142 A 
HETATM   31  C   UNL     1       8.239  32.033  62.942  1.00  0.00     0.027 A 
HETATM   32  C   UNL     1       7.652  32.998  63.792  1.00  0.00     0.036 A 
ENDBRANCH  27  28
ENDBRANCH  24  27
ENDBRANCH  22  23
ENDBRANCH   9  22
BRANCH   1  33
HETATM   33  C   UNL     1       6.185  27.338  55.733  1.00  0.00     0.036 A 
HETATM   34  C   UNL     1       6.999  27.254  54.605  1.00  0.00     0.030 A 
HETATM   35  C   UNL     1       7.456  26.013  54.143  1.00  0.00     0.010 A 
HETATM   36  C   UNL     1       7.129  24.829  54.815  1.00  0.00    -0.055 A 
HETATM   37  C   UNL     1       6.297  24.915  55.936  1.00  0.00     0.010 A 
HETATM   38  C   UNL     1       5.827  26.155  56.388  1.00  0.00     0.030 A 
BRANCH  36  39
HETATM   39  C   UNL     1       7.635  23.473  54.354  1.00  0.00     0.010 C 
HETATM   40  C   UNL     1       8.849  22.982  55.150  1.00  0.00     0.015 C 
HETATM   41  C   UNL     1       7.943  23.492  52.856  1.00  0.00     0.015 C 
ENDBRANCH  36  39
ENDBRANCH   1  33
TORSDOF 7
ENDMDL
MODEL 5
REMARK VINA RESULT:     -10.0      4.870     10.592
REMARK  7 active torsions:
REMARK  status: ('A' for Active; 'I' for Inactive)
REMARK    1  A    between atoms: C_2  and  C_3 
REMARK    2  A    between atoms: C_6  and  N_7 
REMARK       I    between atoms: N_7  and  C_8 
REMARK       I    between atoms: C_8  and  N_9 
REMARK    3  A    between atoms: N_13  and  C_14 
REMARK    4  A    between atoms: N_21  and  C_22 
REMARK    5  A    between atoms: C_22  and  C_23 
REMARK       I    between atoms: C_23  and  N_24 
REMARK    6  A    between atoms: N_24  and  C_25 
REMARK    7  A    between atoms: C_25  and  C_26 
ROOT
HETATM    1  N   UNL     1       7.362  26.220  55.677  1.00  0.00    -0.309 N 
HETATM    2  C   UNL     1       6.207  26.641  56.296  1.00  0.00     0.322 C 
HETATM    3  N   UNL     1       6.097  28.028  56.460  1.00  0.00    -0.334 N 
HETATM    4  C   UNL     1       4.842  28.521  57.023  1.00  0.00     0.130 C 
HETATM    5  C   UNL     1       5.067  29.705  57.954  1.00  0.00     0.061 C 
HETATM    6  C   UNL     1       5.989  30.777  57.346  1.00  0.00     0.118 C 
HETATM    7  N   UNL     1       6.399  31.796  58.362  1.00  0.00    -0.346 N 
HETATM    8  C   UNL     1       5.632  33.025  58.186  1.00  0.00     0.254 C 
HETATM    9  N   UNL     1       4.993  32.882  56.914  1.00  0.00    -0.325 N 
HETATM   10  C   UNL     1       5.119  31.615  56.387  1.00  0.00     0.250 C 
HETATM   11  O   UNL     1       4.583  31.224  55.360  1.00  0.00    -0.270 OA
HETATM   12  C   UNL     1       7.187  30.245  56.548  1.00  0.00     0.061 C 
HETATM   13  C   UNL     1       6.833  29.033  55.690  1.00  0.00     0.130 C 
HETATM   14  O   UNL     1       5.325  25.884  56.694  1.00  0.00    -0.247 OA
HETATM   15  H   UNL     1       8.130  26.868  55.675  1.00  0.00     0.170 HD
ENDROOT
BRANCH   7  16
HETATM   16  C   UNL     1       7.059  31.560  59.560  1.00  0.00     0.032 A 
HETATM   17  C   UNL     1       6.609  32.050  60.797  1.00  0.00     0.029 A 
HETATM   18  C   UNL     1       7.298  31.830  62.000  1.00  0.00     0.002 A 
HETATM   19  C   UNL     1       8.466  31.083  62.007  1.00  0.00     0.000 A 
HETATM   20  C   UNL     1       8.932  30.552  60.814  1.00  0.00     0.002 A 
HETATM   21  C   UNL     1       8.235  30.783  59.618  1.00  0.00     0.029 A 
ENDBRANCH   7  16
BRANCH   9  22
HETATM   22  C   UNL     1       3.934  33.788  56.503  1.00  0.00     0.230 C 
BRANCH  22  23
HETATM   23  C   UNL     1       3.612  34.920  57.475  1.00  0.00     0.235 C 
HETATM   24  N   UNL     1       2.663  34.637  58.426  1.00  0.00    -0.354 N 
HETATM   25  H   UNL     1       2.260  33.709  58.480  1.00  0.00     0.162 HD
HETATM   26  O   UNL     1       4.267  35.962  57.486  1.00  0.00    -0.272 OA
BRANCH  24  27
HETATM   27  C   UNL     1       2.462  35.542  59.533  1.00  0.00     0.187 C 
BRANCH  27  28
HETATM   28  C   UNL     1       2.595  34.849  60.839  1.00  0.00     0.070 A 
HETATM   29  O   UNL     1       3.738  34.140  61.084  1.00  0.00    -0.325 OA
HETATM   30  C   UNL     1       3.611  33.600  62.323  1.00  0.00     0.142 A 
HETATM   31  C   UNL     1       2.407  33.954  62.884  1.00  0.00     0.027 A 
HETATM   32  C   UNL     1       1.750  34.761  61.927  1.00  0.00     0.036 A 
ENDBRANCH  27  28
ENDBRANCH  24  27
ENDBRANCH  22  23
ENDBRANCH   9  22
BRANCH   1  33
HETATM   33  C   UNL     1       7.663  24.926  55.197  1.00  0.00     0.036 A 
HETATM   34  C   UNL     1       7.338  24.467  53.922  1.00  0.00     0.030 A 
HETATM   35  C   UNL     1       7.712  23.183  53.507  1.00  0.00     0.010 A 
HETATM   36  C   UNL     1       8.443  22.336  54.349  1.00  0.00    -0.055 A 
HETATM   37  C   UNL     1       8.751  22.794  55.636  1.00  0.00     0.010 A 
HETATM   38  C   UNL     1       8.363  24.072  56.056  1.00  0.00     0.030 A 
BRANCH  36  39
HETATM   39  C   UNL     1       8.887  20.951  53.915  1.00  0.00     0.010 C 
HETATM   40  C   UNL     1       8.149  20.445  52.671  1.00  0.00     0.015 C 
HETATM   41  C   UNL     1       8.750  19.954  55.067  1.00  0.00     0.015 C 
ENDBRANCH  36  39
ENDBRANCH   1  33
TORSDOF 7
ENDMDL
MODEL 6
REMARK VINA RESULT:     -10.0      4.171     10.745
REMARK  7 active torsions:
REMARK  status: ('A' for Active; 'I' for Inactive)
REMARK    1  A    between atoms: C_2  and  C_3 
REMARK    2  A    between atoms: C_6  and  N_7 
REMARK       I    between atoms: N_7  and  C_8 
REMARK       I    between atoms: C_8  and  N_9 
REMARK    3  A    between atoms: N_13  and  C_14 
REMARK    4  A    between atoms: N_21  and  C_22 
REMARK    5  A    between atoms: C_22  and  C_23 
REMARK       I    between atoms: C_23  and  N_24 
REMARK    6  A    between atoms: N_24  and  C_25 
REMARK    7  A    between atoms: C_25  and  C_26 
ROOT
HETATM    1  N   UNL     1       6.251  26.577  55.065  1.00  0.00    -0.309 N 
HETATM    2  C   UNL     1       6.856  27.574  55.795  1.00  0.00     0.322 C 
HETATM    3  N   UNL     1       6.014  28.635  56.157  1.00  0.00    -0.334 N 
HETATM    4  C   UNL     1       6.594  29.664  57.016  1.00  0.00     0.130 C 
HETATM    5  C   UNL     1       6.086  31.054  56.655  1.00  0.00     0.061 C 
HETATM    6  C   UNL     1       4.557  31.108  56.493  1.00  0.00     0.118 C 
HETATM    7  N   UNL     1       4.108  32.403  55.894  1.00  0.00    -0.346 N 
HETATM    8  C   UNL     1       3.561  33.278  56.927  1.00  0.00     0.254 C 
HETATM    9  N   UNL     1       3.389  32.434  58.070  1.00  0.00    -0.325 N 
HETATM   10  C   UNL     1       3.965  31.192  57.914  1.00  0.00     0.250 C 
HETATM   11  O   UNL     1       4.031  30.333  58.783  1.00  0.00    -0.270 OA
HETATM   12  C   UNL     1       3.922  29.899  55.791  1.00  0.00     0.061 C 
HETATM   13  C   UNL     1       4.552  28.574  56.213  1.00  0.00     0.130 C 
HETATM   14  O   UNL     1       8.042  27.570  56.115  1.00  0.00    -0.247 OA
HETATM   15  H   UNL     1       5.390  26.818  54.605  1.00  0.00     0.170 HD
ENDROOT
BRANCH   7  16
HETATM   16  C   UNL     1       4.500  32.938  54.675  1.00  0.00     0.032 A 
HETATM   17  C   UNL     1       4.080  32.424  53.436  1.00  0.00     0.029 A 
HETATM   18  C   UNL     1       4.505  32.956  52.208  1.00  0.00     0.002 A 
HETATM   19  C   UNL     1       5.358  34.047  52.179  1.00  0.00     0.000 A 
HETATM   20  C   UNL     1       5.774  34.608  53.377  1.00  0.00     0.002 A 
HETATM   21  C   UNL     1       5.345  34.066  54.597  1.00  0.00     0.029 A 
ENDBRANCH   7  16
BRANCH   9  22
HETATM   22  C   UNL     1       3.111  32.998  59.380  1.00  0.00     0.230 C 
BRANCH  22  23
HETATM   23  C   UNL     1       4.298  33.635  60.097  1.00  0.00     0.235 C 
HETATM   24  N   UNL     1       5.068  32.781  60.847  1.00  0.00    -0.354 N 
HETATM   25  H   UNL     1       4.861  31.789  60.860  1.00  0.00     0.162 HD
HETATM   26  O   UNL     1       4.617  34.805  59.895  1.00  0.00    -0.272 OA
BRANCH  24  27
HETATM   27  C   UNL     1       6.341  33.225  61.362  1.00  0.00     0.187 C 
BRANCH  27  28
HETATM   28  C   UNL     1       7.405  32.213  61.145  1.00  0.00     0.070 A 
HETATM   29  O   UNL     1       7.346  31.441  60.019  1.00  0.00    -0.325 OA
HETATM   30  C   UNL     1       8.411  30.600  60.059  1.00  0.00     0.142 A 
HETATM   31  C   UNL     1       9.159  30.820  61.191  1.00  0.00     0.027 A 
HETATM   32  C   UNL     1       8.511  31.863  61.893  1.00  0.00     0.036 A 
ENDBRANCH  27  28
ENDBRANCH  24  27
ENDBRANCH  22  23
ENDBRANCH   9  22
BRANCH   1  33
HETATM   33  C   UNL     1       6.775  25.308  54.735  1.00  0.00     0.036 A 
HETATM   34  C   UNL     1       7.370  24.998  53.513  1.00  0.00     0.030 A 
HETATM   35  C   UNL     1       7.906  23.725  53.281  1.00  0.00     0.010 A 
HETATM   36  C   UNL     1       7.881  22.739  54.275  1.00  0.00    -0.055 A 
HETATM   37  C   UNL     1       7.266  23.048  55.494  1.00  0.00     0.010 A 
HETATM   38  C   UNL     1       6.717  24.316  55.720  1.00  0.00     0.030 A 
BRANCH  36  39
HETATM   39  C   UNL     1       8.480  21.360  54.061  1.00  0.00     0.010 C 
HETATM   40  C   UNL     1       7.916  20.644  52.830  1.00  0.00     0.015 C 
HETATM   41  C   UNL     1       8.310  20.497  55.312  1.00  0.00     0.015 C 
ENDBRANCH  36  39
ENDBRANCH   1  33
TORSDOF 7
ENDMDL
MODEL 7
REMARK VINA RESULT:      -9.7      4.729      9.710
REMARK  7 active torsions:
REMARK  status: ('A' for Active; 'I' for Inactive)
REMARK    1  A    between atoms: C_2  and  C_3 
REMARK    2  A    between atoms: C_6  and  N_7 
REMARK       I    between atoms: N_7  and  C_8 
REMARK       I    between atoms: C_8  and  N_9 
REMARK    3  A    between atoms: N_13  and  C_14 
REMARK    4  A    between atoms: N_21  and  C_22 
REMARK    5  A    between atoms: C_22  and  C_23 
REMARK       I    between atoms: C_23  and  N_24 
REMARK    6  A    between atoms: N_24  and  C_25 
REMARK    7  A    between atoms: C_25  and  C_26 
ROOT
HETATM    1  N   UNL     1       7.283  26.201  55.644  1.00  0.00    -0.309 N 
HETATM    2  C   UNL     1       6.110  26.633  56.220  1.00  0.00     0.322 C 
HETATM    3  N   UNL     1       5.991  28.024  56.344  1.00  0.00    -0.334 N 
HETATM    4  C   UNL     1       4.719  28.526  56.860  1.00  0.00     0.130 C 
HETATM    5  C   UNL     1       4.914  29.735  57.764  1.00  0.00     0.061 C 
HETATM    6  C   UNL     1       5.847  30.794  57.154  1.00  0.00     0.118 C 
HETATM    7  N   UNL     1       6.226  31.842  58.152  1.00  0.00    -0.346 N 
HETATM    8  C   UNL     1       5.459  33.063  57.924  1.00  0.00     0.254 C 
HETATM    9  N   UNL     1       4.856  32.883  56.639  1.00  0.00    -0.325 N 
HETATM   10  C   UNL     1       5.001  31.603  56.150  1.00  0.00     0.250 C 
HETATM   11  O   UNL     1       4.495  31.182  55.119  1.00  0.00    -0.270 OA
HETATM   12  C   UNL     1       7.069  30.247  56.403  1.00  0.00     0.061 C 
HETATM   13  C   UNL     1       6.744  29.011  55.568  1.00  0.00     0.130 C 
HETATM   14  O   UNL     1       5.221  25.883  56.614  1.00  0.00    -0.247 OA
HETATM   15  H   UNL     1       8.049  26.852  55.646  1.00  0.00     0.170 HD
ENDROOT
BRANCH   7  16
HETATM   16  C   UNL     1       6.854  31.641  59.374  1.00  0.00     0.032 A 
HETATM   17  C   UNL     1       8.040  30.901  59.519  1.00  0.00     0.029 A 
HETATM   18  C   UNL     1       8.652  30.680  60.763  1.00  0.00     0.002 A 
HETATM   19  C   UNL     1       8.101  31.218  61.916  1.00  0.00     0.000 A 
HETATM   20  C   UNL     1       6.949  31.982  61.817  1.00  0.00     0.002 A 
HETATM   21  C   UNL     1       6.346  32.192  60.568  1.00  0.00     0.029 A 
ENDBRANCH   7  16
BRANCH   9  22
HETATM   22  C   UNL     1       3.805  33.773  56.176  1.00  0.00     0.230 C 
BRANCH  22  23
HETATM   23  C   UNL     1       4.234  34.854  55.188  1.00  0.00     0.235 C 
HETATM   24  N   UNL     1       5.479  34.693  54.633  1.00  0.00    -0.354 N 
HETATM   25  H   UNL     1       6.030  33.869  54.850  1.00  0.00     0.162 HD
HETATM   26  O   UNL     1       3.454  35.729  54.814  1.00  0.00    -0.272 OA
BRANCH  24  27
HETATM   27  C   UNL     1       5.881  35.515  53.516  1.00  0.00     0.187 C 
BRANCH  27  28
HETATM   28  C   UNL     1       6.949  36.473  53.896  1.00  0.00     0.070 A 
HETATM   29  O   UNL     1       8.062  36.552  53.105  1.00  0.00    -0.325 OA
HETATM   30  C   UNL     1       8.880  37.480  53.665  1.00  0.00     0.142 A 
HETATM   31  C   UNL     1       8.310  38.005  54.801  1.00  0.00     0.027 A 
HETATM   32  C   UNL     1       7.063  37.356  54.951  1.00  0.00     0.036 A 
ENDBRANCH  27  28
ENDBRANCH  24  27
ENDBRANCH  22  23
ENDBRANCH   9  22
BRANCH   1  33
HETATM   33  C   UNL     1       7.602  24.897  55.207  1.00  0.00     0.036 A 
HETATM   34  C   UNL     1       7.292  24.395  53.944  1.00  0.00     0.030 A 
HETATM   35  C   UNL     1       7.684  23.102  53.572  1.00  0.00     0.010 A 
HETATM   36  C   UNL     1       8.418  22.291  54.447  1.00  0.00    -0.055 A 
HETATM   37  C   UNL     1       8.711  22.792  55.720  1.00  0.00     0.010 A 
HETATM   38  C   UNL     1       8.306  24.078  56.097  1.00  0.00     0.030 A 
BRANCH  36  39
HETATM   39  C   UNL     1       8.880  20.898  54.059  1.00  0.00     0.010 C 
HETATM   40  C   UNL     1       8.261  20.401  52.748  1.00  0.00     0.015 C 
HETATM   41  C   UNL     1       8.613  19.905  55.192  1.00  0.00     0.015 C 
ENDBRANCH  36  39
ENDBRANCH   1  33
TORSDOF 7
ENDMDL
MODEL 8
REMARK VINA RESULT:      -9.3      5.009      8.738
REMARK  7 active torsions:
REMARK  status: ('A' for Active; 'I' for Inactive)
REMARK    1  A    between atoms: C_2  and  C_3 
REMARK    2  A    between atoms: C_6  and  N_7 
REMARK       I    between atoms: N_7  and  C_8 
REMARK       I    between atoms: C_8  and  N_9 
REMARK    3  A    between atoms: N_13  and  C_14 
REMARK    4  A    between atoms: N_21  and  C_22 
REMARK    5  A    between atoms: C_22  and  C_23 
REMARK       I    between atoms: C_23  and  N_24 
REMARK    6  A    between atoms: N_24  and  C_25 
REMARK    7  A    between atoms: C_25  and  C_26 
ROOT
HETATM    1  N   UNL     1       5.634  25.633  53.238  1.00  0.00    -0.309 N 
HETATM    2  C   UNL     1       6.120  26.752  52.602  1.00  0.00     0.322 C 
HETATM    3  N   UNL     1       5.184  27.779  52.415  1.00  0.00    -0.334 N 
HETATM    4  C   UNL     1       5.687  29.020  51.832  1.00  0.00     0.130 C 
HETATM    5  C   UNL     1       4.675  29.650  50.885  1.00  0.00     0.061 C 
HETATM    6  C   UNL     1       3.260  29.723  51.485  1.00  0.00     0.118 C 
HETATM    7  N   UNL     1       2.240  30.102  50.458  1.00  0.00    -0.346 N 
HETATM    8  C   UNL     1       1.868  31.507  50.606  1.00  0.00     0.254 C 
HETATM    9  N   UNL     1       2.404  31.896  51.875  1.00  0.00    -0.325 N 
HETATM   10  C   UNL     1       3.239  30.947  52.422  1.00  0.00     0.250 C 
HETATM   11  O   UNL     1       3.886  31.088  53.450  1.00  0.00    -0.270 OA
HETATM   12  C   UNL     1       2.823  28.499  52.303  1.00  0.00     0.061 C 
HETATM   13  C   UNL     1       3.944  27.943  53.176  1.00  0.00     0.130 C 
HETATM   14  O   UNL     1       7.278  26.870  52.207  1.00  0.00    -0.247 OA
HETATM   15  H   UNL     1       4.635  25.516  53.238  1.00  0.00     0.170 HD
ENDROOT
BRANCH   7  16
HETATM   16  C   UNL     1       1.967  29.439  49.270  1.00  0.00     0.032 A 
HETATM   17  C   UNL     1       2.171  30.010  48.002  1.00  0.00     0.029 A 
HETATM   18  C   UNL     1       1.865  29.341  46.807  1.00  0.00     0.002 A 
HETATM   19  C   UNL     1       1.356  28.052  46.841  1.00  0.00     0.000 A 
HETATM   20  C   UNL     1       1.167  27.436  48.068  1.00  0.00     0.002 A 
HETATM   21  C   UNL     1       1.475  28.117  49.255  1.00  0.00     0.029 A 
ENDBRANCH   7  16
BRANCH   9  22
HETATM   22  C   UNL     1       2.466  33.296  52.261  1.00  0.00     0.230 C 
BRANCH  22  23
HETATM   23  C   UNL     1       1.750  33.662  53.557  1.00  0.00     0.235 C 
HETATM   24  N   UNL     1       0.519  33.083  53.741  1.00  0.00    -0.354 N 
HETATM   25  H   UNL     1       0.163  32.420  53.061  1.00  0.00     0.162 HD
HETATM   26  O   UNL     1       2.307  34.318  54.436  1.00  0.00    -0.272 OA
BRANCH  24  27
HETATM   27  C   UNL     1      -0.130  33.165  55.028  1.00  0.00     0.187 C 
BRANCH  27  28
HETATM   28  C   UNL     1      -1.601  33.002  54.912  1.00  0.00     0.070 A 
HETATM   29  O   UNL     1      -2.119  32.628  53.704  1.00  0.00    -0.325 OA
HETATM   30  C   UNL     1      -3.467  32.559  53.855  1.00  0.00     0.142 A 
HETATM   31  C   UNL     1      -3.825  32.877  55.144  1.00  0.00     0.027 A 
HETATM   32  C   UNL     1      -2.622  33.162  55.828  1.00  0.00     0.036 A 
ENDBRANCH  27  28
ENDBRANCH  24  27
ENDBRANCH  22  23
ENDBRANCH   9  22
BRANCH   1  33
HETATM   33  C   UNL     1       6.368  24.537  53.741  1.00  0.00     0.036 A 
HETATM   34  C   UNL     1       6.997  23.581  52.945  1.00  0.00     0.030 A 
HETATM   35  C   UNL     1       7.745  22.548  53.523  1.00  0.00     0.010 A 
HETATM   36  C   UNL     1       7.901  22.459  54.912  1.00  0.00    -0.055 A 
HETATM   37  C   UNL     1       7.252  23.409  55.709  1.00  0.00     0.010 A 
HETATM   38  C   UNL     1       6.492  24.434  55.131  1.00  0.00     0.030 A 
BRANCH  36  39
HETATM   39  C   UNL     1       8.729  21.367  55.564  1.00  0.00     0.010 C 
HETATM   40  C   UNL     1       8.720  20.053  54.775  1.00  0.00     0.015 C 
HETATM   41  C   UNL     1       8.276  21.133  57.006  1.00  0.00     0.015 C 
ENDBRANCH  36  39
ENDBRANCH   1  33
TORSDOF 7
ENDMDL
MODEL 9
REMARK VINA RESULT:      -9.0      5.092      8.832
REMARK  7 active torsions:
REMARK  status: ('A' for Active; 'I' for Inactive)
REMARK    1  A    between atoms: C_2  and  C_3 
REMARK    2  A    between atoms: C_6  and  N_7 
REMARK       I    between atoms: N_7  and  C_8 
REMARK       I    between atoms: C_8  and  N_9 
REMARK    3  A    between atoms: N_13  and  C_14 
REMARK    4  A    between atoms: N_21  and  C_22 
REMARK    5  A    between atoms: C_22  and  C_23 
REMARK       I    between atoms: C_23  and  N_24 
REMARK    6  A    between atoms: N_24  and  C_25 
REMARK    7  A    between atoms: C_25  and  C_26 
ROOT
HETATM    1  N   UNL     1       5.714  26.329  51.049  1.00  0.00    -0.309 N 
HETATM    2  C   UNL     1       4.750  27.276  51.308  1.00  0.00     0.322 C 
HETATM    3  N   UNL     1       4.090  27.772  50.175  1.00  0.00    -0.334 N 
HETATM    4  C   UNL     1       2.993  28.706  50.417  1.00  0.00     0.130 C 
HETATM    5  C   UNL     1       2.944  29.804  49.363  1.00  0.00     0.061 C 
HETATM    6  C   UNL     1       3.050  29.261  47.927  1.00  0.00     0.118 C 
HETATM    7  N   UNL     1       3.257  30.359  46.932  1.00  0.00    -0.346 N 
HETATM    8  C   UNL     1       2.010  30.650  46.231  1.00  0.00     0.254 C 
HETATM    9  N   UNL     1       1.141  29.560  46.557  1.00  0.00    -0.325 N 
HETATM   10  C   UNL     1       1.648  28.744  47.546  1.00  0.00     0.250 C 
HETATM   11  O   UNL     1       1.053  27.807  48.057  1.00  0.00    -0.270 OA
HETATM   12  C   UNL     1       4.045  28.109  47.727  1.00  0.00     0.061 C 
HETATM   13  C   UNL     1       4.020  27.103  48.875  1.00  0.00     0.130 C 
HETATM   14  O   UNL     1       4.471  27.684  52.433  1.00  0.00    -0.247 OA
HETATM   15  H   UNL     1       6.070  26.298  50.109  1.00  0.00     0.170 HD
ENDROOT
BRANCH   7  16
HETATM   16  C   UNL     1       4.288  31.287  46.917  1.00  0.00     0.032 A 
HETATM   17  C   UNL     1       4.821  31.828  45.735  1.00  0.00     0.029 A 
HETATM   18  C   UNL     1       5.883  32.746  45.729  1.00  0.00     0.002 A 
HETATM   19  C   UNL     1       6.441  33.174  46.924  1.00  0.00     0.000 A 
HETATM   20  C   UNL     1       5.927  32.691  48.117  1.00  0.00     0.002 A 
HETATM   21  C   UNL     1       4.867  31.772  48.109  1.00  0.00     0.029 A 
ENDBRANCH   7  16
BRANCH   9  22
HETATM   22  C   UNL     1      -0.279  29.621  46.258  1.00  0.00     0.230 C 
BRANCH  22  23
HETATM   23  C   UNL     1      -0.812  28.537  45.325  1.00  0.00     0.235 C 
HETATM   24  N   UNL     1      -0.770  28.833  43.985  1.00  0.00    -0.354 N 
HETATM   25  H   UNL     1      -0.360  29.705  43.669  1.00  0.00     0.162 HD
HETATM   26  O   UNL     1      -1.121  27.423  45.745  1.00  0.00    -0.272 OA
BRANCH  24  27
HETATM   27  C   UNL     1      -1.017  27.796  43.011  1.00  0.00     0.187 C 
BRANCH  27  28
HETATM   28  C   UNL     1      -2.161  28.134  42.128  1.00  0.00     0.070 A 
HETATM   29  O   UNL     1      -2.887  27.110  41.586  1.00  0.00    -0.325 OA
HETATM   30  C   UNL     1      -3.856  27.674  40.820  1.00  0.00     0.142 A 
HETATM   31  C   UNL     1      -3.770  29.045  40.864  1.00  0.00     0.027 A 
HETATM   32  C   UNL     1      -2.676  29.344  41.709  1.00  0.00     0.036 A 
ENDBRANCH  27  28
ENDBRANCH  24  27
ENDBRANCH  22  23
ENDBRANCH   9  22
BRANCH   1  33
HETATM   33  C   UNL     1       6.394  25.511  51.978  1.00  0.00     0.036 A 
HETATM   34  C   UNL     1       7.688  25.026  51.796  1.00  0.00     0.030 A 
HETATM   35  C   UNL     1       8.309  24.256  52.788  1.00  0.00     0.010 A 
HETATM   36  C   UNL     1       7.659  23.973  53.995  1.00  0.00    -0.055 A 
HETATM   37  C   UNL     1       6.352  24.446  54.166  1.00  0.00     0.010 A 
HETATM   38  C   UNL     1       5.726  25.203  53.168  1.00  0.00     0.030 A 
BRANCH  36  39
HETATM   39  C   UNL     1       8.318  23.165  55.099  1.00  0.00     0.010 C 
HETATM   40  C   UNL     1       7.709  21.770  55.268  1.00  0.00     0.015 C 
HETATM   41  C   UNL     1       8.287  23.932  56.422  1.00  0.00     0.015 C 
ENDBRANCH  36  39
ENDBRANCH   1  33
TORSDOF 7
ENDMDL
MODEL 10
REMARK VINA RESULT:      -8.9      3.676      7.610
REMARK  7 active torsions:
REMARK  status: ('A' for Active; 'I' for Inactive)
REMARK    1  A    between atoms: C_2  and  C_3 
REMARK    2  A    between atoms: C_6  and  N_7 
REMARK       I    between atoms: N_7  and  C_8 
REMARK       I    between atoms: C_8  and  N_9 
REMARK    3  A    between atoms: N_13  and  C_14 
REMARK    4  A    between atoms: N_21  and  C_22 
REMARK    5  A    between atoms: C_22  and  C_23 
REMARK       I    between atoms: C_23  and  N_24 
REMARK    6  A    between atoms: N_24  and  C_25 
REMARK    7  A    between atoms: C_25  and  C_26 
ROOT
HETATM    1  N   UNL     1       4.884  33.183  59.403  1.00  0.00    -0.309 N 
HETATM    2  C   UNL     1       3.998  32.156  59.167  1.00  0.00     0.322 C 
HETATM    3  N   UNL     1       4.376  31.271  58.149  1.00  0.00    -0.334 N 
HETATM    4  C   UNL     1       3.510  30.114  57.936  1.00  0.00     0.130 C 
HETATM    5  C   UNL     1       3.391  29.762  56.460  1.00  0.00     0.061 C 
HETATM    6  C   UNL     1       4.752  29.714  55.744  1.00  0.00     0.118 C 
HETATM    7  N   UNL     1       4.595  29.621  54.259  1.00  0.00    -0.346 N 
HETATM    8  C   UNL     1       4.836  28.254  53.807  1.00  0.00     0.254 C 
HETATM    9  N   UNL     1       5.426  27.594  54.931  1.00  0.00    -0.325 N 
HETATM   10  C   UNL     1       5.381  28.347  56.084  1.00  0.00     0.250 C 
HETATM   11  O   UNL     1       5.737  27.964  57.189  1.00  0.00    -0.270 OA
HETATM   12  C   UNL     1       5.752  30.805  56.150  1.00  0.00     0.061 C 
HETATM   13  C   UNL     1       5.740  31.088  57.649  1.00  0.00     0.130 C 
HETATM   14  O   UNL     1       2.944  32.005  59.780  1.00  0.00    -0.247 OA
HETATM   15  H   UNL     1       5.536  33.389  58.665  1.00  0.00     0.170 HD
ENDROOT
BRANCH   7  16
HETATM   16  C   UNL     1       3.919  30.510  53.435  1.00  0.00     0.032 A 
HETATM   17  C   UNL     1       3.707  31.860  53.766  1.00  0.00     0.029 A 
HETATM   18  C   UNL     1       2.999  32.744  52.938  1.00  0.00     0.002 A 
HETATM   19  C   UNL     1       2.489  32.307  51.725  1.00  0.00     0.000 A 
HETATM   20  C   UNL     1       2.701  30.992  51.342  1.00  0.00     0.002 A 
HETATM   21  C   UNL     1       3.409  30.117  52.180  1.00  0.00     0.029 A 
ENDBRANCH   7  16
BRANCH   9  22
HETATM   22  C   UNL     1       5.569  26.148  54.958  1.00  0.00     0.230 C 
BRANCH  22  23
HETATM   23  C   UNL     1       6.992  25.616  54.816  1.00  0.00     0.235 C 
HETATM   24  N   UNL     1       7.296  24.517  55.580  1.00  0.00    -0.354 N 
HETATM   25  H   UNL     1       6.580  24.083  56.153  1.00  0.00     0.162 HD
HETATM   26  O   UNL     1       7.762  26.061  53.966  1.00  0.00    -0.272 OA
BRANCH  24  27
HETATM   27  C   UNL     1       8.522  23.792  55.343  1.00  0.00     0.187 C 
BRANCH  27  28
HETATM   28  C   UNL     1       8.282  22.540  54.583  1.00  0.00     0.070 A 
HETATM   29  O   UNL     1       8.493  21.346  55.215  1.00  0.00    -0.325 OA
HETATM   30  C   UNL     1       8.216  20.368  54.314  1.00  0.00     0.142 A 
HETATM   31  C   UNL     1       7.825  20.912  53.114  1.00  0.00     0.027 A 
HETATM   32  C   UNL     1       7.866  22.315  53.286  1.00  0.00     0.036 A 
ENDBRANCH  27  28
ENDBRANCH  24  27
ENDBRANCH  22  23
ENDBRANCH   9  22
BRANCH   1  33
HETATM   33  C   UNL     1       4.882  34.097  60.478  1.00  0.00     0.036 A 
HETATM   34  C   UNL     1       5.599  33.919  61.661  1.00  0.00     0.030 A 
HETATM   35  C   UNL     1       5.578  34.897  62.664  1.00  0.00     0.010 A 
HETATM   36  C   UNL     1       4.860  36.087  62.497  1.00  0.00    -0.055 A 
HETATM   37  C   UNL     1       4.127  36.254  61.316  1.00  0.00     0.010 A 
HETATM   38  C   UNL     1       4.135  35.270  60.320  1.00  0.00     0.030 A 
BRANCH  36  39
HETATM   39  C   UNL     1       4.844  37.177  63.554  1.00  0.00     0.010 C 
HETATM   40  C   UNL     1       6.060  38.106  63.479  1.00  0.00     0.015 C 
HETATM   41  C   UNL     1       4.714  36.570  64.952  1.00  0.00     0.015 C 
ENDBRANCH  36  39
ENDBRANCH   1  33
TORSDOF 7
ENDMDL
