MODEL 1
REMARK VINA RESULT:     -10.3      0.000      0.000
REMARK  6 active torsions:
REMARK  status: ('A' for Active; 'I' for Inactive)
REMARK    1  A    between atoms: O_2  and  C_3 
REMARK    2  A    between atoms: C_8  and  C_9 
REMARK    3  A    between atoms: C_9  and  N_10 
REMARK    4  A    between atoms: N_13  and  C_26 
REMARK    5  A    between atoms: N_18  and  C_22 
REMARK    6  A    between atoms: C_29  and  C_32 
ROOT
HETATM    1  N   UNL     1       7.178  29.410  57.440  1.00  0.00    -0.318 N 
HETATM    2  C   UNL     1       7.880  28.202  57.271  1.00  0.00     0.326 C 
HETATM    3  O   UNL     1       9.073  28.079  57.485  1.00  0.00    -0.247 OA
HETATM    4  N   UNL     1       6.947  27.237  56.833  1.00  0.00    -0.297 N 
HETATM    5  C   UNL     1       5.611  27.788  56.887  1.00  0.00     0.165 C 
HETATM    6  C   UNL     1       5.833  29.325  56.871  1.00  0.00     0.057 C 
HETATM    7  C   UNL     1       4.778  30.067  57.703  1.00  0.00     0.060 C 
HETATM    8  C   UNL     1       3.407  30.082  57.042  1.00  0.00     0.238 C 
HETATM    9  N   UNL     1       3.474  30.610  55.636  1.00  0.00    -0.063 N 
HETATM   10  H   UNL     1       2.537  30.495  55.207  1.00  0.00     0.280 HD
HETATM   11  C   UNL     1       4.466  29.889  54.772  1.00  0.00     0.238 C 
HETATM   12  C   UNL     1       5.847  29.848  55.414  1.00  0.00     0.060 C 
ENDROOT
BRANCH   4  13
HETATM   13  C   UNL     1       7.231  25.883  56.508  1.00  0.00     0.039 A 
HETATM   14  C   UNL     1       7.943  25.055  57.382  1.00  0.00     0.030 A 
HETATM   15  C   UNL     1       8.258  23.731  57.042  1.00  0.00     0.014 A 
HETATM   16  C   UNL     1       7.872  23.192  55.814  1.00  0.00    -0.023 A 
HETATM   17  C   UNL     1       7.145  24.008  54.941  1.00  0.00     0.014 A 
HETATM   18  C   UNL     1       6.830  25.334  55.283  1.00  0.00     0.030 A 
BRANCH  16  19
HETATM   19  C   UNL     1       8.207  21.827  55.445  1.00  0.00     0.010 A 
HETATM   20  C   UNL     1       8.201  21.176  54.188  1.00  0.00     0.152 A 
HETATM   21  N   UNL     1       8.601  19.904  54.260  1.00  0.00    -0.187 NA
HETATM   22  N   UNL     1       8.856  19.726  55.565  1.00  0.00    -0.289 N 
HETATM   23  H   UNL     1       9.177  18.814  55.874  1.00  0.00     0.188 HD
HETATM   24  C   UNL     1       8.645  20.848  56.314  1.00  0.00     0.123 A 
ENDBRANCH  16  19
ENDBRANCH   4  13
BRANCH   1  25
HETATM   25  C   UNL     1       7.870  30.634  57.829  1.00  0.00     0.167 C 
BRANCH  25  26
HETATM   26  C   UNL     1       7.937  30.839  59.322  1.00  0.00    -0.035 A 
HETATM   27  C   UNL     1       8.985  30.322  60.092  1.00  0.00     0.051 A 
HETATM   28  C   UNL     1       9.046  30.591  61.457  1.00  0.00     0.119 A 
HETATM   29  C   UNL     1       8.098  31.393  62.081  1.00  0.00     0.079 A 
HETATM   30  F   UNL     1      10.041  30.065  62.183  1.00  0.00    -0.206 F 
HETATM   31  C   UNL     1       7.069  31.945  61.324  1.00  0.00     0.071 A 
HETATM   32  C   UNL     1       6.986  31.655  59.956  1.00  0.00     0.045 A 
BRANCH  31  33
HETATM   33  O   UNL     1       6.081  32.762  61.800  1.00  0.00    -0.356 OA
HETATM   34  C   UNL     1       5.441  32.330  63.000  1.00  0.00     0.210 C 
ENDBRANCH  31  33
ENDBRANCH  25  26
ENDBRANCH   1  25
BRANCH   9  35
HETATM   35  C   UNL     1       3.751  32.113  55.633  1.00  0.00     0.235 C 
HETATM   36  C   UNL     1       2.780  32.932  54.735  1.00  0.00     0.203 C 
HETATM   37  O   UNL     1       1.883  33.096  55.868  1.00  0.00    -0.387 OA
HETATM   38  C   UNL     1       3.013  32.890  56.761  1.00  0.00     0.203 C 
ENDBRANCH   9  35
TORSDOF 6
ENDMDL
MODEL 2
REMARK VINA RESULT:      -9.2      5.201      9.171
REMARK  6 active torsions:
REMARK  status: ('A' for Active; 'I' for Inactive)
REMARK    1  A    between atoms: O_2  and  C_3 
REMARK    2  A    between atoms: C_8  and  C_9 
REMARK    3  A    between atoms: C_9  and  N_10 
REMARK    4  A    between atoms: N_13  and  C_26 
REMARK    5  A    between atoms: N_18  and  C_22 
REMARK    6  A    between atoms: C_29  and  C_32 
ROOT
HETATM    1  N   UNL     1       7.035  25.693  53.619  1.00  0.00    -0.318 N 
HETATM    2  C   UNL     1       6.562  25.766  52.296  1.00  0.00     0.326 C 
HETATM    3  O   UNL     1       7.084  25.188  51.359  1.00  0.00    -0.247 OA
HETATM    4  N   UNL     1       5.422  26.599  52.308  1.00  0.00    -0.297 N 
HETATM    5  C   UNL     1       5.066  26.921  53.671  1.00  0.00     0.165 C 
HETATM    6  C   UNL     1       6.372  26.677  54.473  1.00  0.00     0.057 C 
HETATM    7  C   UNL     1       6.090  26.156  55.889  1.00  0.00     0.060 C 
HETATM    8  C   UNL     1       5.517  27.224  56.810  1.00  0.00     0.238 C 
HETATM    9  N   UNL     1       6.379  28.454  56.837  1.00  0.00    -0.063 N 
HETATM   10  H   UNL     1       5.884  29.178  57.390  1.00  0.00     0.280 HD
HETATM   11  C   UNL     1       6.651  29.025  55.476  1.00  0.00     0.238 C 
HETATM   12  C   UNL     1       7.215  27.975  54.528  1.00  0.00     0.060 C 
ENDROOT
BRANCH   4  13
HETATM   13  C   UNL     1       4.645  26.973  51.179  1.00  0.00     0.039 A 
HETATM   14  C   UNL     1       3.938  28.180  51.144  1.00  0.00     0.030 A 
HETATM   15  C   UNL     1       3.138  28.530  50.046  1.00  0.00     0.014 A 
HETATM   16  C   UNL     1       3.018  27.680  48.945  1.00  0.00    -0.023 A 
HETATM   17  C   UNL     1       3.735  26.479  48.963  1.00  0.00     0.014 A 
HETATM   18  C   UNL     1       4.535  26.131  50.064  1.00  0.00     0.030 A 
BRANCH  16  19
HETATM   19  C   UNL     1       2.180  28.025  47.808  1.00  0.00     0.010 A 
HETATM   20  C   UNL     1       1.089  27.344  47.218  1.00  0.00     0.152 A 
HETATM   21  N   UNL     1       0.559  28.007  46.187  1.00  0.00    -0.187 NA
HETATM   22  N   UNL     1       1.314  29.112  46.101  1.00  0.00    -0.289 N 
HETATM   23  H   UNL     1       1.103  29.785  45.371  1.00  0.00     0.188 HD
HETATM   24  C   UNL     1       2.291  29.175  47.052  1.00  0.00     0.123 A 
ENDBRANCH  16  19
ENDBRANCH   4  13
BRANCH   1  25
HETATM   25  C   UNL     1       8.250  24.954  53.943  1.00  0.00     0.167 C 
BRANCH  25  26
HETATM   26  C   UNL     1       8.041  23.463  54.038  1.00  0.00    -0.035 A 
HETATM   27  C   UNL     1       8.202  22.622  52.931  1.00  0.00     0.051 A 
HETATM   28  C   UNL     1       8.066  21.244  53.076  1.00  0.00     0.119 A 
HETATM   29  C   UNL     1       7.798  20.667  54.312  1.00  0.00     0.079 A 
HETATM   30  F   UNL     1       8.197  20.458  52.000  1.00  0.00    -0.206 F 
HETATM   31  C   UNL     1       7.669  21.485  55.430  1.00  0.00     0.071 A 
HETATM   32  C   UNL     1       7.778  22.875  55.287  1.00  0.00     0.045 A 
BRANCH  31  33
HETATM   33  O   UNL     1       7.423  21.057  56.706  1.00  0.00    -0.356 OA
HETATM   34  C   UNL     1       8.431  21.360  57.669  1.00  0.00     0.210 C 
ENDBRANCH  31  33
ENDBRANCH  25  26
ENDBRANCH   1  25
BRANCH   9  35
HETATM   35  C   UNL     1       7.687  28.185  57.578  1.00  0.00     0.235 C 
HETATM   36  C   UNL     1       8.943  28.785  56.881  1.00  0.00     0.203 C 
HETATM   37  O   UNL     1       8.764  30.015  57.636  1.00  0.00    -0.387 OA
HETATM   38  C   UNL     1       8.037  29.261  58.646  1.00  0.00     0.203 C 
ENDBRANCH   9  35
TORSDOF 6
ENDMDL
MODEL 3
REMARK VINA RESULT:      -8.9      3.967      9.145
REMARK  6 active torsions:
REMARK  status: ('A' for Active; 'I' for Inactive)
REMARK    1  A    between atoms: O_2  and  C_3 
REMARK    2  A    between atoms: C_8  and  C_9 
REMARK    3  A    between atoms: C_9  and  N_10 
REMARK    4  A    between atoms: N_13  and  C_26 
REMARK    5  A    between atoms: N_18  and  C_22 
REMARK    6  A    between atoms: C_29  and  C_32 
ROOT
HETATM    1  N   UNL     1       5.213  26.953  54.711  1.00  0.00    -0.318 N 
HETATM    2  C   UNL     1       5.147  27.506  56.004  1.00  0.00     0.326 C 
HETATM    3  O   UNL     1       5.011  26.842  57.016  1.00  0.00    -0.247 OA
HETATM    4  N   UNL     1       5.270  28.906  55.863  1.00  0.00    -0.297 N 
HETATM    5  C   UNL     1       5.587  29.234  54.492  1.00  0.00     0.165 C 
HETATM    6  C   UNL     1       5.121  27.991  53.686  1.00  0.00     0.057 C 
HETATM    7  C   UNL     1       6.021  27.722  52.472  1.00  0.00     0.060 C 
HETATM    8  C   UNL     1       5.827  28.738  51.354  1.00  0.00     0.238 C 
HETATM    9  N   UNL     1       4.382  28.855  50.956  1.00  0.00    -0.063 N 
HETATM   10  H   UNL     1       4.302  29.632  50.274  1.00  0.00     0.280 HD
HETATM   11  C   UNL     1       3.467  29.156  52.106  1.00  0.00     0.238 C 
HETATM   12  C   UNL     1       3.647  28.162  53.245  1.00  0.00     0.060 C 
ENDROOT
BRANCH   4  13
HETATM   13  C   UNL     1       5.223  29.861  56.914  1.00  0.00     0.039 A 
HETATM   14  C   UNL     1       4.007  30.342  57.412  1.00  0.00     0.030 A 
HETATM   15  C   UNL     1       3.963  31.316  58.421  1.00  0.00     0.014 A 
HETATM   16  C   UNL     1       5.136  31.842  58.964  1.00  0.00    -0.023 A 
HETATM   17  C   UNL     1       6.356  31.355  58.484  1.00  0.00     0.014 A 
HETATM   18  C   UNL     1       6.398  30.380  57.473  1.00  0.00     0.030 A 
BRANCH  16  19
HETATM   19  C   UNL     1       5.102  32.862  59.999  1.00  0.00     0.010 A 
HETATM   20  C   UNL     1       5.856  33.006  61.187  1.00  0.00     0.152 A 
HETATM   21  N   UNL     1       5.541  34.107  61.874  1.00  0.00    -0.187 NA
HETATM   22  N   UNL     1       4.573  34.672  61.137  1.00  0.00    -0.289 N 
HETATM   23  H   UNL     1       4.160  35.538  61.466  1.00  0.00     0.188 HD
HETATM   24  C   UNL     1       4.280  33.972  60.002  1.00  0.00     0.123 A 
ENDBRANCH  16  19
ENDBRANCH   4  13
BRANCH   1  25
HETATM   25  C   UNL     1       5.055  25.519  54.498  1.00  0.00     0.167 C 
BRANCH  25  26
HETATM   26  C   UNL     1       6.351  24.750  54.582  1.00  0.00    -0.035 A 
HETATM   27  C   UNL     1       7.236  24.909  55.654  1.00  0.00     0.051 A 
HETATM   28  C   UNL     1       8.389  24.132  55.728  1.00  0.00     0.119 A 
HETATM   29  C   UNL     1       8.677  23.168  54.769  1.00  0.00     0.079 A 
HETATM   30  F   UNL     1       9.238  24.317  56.747  1.00  0.00    -0.206 F 
HETATM   31  C   UNL     1       7.790  22.972  53.715  1.00  0.00     0.071 A 
HETATM   32  C   UNL     1       6.642  23.770  53.619  1.00  0.00     0.045 A 
BRANCH  31  33
HETATM   33  O   UNL     1       7.935  22.052  52.713  1.00  0.00    -0.356 OA
HETATM   34  C   UNL     1       7.945  20.685  53.120  1.00  0.00     0.210 C 
ENDBRANCH  31  33
ENDBRANCH  25  26
ENDBRANCH   1  25
BRANCH   9  35
HETATM   35  C   UNL     1       3.920  27.601  50.215  1.00  0.00     0.235 C 
HETATM   36  C   UNL     1       2.878  27.879  49.094  1.00  0.00     0.203 C 
HETATM   37  O   UNL     1       3.962  28.047  48.139  1.00  0.00    -0.387 OA
HETATM   38  C   UNL     1       4.809  27.229  48.993  1.00  0.00     0.203 C 
ENDBRANCH   9  35
TORSDOF 6
ENDMDL
MODEL 4
REMARK VINA RESULT:      -8.7      3.896      6.823
REMARK  6 active torsions:
REMARK  status: ('A' for Active; 'I' for Inactive)
REMARK    1  A    between atoms: O_2  and  C_3 
REMARK    2  A    between atoms: C_8  and  C_9 
REMARK    3  A    between atoms: C_9  and  N_10 
REMARK    4  A    between atoms: N_13  and  C_26 
REMARK    5  A    between atoms: N_18  and  C_22 
REMARK    6  A    between atoms: C_29  and  C_32 
ROOT
HETATM    1  N   UNL     1       4.556  28.605  53.982  1.00  0.00    -0.318 N 
HETATM    2  C   UNL     1       4.862  27.291  53.585  1.00  0.00     0.326 C 
HETATM    3  O   UNL     1       4.290  26.707  52.682  1.00  0.00    -0.247 OA
HETATM    4  N   UNL     1       5.912  26.840  54.415  1.00  0.00    -0.297 N 
HETATM    5  C   UNL     1       6.394  27.932  55.231  1.00  0.00     0.165 C 
HETATM    6  C   UNL     1       5.219  28.946  55.240  1.00  0.00     0.057 C 
HETATM    7  C   UNL     1       5.713  30.399  55.288  1.00  0.00     0.060 C 
HETATM    8  C   UNL     1       6.287  30.785  56.644  1.00  0.00     0.238 C 
HETATM    9  N   UNL     1       5.322  30.493  57.758  1.00  0.00    -0.063 N 
HETATM   10  H   UNL     1       5.808  30.674  58.657  1.00  0.00     0.280 HD
HETATM   11  C   UNL     1       4.840  29.072  57.777  1.00  0.00     0.238 C 
HETATM   12  C   UNL     1       4.270  28.654  56.428  1.00  0.00     0.060 C 
ENDROOT
BRANCH   4  13
HETATM   13  C   UNL     1       6.513  25.553  54.383  1.00  0.00     0.039 A 
HETATM   14  C   UNL     1       7.044  25.022  53.202  1.00  0.00     0.030 A 
HETATM   15  C   UNL     1       7.599  23.734  53.163  1.00  0.00     0.014 A 
HETATM   16  C   UNL     1       7.640  22.933  54.305  1.00  0.00    -0.023 A 
HETATM   17  C   UNL     1       7.127  23.462  55.494  1.00  0.00     0.014 A 
HETATM   18  C   UNL     1       6.571  24.752  55.532  1.00  0.00     0.030 A 
BRANCH  16  19
HETATM   19  C   UNL     1       8.199  21.592  54.272  1.00  0.00     0.010 A 
HETATM   20  C   UNL     1       8.521  20.746  53.185  1.00  0.00     0.152 A 
HETATM   21  N   UNL     1       9.044  19.580  53.570  1.00  0.00    -0.187 NA
HETATM   22  N   UNL     1       9.050  19.664  54.909  1.00  0.00    -0.289 N 
HETATM   23  H   UNL     1       9.406  18.876  55.440  1.00  0.00     0.188 HD
HETATM   24  C   UNL     1       8.564  20.850  55.378  1.00  0.00     0.123 A 
ENDBRANCH  16  19
ENDBRANCH   4  13
BRANCH   1  25
HETATM   25  C   UNL     1       3.462  29.343  53.360  1.00  0.00     0.167 C 
BRANCH  25  26
HETATM   26  C   UNL     1       3.658  29.578  51.883  1.00  0.00    -0.035 A 
HETATM   27  C   UNL     1       4.880  30.017  51.359  1.00  0.00     0.051 A 
HETATM   28  C   UNL     1       5.039  30.158  49.983  1.00  0.00     0.119 A 
HETATM   29  C   UNL     1       4.014  29.843  49.098  1.00  0.00     0.079 A 
HETATM   30  F   UNL     1       6.207  30.604  49.503  1.00  0.00    -0.206 F 
HETATM   31  C   UNL     1       2.805  29.372  49.599  1.00  0.00     0.071 A 
HETATM   32  C   UNL     1       2.628  29.255  50.984  1.00  0.00     0.045 A 
BRANCH  31  33
HETATM   33  O   UNL     1       1.720  29.010  48.849  1.00  0.00    -0.356 OA
HETATM   34  C   UNL     1       1.697  27.656  48.401  1.00  0.00     0.210 C 
ENDBRANCH  31  33
ENDBRANCH  25  26
ENDBRANCH   1  25
BRANCH   9  35
HETATM   35  C   UNL     1       4.141  31.460  57.722  1.00  0.00     0.235 C 
HETATM   36  C   UNL     1       3.574  31.818  59.126  1.00  0.00     0.203 C 
HETATM   37  O   UNL     1       4.495  32.940  59.204  1.00  0.00    -0.387 OA
HETATM   38  C   UNL     1       4.555  32.960  57.750  1.00  0.00     0.203 C 
ENDBRANCH   9  35
TORSDOF 6
ENDMDL
MODEL 5
REMARK VINA RESULT:      -8.7      4.465      6.470
REMARK  6 active torsions:
REMARK  status: ('A' for Active; 'I' for Inactive)
REMARK    1  A    between atoms: O_2  and  C_3 
REMARK    2  A    between atoms: C_8  and  C_9 
REMARK    3  A    between atoms: C_9  and  N_10 
REMARK    4  A    between atoms: N_13  and  C_26 
REMARK    5  A    between atoms: N_18  and  C_22 
REMARK    6  A    between atoms: C_29  and  C_32 
ROOT
HETATM    1  N   UNL     1       5.165  29.003  52.385  1.00  0.00    -0.318 N 
HETATM    2  C   UNL     1       5.952  28.082  53.101  1.00  0.00     0.326 C 
HETATM    3  O   UNL     1       6.657  28.387  54.046  1.00  0.00    -0.247 OA
HETATM    4  N   UNL     1       5.745  26.814  52.513  1.00  0.00    -0.297 N 
HETATM    5  C   UNL     1       4.691  26.898  51.527  1.00  0.00     0.165 C 
HETATM    6  C   UNL     1       4.632  28.406  51.162  1.00  0.00     0.057 C 
HETATM    7  C   UNL     1       3.202  28.865  50.839  1.00  0.00     0.060 C 
HETATM    8  C   UNL     1       2.700  28.341  49.501  1.00  0.00     0.238 C 
HETATM    9  N   UNL     1       3.651  28.670  48.385  1.00  0.00    -0.063 N 
HETATM   10  H   UNL     1       3.311  28.197  47.526  1.00  0.00     0.280 HD
HETATM   11  C   UNL     1       5.055  28.206  48.637  1.00  0.00     0.238 C 
HETATM   12  C   UNL     1       5.581  28.706  49.977  1.00  0.00     0.060 C 
ENDROOT
BRANCH   4  13
HETATM   13  C   UNL     1       6.369  25.598  52.900  1.00  0.00     0.039 A 
HETATM   14  C   UNL     1       7.267  24.935  52.056  1.00  0.00     0.030 A 
HETATM   15  C   UNL     1       7.851  23.713  52.423  1.00  0.00     0.014 A 
HETATM   16  C   UNL     1       7.554  23.113  53.648  1.00  0.00    -0.023 A 
HETATM   17  C   UNL     1       6.671  23.778  54.505  1.00  0.00     0.014 A 
HETATM   18  C   UNL     1       6.087  25.001  54.136  1.00  0.00     0.030 A 
BRANCH  16  19
HETATM   19  C   UNL     1       8.142  21.841  54.031  1.00  0.00     0.010 A 
HETATM   20  C   UNL     1       8.398  20.671  53.277  1.00  0.00     0.152 A 
HETATM   21  N   UNL     1       8.978  19.706  53.995  1.00  0.00    -0.187 NA
HETATM   22  N   UNL     1       9.088  20.246  55.218  1.00  0.00    -0.289 N 
HETATM   23  H   UNL     1       9.504  19.687  55.956  1.00  0.00     0.188 HD
HETATM   24  C   UNL     1       8.610  21.523  55.290  1.00  0.00     0.123 A 
ENDBRANCH  16  19
ENDBRANCH   4  13
BRANCH   1  25
HETATM   25  C   UNL     1       5.199  30.426  52.703  1.00  0.00     0.167 C 
BRANCH  25  26
HETATM   26  C   UNL     1       4.115  30.856  53.660  1.00  0.00    -0.035 A 
HETATM   27  C   UNL     1       4.067  30.392  54.980  1.00  0.00     0.051 A 
HETATM   28  C   UNL     1       3.090  30.865  55.851  1.00  0.00     0.119 A 
HETATM   29  C   UNL     1       2.162  31.820  55.451  1.00  0.00     0.079 A 
HETATM   30  F   UNL     1       3.044  30.389  57.102  1.00  0.00    -0.206 F 
HETATM   31  C   UNL     1       2.217  32.319  54.153  1.00  0.00     0.071 A 
HETATM   32  C   UNL     1       3.180  31.827  53.263  1.00  0.00     0.045 A 
BRANCH  31  33
HETATM   33  O   UNL     1       1.383  33.269  53.630  1.00  0.00    -0.356 OA
HETATM   34  C   UNL     1       1.430  33.426  52.214  1.00  0.00     0.210 C 
ENDBRANCH  31  33
ENDBRANCH  25  26
ENDBRANCH   1  25
BRANCH   9  35
HETATM   35  C   UNL     1       3.627  30.165  48.073  1.00  0.00     0.235 C 
HETATM   36  C   UNL     1       4.112  30.519  46.638  1.00  0.00     0.203 C 
HETATM   37  O   UNL     1       2.746  30.393  46.154  1.00  0.00    -0.387 OA
HETATM   38  C   UNL     1       2.269  30.666  47.501  1.00  0.00     0.203 C 
ENDBRANCH   9  35
TORSDOF 6
ENDMDL
MODEL 6
REMARK VINA RESULT:      -8.7      6.255     11.693
REMARK  6 active torsions:
REMARK  status: ('A' for Active; 'I' for Inactive)
REMARK    1  A    between atoms: O_2  and  C_3 
REMARK    2  A    between atoms: C_8  and  C_9 
REMARK    3  A    between atoms: C_9  and  N_10 
REMARK    4  A    between atoms: N_13  and  C_26 
REMARK    5  A    between atoms: N_18  and  C_22 
REMARK    6  A    between atoms: C_29  and  C_32 
ROOT
HETATM    1  N   UNL     1       5.070  33.961  62.538  1.00  0.00    -0.318 N 
HETATM    2  C   UNL     1       5.205  33.365  63.806  1.00  0.00     0.326 C 
HETATM    3  O   UNL     1       5.109  32.166  64.002  1.00  0.00    -0.247 OA
HETATM    4  N   UNL     1       5.462  34.403  64.728  1.00  0.00    -0.297 N 
HETATM    5  C   UNL     1       5.662  35.647  64.020  1.00  0.00     0.165 C 
HETATM    6  C   UNL     1       4.980  35.417  62.645  1.00  0.00     0.057 C 
HETATM    7  C   UNL     1       5.708  36.152  61.511  1.00  0.00     0.060 C 
HETATM    8  C   UNL     1       5.504  37.660  61.556  1.00  0.00     0.238 C 
HETATM    9  N   UNL     1       4.046  38.021  61.602  1.00  0.00    -0.063 N 
HETATM   10  H   UNL     1       3.976  39.047  61.741  1.00  0.00     0.280 HD
HETATM   11  C   UNL     1       3.299  37.356  62.720  1.00  0.00     0.238 C 
HETATM   12  C   UNL     1       3.494  35.846  62.708  1.00  0.00     0.060 C 
ENDROOT
BRANCH   4  13
HETATM   13  C   UNL     1       5.634  34.255  66.131  1.00  0.00     0.039 A 
HETATM   14  C   UNL     1       4.543  34.056  66.985  1.00  0.00     0.030 A 
HETATM   15  C   UNL     1       4.710  33.951  68.374  1.00  0.00     0.014 A 
HETATM   16  C   UNL     1       5.976  34.044  68.955  1.00  0.00    -0.023 A 
HETATM   17  C   UNL     1       7.073  34.226  68.108  1.00  0.00     0.014 A 
HETATM   18  C   UNL     1       6.905  34.331  66.717  1.00  0.00     0.030 A 
BRANCH  16  19
HETATM   19  C   UNL     1       6.158  33.952  70.394  1.00  0.00     0.010 A 
HETATM   20  C   UNL     1       5.904  34.888  71.424  1.00  0.00     0.152 A 
HETATM   21  N   UNL     1       6.186  34.413  72.640  1.00  0.00    -0.187 NA
HETATM   22  N   UNL     1       6.635  33.173  72.397  1.00  0.00    -0.289 N 
HETATM   23  H   UNL     1       6.924  32.602  73.185  1.00  0.00     0.188 HD
HETATM   24  C   UNL     1       6.630  32.846  71.071  1.00  0.00     0.123 A 
ENDBRANCH  16  19
ENDBRANCH   4  13
BRANCH   1  25
HETATM   25  C   UNL     1       4.735  33.164  61.364  1.00  0.00     0.167 C 
BRANCH  25  26
HETATM   26  C   UNL     1       5.942  32.673  60.604  1.00  0.00    -0.035 A 
HETATM   27  C   UNL     1       7.237  32.779  61.126  1.00  0.00     0.051 A 
HETATM   28  C   UNL     1       8.317  32.253  60.423  1.00  0.00     0.119 A 
HETATM   29  C   UNL     1       8.142  31.590  59.213  1.00  0.00     0.079 A 
HETATM   30  F   UNL     1       9.552  32.388  60.925  1.00  0.00    -0.206 F 
HETATM   31  C   UNL     1       6.859  31.444  58.697  1.00  0.00     0.071 A 
HETATM   32  C   UNL     1       5.770  31.996  59.386  1.00  0.00     0.045 A 
BRANCH  31  33
HETATM   33  O   UNL     1       6.537  30.805  57.532  1.00  0.00    -0.356 OA
HETATM   34  C   UNL     1       7.093  29.502  57.364  1.00  0.00     0.210 C 
ENDBRANCH  31  33
ENDBRANCH  25  26
ENDBRANCH   1  25
BRANCH   9  35
HETATM   35  C   UNL     1       3.373  37.735  60.261  1.00  0.00     0.235 C 
HETATM   36  C   UNL     1       2.304  38.790  59.854  1.00  0.00     0.203 C 
HETATM   37  O   UNL     1       3.334  39.560  59.175  1.00  0.00    -0.387 OA
HETATM   38  C   UNL     1       4.120  38.343  59.040  1.00  0.00     0.203 C 
ENDBRANCH   9  35
TORSDOF 6
ENDMDL
MODEL 7
REMARK VINA RESULT:      -8.4      4.738      6.496
REMARK  6 active torsions:
REMARK  status: ('A' for Active; 'I' for Inactive)
REMARK    1  A    between atoms: O_2  and  C_3 
REMARK    2  A    between atoms: C_8  and  C_9 
REMARK    3  A    between atoms: C_9  and  N_10 
REMARK    4  A    between atoms: N_13  and  C_26 
REMARK    5  A    between atoms: N_18  and  C_22 
REMARK    6  A    between atoms: C_29  and  C_32 
ROOT
HETATM    1  N   UNL     1       5.026  29.159  52.044  1.00  0.00    -0.318 N 
HETATM    2  C   UNL     1       5.816  28.235  52.752  1.00  0.00     0.326 C 
HETATM    3  O   UNL     1       6.568  28.545  53.659  1.00  0.00    -0.247 OA
HETATM    4  N   UNL     1       5.550  26.959  52.208  1.00  0.00    -0.297 N 
HETATM    5  C   UNL     1       4.458  27.047  51.265  1.00  0.00     0.165 C 
HETATM    6  C   UNL     1       4.426  28.545  50.860  1.00  0.00     0.057 C 
HETATM    7  C   UNL     1       2.998  29.036  50.583  1.00  0.00     0.060 C 
HETATM    8  C   UNL     1       2.427  28.491  49.281  1.00  0.00     0.238 C 
HETATM    9  N   UNL     1       3.339  28.763  48.118  1.00  0.00    -0.063 N 
HETATM   10  H   UNL     1       2.951  28.277  47.288  1.00  0.00     0.280 HD
HETATM   11  C   UNL     1       4.739  28.266  48.327  1.00  0.00     0.238 C 
HETATM   12  C   UNL     1       5.334  28.786  49.629  1.00  0.00     0.060 C 
ENDROOT
BRANCH   4  13
HETATM   13  C   UNL     1       6.156  25.736  52.604  1.00  0.00     0.039 A 
HETATM   14  C   UNL     1       5.733  25.045  53.745  1.00  0.00     0.030 A 
HETATM   15  C   UNL     1       6.360  23.860  54.157  1.00  0.00     0.014 A 
HETATM   16  C   UNL     1       7.433  23.327  53.441  1.00  0.00    -0.023 A 
HETATM   17  C   UNL     1       7.851  24.001  52.290  1.00  0.00     0.014 A 
HETATM   18  C   UNL     1       7.222  25.189  51.878  1.00  0.00     0.030 A 
BRANCH  16  19
HETATM   19  C   UNL     1       8.099  22.108  53.868  1.00  0.00     0.010 A 
HETATM   20  C   UNL     1       8.131  20.815  53.292  1.00  0.00     0.152 A 
HETATM   21  N   UNL     1       8.885  19.956  53.983  1.00  0.00    -0.187 NA
HETATM   22  N   UNL     1       9.333  20.689  55.014  1.00  0.00    -0.289 N 
HETATM   23  H   UNL     1       9.936  20.242  55.696  1.00  0.00     0.188 HD
HETATM   24  C   UNL     1       8.899  21.983  54.987  1.00  0.00     0.123 A 
ENDBRANCH  16  19
ENDBRANCH   4  13
BRANCH   1  25
HETATM   25  C   UNL     1       5.112  30.589  52.319  1.00  0.00     0.167 C 
BRANCH  25  26
HETATM   26  C   UNL     1       4.142  31.059  53.374  1.00  0.00    -0.035 A 
HETATM   27  C   UNL     1       3.148  32.005  53.096  1.00  0.00     0.051 A 
HETATM   28  C   UNL     1       2.230  32.362  54.079  1.00  0.00     0.119 A 
HETATM   29  C   UNL     1       2.253  31.778  55.340  1.00  0.00     0.079 A 
HETATM   30  F   UNL     1       1.304  33.289  53.802  1.00  0.00    -0.206 F 
HETATM   31  C   UNL     1       3.211  30.810  55.623  1.00  0.00     0.071 A 
HETATM   32  C   UNL     1       4.156  30.465  54.647  1.00  0.00     0.045 A 
BRANCH  31  33
HETATM   33  O   UNL     1       3.342  30.142  56.810  1.00  0.00    -0.356 OA
HETATM   34  C   UNL     1       3.515  30.958  57.967  1.00  0.00     0.210 C 
ENDBRANCH  31  33
ENDBRANCH  25  26
ENDBRANCH   1  25
BRANCH   9  35
HETATM   35  C   UNL     1       3.343  30.249  47.767  1.00  0.00     0.235 C 
HETATM   36  C   UNL     1       3.465  30.537  46.242  1.00  0.00     0.203 C 
HETATM   37  O   UNL     1       2.016  30.512  46.130  1.00  0.00    -0.387 OA
HETATM   38  C   UNL     1       1.924  30.847  47.543  1.00  0.00     0.203 C 
ENDBRANCH   9  35
TORSDOF 6
ENDMDL
MODEL 8
REMARK VINA RESULT:      -8.2      4.754      8.807
REMARK  6 active torsions:
REMARK  status: ('A' for Active; 'I' for Inactive)
REMARK    1  A    between atoms: O_2  and  C_3 
REMARK    2  A    between atoms: C_8  and  C_9 
REMARK    3  A    between atoms: C_9  and  N_10 
REMARK    4  A    between atoms: N_13  and  C_26 
REMARK    5  A    between atoms: N_18  and  C_22 
REMARK    6  A    between atoms: C_29  and  C_32 
ROOT
HETATM    1  N   UNL     1       4.978  27.623  54.365  1.00  0.00    -0.318 N 
HETATM    2  C   UNL     1       4.127  28.355  53.518  1.00  0.00     0.326 C 
HETATM    3  O   UNL     1       3.225  29.070  53.919  1.00  0.00    -0.247 OA
HETATM    4  N   UNL     1       4.534  28.091  52.191  1.00  0.00    -0.297 N 
HETATM    5  C   UNL     1       5.758  27.323  52.199  1.00  0.00     0.165 C 
HETATM    6  C   UNL     1       5.788  26.670  53.607  1.00  0.00     0.057 C 
HETATM    7  C   UNL     1       7.219  26.530  54.147  1.00  0.00     0.060 C 
HETATM    8  C   UNL     1       8.016  25.446  53.435  1.00  0.00     0.238 C 
HETATM    9  N   UNL     1       7.292  24.129  53.442  1.00  0.00    -0.063 N 
HETATM   10  H   UNL     1       7.830  23.466  52.854  1.00  0.00     0.280 HD
HETATM   11  C   UNL     1       5.900  24.208  52.887  1.00  0.00     0.238 C 
HETATM   12  C   UNL     1       5.081  25.294  53.573  1.00  0.00     0.060 C 
ENDROOT
BRANCH   4  13
HETATM   13  C   UNL     1       3.928  28.600  51.011  1.00  0.00     0.039 A 
HETATM   14  C   UNL     1       2.537  28.656  50.868  1.00  0.00     0.030 A 
HETATM   15  C   UNL     1       1.940  29.120  49.687  1.00  0.00     0.014 A 
HETATM   16  C   UNL     1       2.716  29.542  48.606  1.00  0.00    -0.023 A 
HETATM   17  C   UNL     1       4.107  29.505  48.746  1.00  0.00     0.014 A 
HETATM   18  C   UNL     1       4.704  29.040  49.930  1.00  0.00     0.030 A 
BRANCH  16  19
HETATM   19  C   UNL     1       2.108  30.009  47.372  1.00  0.00     0.010 A 
HETATM   20  C   UNL     1       0.754  30.066  46.966  1.00  0.00     0.152 A 
HETATM   21  N   UNL     1       0.597  30.590  45.748  1.00  0.00    -0.187 NA
HETATM   22  N   UNL     1       1.851  30.862  45.358  1.00  0.00    -0.289 N 
HETATM   23  H   UNL     1       1.992  31.272  44.441  1.00  0.00     0.188 HD
HETATM   24  C   UNL     1       2.790  30.542  46.296  1.00  0.00     0.123 A 
ENDBRANCH  16  19
ENDBRANCH   4  13
BRANCH   1  25
HETATM   25  C   UNL     1       4.784  27.627  55.811  1.00  0.00     0.167 C 
BRANCH  25  26
HETATM   26  C   UNL     1       5.535  28.729  56.517  1.00  0.00    -0.035 A 
HETATM   27  C   UNL     1       4.943  29.968  56.789  1.00  0.00     0.051 A 
HETATM   28  C   UNL     1       5.647  30.935  57.502  1.00  0.00     0.119 A 
HETATM   29  C   UNL     1       6.929  30.692  57.983  1.00  0.00     0.079 A 
HETATM   30  F   UNL     1       5.075  32.124  57.730  1.00  0.00    -0.206 F 
HETATM   31  C   UNL     1       7.518  29.453  57.752  1.00  0.00     0.071 A 
HETATM   32  C   UNL     1       6.827  28.486  57.011  1.00  0.00     0.045 A 
BRANCH  31  33
HETATM   33  O   UNL     1       8.761  29.071  58.178  1.00  0.00    -0.356 OA
HETATM   34  C   UNL     1       9.860  29.577  57.422  1.00  0.00     0.210 C 
ENDBRANCH  31  33
ENDBRANCH  25  26
ENDBRANCH   1  25
BRANCH   9  35
HETATM   35  C   UNL     1       7.277  23.525  54.845  1.00  0.00     0.235 C 
HETATM   36  C   UNL     1       7.654  22.016  54.887  1.00  0.00     0.203 C 
HETATM   37  O   UNL     1       9.053  22.378  55.054  1.00  0.00    -0.387 OA
HETATM   38  C   UNL     1       8.631  23.658  55.601  1.00  0.00     0.203 C 
ENDBRANCH   9  35
TORSDOF 6
ENDMDL
MODEL 9
REMARK VINA RESULT:      -8.2      4.524      8.369
REMARK  6 active torsions:
REMARK  status: ('A' for Active; 'I' for Inactive)
REMARK    1  A    between atoms: O_2  and  C_3 
REMARK    2  A    between atoms: C_8  and  C_9 
REMARK    3  A    between atoms: C_9  and  N_10 
REMARK    4  A    between atoms: N_13  and  C_26 
REMARK    5  A    between atoms: N_18  and  C_22 
REMARK    6  A    between atoms: C_29  and  C_32 
ROOT
HETATM    1  N   UNL     1       5.421  27.336  54.657  1.00  0.00    -0.318 N 
HETATM    2  C   UNL     1       4.799  28.144  53.688  1.00  0.00     0.326 C 
HETATM    3  O   UNL     1       3.913  28.941  53.940  1.00  0.00    -0.247 OA
HETATM    4  N   UNL     1       5.401  27.841  52.446  1.00  0.00    -0.297 N 
HETATM    5  C   UNL     1       6.528  26.960  52.651  1.00  0.00     0.165 C 
HETATM    6  C   UNL     1       6.256  26.310  54.035  1.00  0.00     0.057 C 
HETATM    7  C   UNL     1       7.554  26.036  54.808  1.00  0.00     0.060 C 
HETATM    8  C   UNL     1       8.356  24.880  54.227  1.00  0.00     0.238 C 
HETATM    9  N   UNL     1       7.521  23.638  54.092  1.00  0.00    -0.063 N 
HETATM   10  H   UNL     1       8.088  22.926  53.594  1.00  0.00     0.280 HD
HETATM   11  C   UNL     1       6.258  23.847  53.309  1.00  0.00     0.238 C 
HETATM   12  C   UNL     1       5.439  25.006  53.861  1.00  0.00     0.060 C 
ENDROOT
BRANCH   4  13
HETATM   13  C   UNL     1       5.055  28.402  51.187  1.00  0.00     0.039 A 
HETATM   14  C   UNL     1       5.333  29.739  50.881  1.00  0.00     0.030 A 
HETATM   15  C   UNL     1       4.955  30.303  49.654  1.00  0.00     0.014 A 
HETATM   16  C   UNL     1       4.282  29.547  48.692  1.00  0.00    -0.023 A 
HETATM   17  C   UNL     1       4.015  28.206  48.983  1.00  0.00     0.014 A 
HETATM   18  C   UNL     1       4.395  27.642  50.213  1.00  0.00     0.030 A 
BRANCH  16  19
HETATM   19  C   UNL     1       3.872  30.126  47.424  1.00  0.00     0.010 A 
HETATM   20  C   UNL     1       4.596  30.876  46.466  1.00  0.00     0.152 A 
HETATM   21  N   UNL     1       3.859  31.213  45.405  1.00  0.00    -0.187 NA
HETATM   22  N   UNL     1       2.654  30.693  45.679  1.00  0.00    -0.289 N 
HETATM   23  H   UNL     1       1.907  30.826  45.005  1.00  0.00     0.188 HD
HETATM   24  C   UNL     1       2.611  30.025  46.869  1.00  0.00     0.123 A 
ENDBRANCH  16  19
ENDBRANCH   4  13
BRANCH   1  25
HETATM   25  C   UNL     1       4.984  27.361  56.049  1.00  0.00     0.167 C 
BRANCH  25  26
HETATM   26  C   UNL     1       5.622  28.460  56.861  1.00  0.00    -0.035 A 
HETATM   27  C   UNL     1       6.954  28.386  57.289  1.00  0.00     0.051 A 
HETATM   28  C   UNL     1       7.525  29.451  57.979  1.00  0.00     0.119 A 
HETATM   29  C   UNL     1       6.810  30.616  58.236  1.00  0.00     0.079 A 
HETATM   30  F   UNL     1       8.791  29.351  58.403  1.00  0.00    -0.206 F 
HETATM   31  C   UNL     1       5.498  30.721  57.787  1.00  0.00     0.071 A 
HETATM   32  C   UNL     1       4.907  29.642  57.116  1.00  0.00     0.045 A 
BRANCH  31  33
HETATM   33  O   UNL     1       4.685  31.809  57.953  1.00  0.00    -0.356 OA
HETATM   34  C   UNL     1       5.214  32.865  58.752  1.00  0.00     0.210 C 
ENDBRANCH  31  33
ENDBRANCH  25  26
ENDBRANCH   1  25
BRANCH   9  35
HETATM   35  C   UNL     1       7.211  23.040  55.463  1.00  0.00     0.235 C 
HETATM   36  C   UNL     1       7.503  21.515  55.568  1.00  0.00     0.203 C 
HETATM   37  O   UNL     1       8.859  21.813  56.001  1.00  0.00    -0.387 OA
HETATM   38  C   UNL     1       8.400  23.113  56.464  1.00  0.00     0.203 C 
ENDBRANCH   9  35
TORSDOF 6
ENDMDL
MODEL 10
REMARK VINA RESULT:      -8.2      5.071      9.086
REMARK  6 active torsions:
REMARK  status: ('A' for Active; 'I' for Inactive)
REMARK    1  A    between atoms: O_2  and  C_3 
REMARK    2  A    between atoms: C_8  and  C_9 
REMARK    3  A    between atoms: C_9  and  N_10 
REMARK    4  A    between atoms: N_13  and  C_26 
REMARK    5  A    between atoms: N_18  and  C_22 
REMARK    6  A    between atoms: C_29  and  C_32 
ROOT
HETATM    1  N   UNL     1       4.753  35.466  61.919  1.00  0.00    -0.318 N 
HETATM    2  C   UNL     1       4.441  34.829  60.704  1.00  0.00     0.326 C 
HETATM    3  O   UNL     1       3.783  35.347  59.819  1.00  0.00    -0.247 OA
HETATM    4  N   UNL     1       5.028  33.545  60.745  1.00  0.00    -0.297 N 
HETATM    5  C   UNL     1       5.862  33.426  61.919  1.00  0.00     0.165 C 
HETATM    6  C   UNL     1       5.327  34.523  62.878  1.00  0.00     0.057 C 
HETATM    7  C   UNL     1       6.447  35.136  63.732  1.00  0.00     0.060 C 
HETATM    8  C   UNL     1       6.952  34.191  64.813  1.00  0.00     0.238 C 
HETATM    9  N   UNL     1       5.829  33.672  65.665  1.00  0.00    -0.063 N 
HETATM   10  H   UNL     1       6.220  32.956  66.306  1.00  0.00     0.280 HD
HETATM   11  C   UNL     1       4.727  33.027  64.877  1.00  0.00     0.238 C 
HETATM   12  C   UNL     1       4.208  33.947  63.779  1.00  0.00     0.060 C 
ENDROOT
BRANCH   4  13
HETATM   13  C   UNL     1       4.936  32.548  59.736  1.00  0.00     0.039 A 
HETATM   14  C   UNL     1       3.717  31.935  59.422  1.00  0.00     0.030 A 
HETATM   15  C   UNL     1       3.636  30.922  58.455  1.00  0.00     0.014 A 
HETATM   16  C   UNL     1       4.772  30.488  57.770  1.00  0.00    -0.023 A 
HETATM   17  C   UNL     1       5.990  31.107  58.066  1.00  0.00     0.014 A 
HETATM   18  C   UNL     1       6.071  32.121  59.035  1.00  0.00     0.030 A 
BRANCH  16  19
HETATM   19  C   UNL     1       4.701  29.428  56.778  1.00  0.00     0.010 A 
HETATM   20  C   UNL     1       5.415  28.212  56.665  1.00  0.00     0.152 A 
HETATM   21  N   UNL     1       5.041  27.486  55.608  1.00  0.00    -0.187 NA
HETATM   22  N   UNL     1       4.093  28.237  55.028  1.00  0.00    -0.289 N 
HETATM   23  H   UNL     1       3.652  27.890  54.183  1.00  0.00     0.188 HD
HETATM   24  C   UNL     1       3.846  29.404  55.693  1.00  0.00     0.123 A 
ENDBRANCH  16  19
ENDBRANCH   4  13
BRANCH   1  25
HETATM   25  C   UNL     1       4.240  36.796  62.224  1.00  0.00     0.167 C 
BRANCH  25  26
HETATM   26  C   UNL     1       5.255  37.894  62.025  1.00  0.00    -0.035 A 
HETATM   27  C   UNL     1       5.975  38.438  63.096  1.00  0.00     0.051 A 
HETATM   28  C   UNL     1       6.951  39.403  62.862  1.00  0.00     0.119 A 
HETATM   29  C   UNL     1       7.256  39.828  61.574  1.00  0.00     0.079 A 
HETATM   30  F   UNL     1       7.610  39.930  63.901  1.00  0.00    -0.206 F 
HETATM   31  C   UNL     1       6.575  39.273  60.495  1.00  0.00     0.071 A 
HETATM   32  C   UNL     1       5.572  38.322  60.726  1.00  0.00     0.045 A 
BRANCH  31  33
HETATM   33  O   UNL     1       6.782  39.583  59.179  1.00  0.00    -0.356 OA
HETATM   34  C   UNL     1       5.656  40.111  58.481  1.00  0.00     0.210 C 
ENDBRANCH  31  33
ENDBRANCH  25  26
ENDBRANCH   1  25
BRANCH   9  35
HETATM   35  C   UNL     1       5.273  34.776  66.563  1.00  0.00     0.235 C 
HETATM   36  C   UNL     1       3.956  34.390  67.296  1.00  0.00     0.203 C 
HETATM   37  O   UNL     1       4.736  33.874  68.409  1.00  0.00    -0.387 OA
HETATM   38  C   UNL     1       5.831  34.747  68.015  1.00  0.00     0.203 C 
ENDBRANCH   9  35
TORSDOF 6
ENDMDL
