MODEL 1
REMARK VINA RESULT:      -9.3      0.000      0.000
REMARK  5 active torsions:
REMARK  status: ('A' for Active; 'I' for Inactive)
REMARK    1  A    between atoms: C_2  and  O_3 
REMARK    2  A    between atoms: C_2  and  C_4 
REMARK    3  A    between atoms: C_4  and  N_5 
REMARK       I    between atoms: N_5  and  C_6 
REMARK    4  A    between atoms: C_6  and  C_7 
REMARK    5  A    between atoms: C_15  and  C_16 
ROOT
HETATM    1  C   UNL     1       7.740  24.993  55.749  1.00  0.00     0.046 A 
HETATM    2  C   UNL     1       6.774  25.295  54.764  1.00  0.00     0.008 A 
HETATM    3  C   UNL     1       6.423  26.651  54.643  1.00  0.00     0.068 A 
HETATM    4  C   UNL     1       5.487  27.020  53.685  1.00  0.00     0.032 A 
HETATM    5  C   UNL     1       4.886  26.087  52.838  1.00  0.00     0.002 A 
HETATM    6  C   UNL     1       5.227  24.746  52.944  1.00  0.00     0.001 A 
HETATM    7  C   UNL     1       6.164  24.351  53.897  1.00  0.00     0.015 A 
HETATM    8  N   UNL     1       6.956  27.617  55.410  1.00  0.00    -0.248 NA
HETATM    9  C   UNL     1       7.861  27.305  56.369  1.00  0.00     0.068 A 
HETATM   10  C   UNL     1       8.278  25.998  56.559  1.00  0.00     0.050 A 
ENDROOT
BRANCH   1  11
HETATM   11  C   UNL     1       8.207  23.605  55.985  1.00  0.00     0.252 C 
HETATM   12  N   UNL     1       8.865  23.022  54.924  1.00  0.00    -0.354 N 
HETATM   13  H   UNL     1       8.887  23.488  54.026  1.00  0.00     0.162 HD
HETATM   14  O   UNL     1       8.003  23.044  57.053  1.00  0.00    -0.268 OA
BRANCH  12  15
HETATM   15  C   UNL     1       9.389  21.670  55.004  1.00  0.00     0.154 C 
BRANCH  15  16
HETATM   16  C   UNL     1       8.399  20.582  54.559  1.00  0.00     0.132 C 
HETATM   17  C   UNL     1       7.938  20.773  53.120  1.00  0.00     0.041 C 
BRANCH  16  18
HETATM   18  O   UNL     1       9.048  19.312  54.656  1.00  0.00    -0.394 OA
HETATM   19  H   UNL     1       8.901  18.850  53.812  1.00  0.00     0.210 HD
ENDBRANCH  16  18
ENDBRANCH  15  16
ENDBRANCH  12  15
ENDBRANCH   1  11
BRANCH   9  20
HETATM   20  C   UNL     1       8.370  28.443  57.165  1.00  0.00    -0.007 A 
HETATM   21  C   UNL     1       9.638  29.013  56.939  1.00  0.00     0.015 A 
HETATM   22  C   UNL     1      10.097  30.097  57.698  1.00  0.00     0.024 A 
HETATM   23  C   UNL     1       9.295  30.628  58.704  1.00  0.00     0.034 A 
HETATM   24 CL   UNL     1       9.859  31.960  59.634  1.00  0.00    -0.084 Cl
HETATM   25  C   UNL     1       8.044  30.081  58.961  1.00  0.00     0.024 A 
HETATM   26  C   UNL     1       7.590  28.999  58.199  1.00  0.00     0.015 A 
ENDBRANCH   9  20
TORSDOF 5
ENDMDL
MODEL 2
REMARK VINA RESULT:      -9.0      3.969      7.410
REMARK  5 active torsions:
REMARK  status: ('A' for Active; 'I' for Inactive)
REMARK    1  A    between atoms: C_2  and  O_3 
REMARK    2  A    between atoms: C_2  and  C_4 
REMARK    3  A    between atoms: C_4  and  N_5 
REMARK       I    between atoms: N_5  and  C_6 
REMARK    4  A    between atoms: C_6  and  C_7 
REMARK    5  A    between atoms: C_15  and  C_16 
ROOT
HETATM    1  C   UNL     1       7.346  27.799  56.331  1.00  0.00     0.046 A 
HETATM    2  C   UNL     1       6.249  28.463  55.738  1.00  0.00     0.008 A 
HETATM    3  C   UNL     1       5.565  27.748  54.739  1.00  0.00     0.068 A 
HETATM    4  C   UNL     1       4.469  28.338  54.122  1.00  0.00     0.032 A 
HETATM    5  C   UNL     1       4.026  29.616  54.464  1.00  0.00     0.002 A 
HETATM    6  C   UNL     1       4.689  30.331  55.450  1.00  0.00     0.001 A 
HETATM    7  C   UNL     1       5.791  29.760  56.086  1.00  0.00     0.015 A 
HETATM    8  N   UNL     1       5.918  26.510  54.353  1.00  0.00    -0.248 NA
HETATM    9  C   UNL     1       6.990  25.900  54.914  1.00  0.00     0.068 A 
HETATM   10  C   UNL     1       7.722  26.518  55.913  1.00  0.00     0.050 A 
ENDROOT
BRANCH   1  11
HETATM   11  C   UNL     1       8.156  28.432  57.401  1.00  0.00     0.252 C 
HETATM   12  N   UNL     1       9.156  29.270  56.957  1.00  0.00    -0.354 N 
HETATM   13  H   UNL     1       9.375  29.316  55.970  1.00  0.00     0.162 HD
HETATM   14  O   UNL     1       7.931  28.203  58.581  1.00  0.00    -0.268 OA
BRANCH  12  15
HETATM   15  C   UNL     1      10.029  29.970  57.883  1.00  0.00     0.154 C 
BRANCH  15  16
HETATM   16  C   UNL     1       9.379  31.179  58.573  1.00  0.00     0.132 C 
HETATM   17  C   UNL     1       9.187  30.958  60.068  1.00  0.00     0.041 C 
BRANCH  16  18
HETATM   18  O   UNL     1      10.230  32.314  58.394  1.00  0.00    -0.394 OA
HETATM   19  H   UNL     1      10.442  32.366  57.446  1.00  0.00     0.210 HD
ENDBRANCH  16  18
ENDBRANCH  15  16
ENDBRANCH  12  15
ENDBRANCH   1  11
BRANCH   9  20
HETATM   20  C   UNL     1       7.297  24.546  54.402  1.00  0.00    -0.007 A 
HETATM   21  C   UNL     1       7.581  24.301  53.045  1.00  0.00     0.015 A 
HETATM   22  C   UNL     1       7.879  23.013  52.582  1.00  0.00     0.024 A 
HETATM   23  C   UNL     1       7.894  21.943  53.472  1.00  0.00     0.034 A 
HETATM   24 CL   UNL     1       8.262  20.362  52.903  1.00  0.00    -0.084 Cl
HETATM   25  C   UNL     1       7.607  22.149  54.815  1.00  0.00     0.024 A 
HETATM   26  C   UNL     1       7.310  23.438  55.272  1.00  0.00     0.015 A 
ENDBRANCH   9  20
TORSDOF 5
ENDMDL
MODEL 3
REMARK VINA RESULT:      -9.0      4.939      7.446
REMARK  5 active torsions:
REMARK  status: ('A' for Active; 'I' for Inactive)
REMARK    1  A    between atoms: C_2  and  O_3 
REMARK    2  A    between atoms: C_2  and  C_4 
REMARK    3  A    between atoms: C_4  and  N_5 
REMARK       I    between atoms: N_5  and  C_6 
REMARK    4  A    between atoms: C_6  and  C_7 
REMARK    5  A    between atoms: C_15  and  C_16 
ROOT
HETATM    1  C   UNL     1       5.191  26.886  51.817  1.00  0.00     0.046 A 
HETATM    2  C   UNL     1       4.790  27.720  52.884  1.00  0.00     0.008 A 
HETATM    3  C   UNL     1       5.117  27.267  54.174  1.00  0.00     0.068 A 
HETATM    4  C   UNL     1       4.763  28.045  55.269  1.00  0.00     0.032 A 
HETATM    5  C   UNL     1       4.094  29.261  55.129  1.00  0.00     0.002 A 
HETATM    6  C   UNL     1       3.768  29.722  53.861  1.00  0.00     0.001 A 
HETATM    7  C   UNL     1       4.115  28.961  52.746  1.00  0.00     0.015 A 
HETATM    8  N   UNL     1       5.767  26.112  54.402  1.00  0.00    -0.248 NA
HETATM    9  C   UNL     1       6.120  25.313  53.366  1.00  0.00     0.068 A 
HETATM   10  C   UNL     1       5.849  25.677  52.058  1.00  0.00     0.050 A 
ENDROOT
BRANCH   1  11
HETATM   11  C   UNL     1       4.914  27.241  50.402  1.00  0.00     0.252 C 
HETATM   12  N   UNL     1       3.809  26.630  49.852  1.00  0.00    -0.354 N 
HETATM   13  H   UNL     1       3.331  25.899  50.363  1.00  0.00     0.162 HD
HETATM   14  O   UNL     1       5.637  28.020  49.796  1.00  0.00    -0.268 OA
BRANCH  12  15
HETATM   15  C   UNL     1       3.404  26.882  48.481  1.00  0.00     0.154 C 
BRANCH  15  16
HETATM   16  C   UNL     1       3.534  25.666  47.550  1.00  0.00     0.132 C 
HETATM   17  C   UNL     1       3.010  24.388  48.192  1.00  0.00     0.041 C 
BRANCH  16  18
HETATM   18  O   UNL     1       2.771  25.918  46.367  1.00  0.00    -0.394 OA
HETATM   19  H   UNL     1       3.368  26.343  45.727  1.00  0.00     0.210 HD
ENDBRANCH  16  18
ENDBRANCH  15  16
ENDBRANCH  12  15
ENDBRANCH   1  11
BRANCH   9  20
HETATM   20  C   UNL     1       6.815  24.060  53.733  1.00  0.00    -0.007 A 
HETATM   21  C   UNL     1       7.388  23.207  52.770  1.00  0.00     0.015 A 
HETATM   22  C   UNL     1       8.050  22.029  53.139  1.00  0.00     0.024 A 
HETATM   23  C   UNL     1       8.147  21.680  54.483  1.00  0.00     0.034 A 
HETATM   24 CL   UNL     1       8.962  20.235  54.935  1.00  0.00    -0.084 Cl
HETATM   25  C   UNL     1       7.583  22.494  55.457  1.00  0.00     0.024 A 
HETATM   26  C   UNL     1       6.923  23.670  55.083  1.00  0.00     0.015 A 
ENDBRANCH   9  20
TORSDOF 5
ENDMDL
MODEL 4
REMARK VINA RESULT:      -8.7      2.522      4.587
REMARK  5 active torsions:
REMARK  status: ('A' for Active; 'I' for Inactive)
REMARK    1  A    between atoms: C_2  and  O_3 
REMARK    2  A    between atoms: C_2  and  C_4 
REMARK    3  A    between atoms: C_4  and  N_5 
REMARK       I    between atoms: N_5  and  C_6 
REMARK    4  A    between atoms: C_6  and  C_7 
REMARK    5  A    between atoms: C_15  and  C_16 
ROOT
HETATM    1  C   UNL     1       6.841  25.789  54.832  1.00  0.00     0.046 A 
HETATM    2  C   UNL     1       7.340  24.581  55.366  1.00  0.00     0.008 A 
HETATM    3  C   UNL     1       8.145  24.702  56.512  1.00  0.00     0.068 A 
HETATM    4  C   UNL     1       8.660  23.552  57.097  1.00  0.00     0.032 A 
HETATM    5  C   UNL     1       8.402  22.280  56.583  1.00  0.00     0.002 A 
HETATM    6  C   UNL     1       7.606  22.146  55.455  1.00  0.00     0.001 A 
HETATM    7  C   UNL     1       7.076  23.285  54.851  1.00  0.00     0.015 A 
HETATM    8  N   UNL     1       8.439  25.886  57.079  1.00  0.00    -0.248 NA
HETATM    9  C   UNL     1       7.973  27.036  56.536  1.00  0.00     0.068 A 
HETATM   10  C   UNL     1       7.164  27.019  55.412  1.00  0.00     0.050 A 
ENDROOT
BRANCH   1  11
HETATM   11  C   UNL     1       5.976  25.811  53.626  1.00  0.00     0.252 C 
HETATM   12  N   UNL     1       6.612  26.166  52.457  1.00  0.00    -0.354 N 
HETATM   13  H   UNL     1       7.563  26.510  52.485  1.00  0.00     0.162 HD
HETATM   14  O   UNL     1       4.787  25.532  53.699  1.00  0.00    -0.268 OA
BRANCH  12  15
HETATM   15  C   UNL     1       5.901  26.225  51.192  1.00  0.00     0.154 C 
BRANCH  15  16
HETATM   16  C   UNL     1       5.218  27.573  50.914  1.00  0.00     0.132 C 
HETATM   17  C   UNL     1       5.032  27.831  49.424  1.00  0.00     0.041 C 
BRANCH  16  18
HETATM   18  O   UNL     1       3.928  27.563  51.531  1.00  0.00    -0.394 OA
HETATM   19  H   UNL     1       3.527  26.697  51.340  1.00  0.00     0.210 HD
ENDBRANCH  16  18
ENDBRANCH  15  16
ENDBRANCH  12  15
ENDBRANCH   1  11
BRANCH   9  20
HETATM   20  C   UNL     1       8.371  28.279  57.231  1.00  0.00    -0.007 A 
HETATM   21  C   UNL     1       7.518  28.944  58.133  1.00  0.00     0.015 A 
HETATM   22  C   UNL     1       7.919  30.116  58.788  1.00  0.00     0.024 A 
HETATM   23  C   UNL     1       9.182  30.648  58.547  1.00  0.00     0.034 A 
HETATM   24 CL   UNL     1       9.673  32.085  59.353  1.00  0.00    -0.084 Cl
HETATM   25  C   UNL     1      10.043  30.023  57.654  1.00  0.00     0.024 A 
HETATM   26  C   UNL     1       9.639  28.852  57.003  1.00  0.00     0.015 A 
ENDBRANCH   9  20
TORSDOF 5
ENDMDL
MODEL 5
REMARK VINA RESULT:      -8.6      4.221      7.411
REMARK  5 active torsions:
REMARK  status: ('A' for Active; 'I' for Inactive)
REMARK    1  A    between atoms: C_2  and  O_3 
REMARK    2  A    between atoms: C_2  and  C_4 
REMARK    3  A    between atoms: C_4  and  N_5 
REMARK       I    between atoms: N_5  and  C_6 
REMARK    4  A    between atoms: C_6  and  C_7 
REMARK    5  A    between atoms: C_15  and  C_16 
ROOT
HETATM    1  C   UNL     1       5.262  27.189  53.932  1.00  0.00     0.046 A 
HETATM    2  C   UNL     1       4.933  27.330  52.566  1.00  0.00     0.008 A 
HETATM    3  C   UNL     1       5.298  26.257  51.733  1.00  0.00     0.068 A 
HETATM    4  C   UNL     1       4.994  26.324  50.380  1.00  0.00     0.032 A 
HETATM    5  C   UNL     1       4.337  27.422  49.821  1.00  0.00     0.002 A 
HETATM    6  C   UNL     1       3.968  28.485  50.632  1.00  0.00     0.001 A 
HETATM    7  C   UNL     1       4.260  28.441  51.994  1.00  0.00     0.015 A 
HETATM    8  N   UNL     1       5.926  25.159  52.187  1.00  0.00    -0.248 NA
HETATM    9  C   UNL     1       6.258  25.054  53.496  1.00  0.00     0.068 A 
HETATM   10  C   UNL     1       5.933  26.054  54.397  1.00  0.00     0.050 A 
ENDROOT
BRANCH   1  11
HETATM   11  C   UNL     1       4.934  28.242  54.926  1.00  0.00     0.252 C 
HETATM   12  N   UNL     1       5.912  29.194  55.113  1.00  0.00    -0.354 N 
HETATM   13  H   UNL     1       6.822  29.073  54.688  1.00  0.00     0.162 HD
HETATM   14  O   UNL     1       3.866  28.234  55.522  1.00  0.00    -0.268 OA
BRANCH  12  15
HETATM   15  C   UNL     1       5.735  30.292  56.046  1.00  0.00     0.154 C 
BRANCH  15  16
HETATM   16  C   UNL     1       5.974  29.916  57.517  1.00  0.00     0.132 C 
HETATM   17  C   UNL     1       6.634  31.042  58.302  1.00  0.00     0.041 C 
BRANCH  16  18
HETATM   18  O   UNL     1       4.710  29.630  58.122  1.00  0.00    -0.394 OA
HETATM   19  H   UNL     1       4.371  28.818  57.705  1.00  0.00     0.210 HD
ENDBRANCH  16  18
ENDBRANCH  15  16
ENDBRANCH  12  15
ENDBRANCH   1  11
BRANCH   9  20
HETATM   20  C   UNL     1       6.960  23.811  53.882  1.00  0.00    -0.007 A 
HETATM   21  C   UNL     1       7.104  23.413  55.225  1.00  0.00     0.015 A 
HETATM   22  C   UNL     1       7.766  22.227  55.569  1.00  0.00     0.024 A 
HETATM   23  C   UNL     1       8.301  21.418  54.571  1.00  0.00     0.034 A 
HETATM   24 CL   UNL     1       9.111  19.961  54.993  1.00  0.00    -0.084 Cl
HETATM   25  C   UNL     1       8.186  21.787  53.237  1.00  0.00     0.024 A 
HETATM   26  C   UNL     1       7.524  22.973  52.899  1.00  0.00     0.015 A 
ENDBRANCH   9  20
TORSDOF 5
ENDMDL
MODEL 6
REMARK VINA RESULT:      -8.6      4.462      7.979
REMARK  5 active torsions:
REMARK  status: ('A' for Active; 'I' for Inactive)
REMARK    1  A    between atoms: C_2  and  O_3 
REMARK    2  A    between atoms: C_2  and  C_4 
REMARK    3  A    between atoms: C_4  and  N_5 
REMARK       I    between atoms: N_5  and  C_6 
REMARK    4  A    between atoms: C_6  and  C_7 
REMARK    5  A    between atoms: C_15  and  C_16 
ROOT
HETATM    1  C   UNL     1       7.247  29.731  58.128  1.00  0.00     0.046 A 
HETATM    2  C   UNL     1       5.960  30.099  57.678  1.00  0.00     0.008 A 
HETATM    3  C   UNL     1       5.294  29.151  56.881  1.00  0.00     0.068 A 
HETATM    4  C   UNL     1       4.019  29.444  56.414  1.00  0.00     0.032 A 
HETATM    5  C   UNL     1       3.378  30.648  56.713  1.00  0.00     0.002 A 
HETATM    6  C   UNL     1       4.023  31.589  57.501  1.00  0.00     0.001 A 
HETATM    7  C   UNL     1       5.302  31.319  57.983  1.00  0.00     0.015 A 
HETATM    8  N   UNL     1       5.831  27.964  56.550  1.00  0.00    -0.248 NA
HETATM    9  C   UNL     1       7.079  27.640  56.969  1.00  0.00     0.068 A 
HETATM   10  C   UNL     1       7.811  28.503  57.766  1.00  0.00     0.050 A 
ENDROOT
BRANCH   1  11
HETATM   11  C   UNL     1       8.064  30.631  58.979  1.00  0.00     0.252 C 
HETATM   12  N   UNL     1       8.029  30.350  60.327  1.00  0.00    -0.354 N 
HETATM   13  H   UNL     1       7.378  29.662  60.683  1.00  0.00     0.162 HD
HETATM   14  O   UNL     1       8.706  31.550  58.489  1.00  0.00    -0.268 OA
BRANCH  12  15
HETATM   15  C   UNL     1       8.782  31.138  61.288  1.00  0.00     0.154 C 
BRANCH  15  16
HETATM   16  C   UNL     1       8.167  31.174  62.696  1.00  0.00     0.132 C 
HETATM   17  C   UNL     1       8.105  32.586  63.264  1.00  0.00     0.041 C 
BRANCH  16  18
HETATM   18  O   UNL     1       6.833  30.664  62.620  1.00  0.00    -0.394 OA
HETATM   19  H   UNL     1       6.649  30.219  63.466  1.00  0.00     0.210 HD
ENDBRANCH  16  18
ENDBRANCH  15  16
ENDBRANCH  12  15
ENDBRANCH   1  11
BRANCH   9  20
HETATM   20  C   UNL     1       7.577  26.318  56.533  1.00  0.00    -0.007 A 
HETATM   21  C   UNL     1       7.281  25.781  55.266  1.00  0.00     0.015 A 
HETATM   22  C   UNL     1       7.771  24.530  54.869  1.00  0.00     0.024 A 
HETATM   23  C   UNL     1       8.564  23.789  55.739  1.00  0.00     0.034 A 
HETATM   24 CL   UNL     1       9.167  22.254  55.251  1.00  0.00    -0.084 Cl
HETATM   25  C   UNL     1       8.866  24.284  57.002  1.00  0.00     0.024 A 
HETATM   26  C   UNL     1       8.374  25.535  57.393  1.00  0.00     0.015 A 
ENDBRANCH   9  20
TORSDOF 5
ENDMDL
MODEL 7
REMARK VINA RESULT:      -8.5      4.155      7.388
REMARK  5 active torsions:
REMARK  status: ('A' for Active; 'I' for Inactive)
REMARK    1  A    between atoms: C_2  and  O_3 
REMARK    2  A    between atoms: C_2  and  C_4 
REMARK    3  A    between atoms: C_4  and  N_5 
REMARK       I    between atoms: N_5  and  C_6 
REMARK    4  A    between atoms: C_6  and  C_7 
REMARK    5  A    between atoms: C_15  and  C_16 
ROOT
HETATM    1  C   UNL     1       5.957  27.671  54.482  1.00  0.00     0.046 A 
HETATM    2  C   UNL     1       6.472  28.196  55.688  1.00  0.00     0.008 A 
HETATM    3  C   UNL     1       7.317  27.341  56.417  1.00  0.00     0.068 A 
HETATM    4  C   UNL     1       7.869  27.798  57.608  1.00  0.00     0.032 A 
HETATM    5  C   UNL     1       7.611  29.078  58.101  1.00  0.00     0.002 A 
HETATM    6  C   UNL     1       6.782  29.933  57.389  1.00  0.00     0.001 A 
HETATM    7  C   UNL     1       6.218  29.498  56.190  1.00  0.00     0.015 A 
HETATM    8  N   UNL     1       7.626  26.097  56.014  1.00  0.00    -0.248 NA
HETATM    9  C   UNL     1       7.101  25.601  54.868  1.00  0.00     0.068 A 
HETATM   10  C   UNL     1       6.265  26.369  54.075  1.00  0.00     0.050 A 
ENDROOT
BRANCH   1  11
HETATM   11  C   UNL     1       5.055  28.463  53.609  1.00  0.00     0.252 C 
HETATM   12  N   UNL     1       5.654  29.017  52.499  1.00  0.00    -0.354 N 
HETATM   13  H   UNL     1       6.660  28.979  52.397  1.00  0.00     0.162 HD
HETATM   14  O   UNL     1       3.871  28.597  53.884  1.00  0.00    -0.268 OA
BRANCH  12  15
HETATM   15  C   UNL     1       4.901  29.812  51.546  1.00  0.00     0.154 C 
BRANCH  15  16
HETATM   16  C   UNL     1       4.306  29.006  50.381  1.00  0.00     0.132 C 
HETATM   17  C   UNL     1       5.258  27.929  49.877  1.00  0.00     0.041 C 
BRANCH  16  18
HETATM   18  O   UNL     1       3.110  28.368  50.836  1.00  0.00    -0.394 OA
HETATM   19  H   UNL     1       3.375  27.528  51.251  1.00  0.00     0.210 HD
ENDBRANCH  16  18
ENDBRANCH  15  16
ENDBRANCH  12  15
ENDBRANCH   1  11
BRANCH   9  20
HETATM   20  C   UNL     1       7.494  24.216  54.529  1.00  0.00    -0.007 A 
HETATM   21  C   UNL     1       7.602  23.768  53.199  1.00  0.00     0.015 A 
HETATM   22  C   UNL     1       7.986  22.455  52.899  1.00  0.00     0.024 A 
HETATM   23  C   UNL     1       8.264  21.562  53.930  1.00  0.00     0.034 A 
HETATM   24 CL   UNL     1       8.736  19.950  53.561  1.00  0.00    -0.084 Cl
HETATM   25  C   UNL     1       8.156  21.968  55.253  1.00  0.00     0.024 A 
HETATM   26  C   UNL     1       7.773  23.282  55.547  1.00  0.00     0.015 A 
ENDBRANCH   9  20
TORSDOF 5
ENDMDL
MODEL 8
REMARK VINA RESULT:      -8.4      3.653      7.038
REMARK  5 active torsions:
REMARK  status: ('A' for Active; 'I' for Inactive)
REMARK    1  A    between atoms: C_2  and  O_3 
REMARK    2  A    between atoms: C_2  and  C_4 
REMARK    3  A    between atoms: C_4  and  N_5 
REMARK       I    between atoms: N_5  and  C_6 
REMARK    4  A    between atoms: C_6  and  C_7 
REMARK    5  A    between atoms: C_15  and  C_16 
ROOT
HETATM    1  C   UNL     1       6.702  25.344  55.000  1.00  0.00     0.046 A 
HETATM    2  C   UNL     1       7.231  24.079  54.661  1.00  0.00     0.008 A 
HETATM    3  C   UNL     1       7.190  23.743  53.296  1.00  0.00     0.068 A 
HETATM    4  C   UNL     1       7.705  22.518  52.891  1.00  0.00     0.032 A 
HETATM    5  C   UNL     1       8.261  21.612  53.795  1.00  0.00     0.002 A 
HETATM    6  C   UNL     1       8.311  21.933  55.143  1.00  0.00     0.001 A 
HETATM    7  C   UNL     1       7.803  23.157  55.575  1.00  0.00     0.015 A 
HETATM    8  N   UNL     1       6.680  24.557  52.356  1.00  0.00    -0.248 NA
HETATM    9  C   UNL     1       6.153  25.755  52.705  1.00  0.00     0.068 A 
HETATM   10  C   UNL     1       6.154  26.180  54.022  1.00  0.00     0.050 A 
ENDROOT
BRANCH   1  11
HETATM   11  C   UNL     1       6.683  25.831  56.402  1.00  0.00     0.252 C 
HETATM   12  N   UNL     1       7.556  26.861  56.675  1.00  0.00    -0.354 N 
HETATM   13  H   UNL     1       8.237  27.142  55.981  1.00  0.00     0.162 HD
HETATM   14  O   UNL     1       5.937  25.330  57.232  1.00  0.00    -0.268 OA
BRANCH  12  15
HETATM   15  C   UNL     1       7.647  27.450  57.999  1.00  0.00     0.154 C 
BRANCH  15  16
HETATM   16  C   UNL     1       7.787  28.980  58.001  1.00  0.00     0.132 C 
HETATM   17  C   UNL     1       6.529  29.677  57.498  1.00  0.00     0.041 C 
BRANCH  16  18
HETATM   18  O   UNL     1       8.030  29.411  59.343  1.00  0.00    -0.394 OA
HETATM   19  H   UNL     1       7.718  28.701  59.932  1.00  0.00     0.210 HD
ENDBRANCH  16  18
ENDBRANCH  15  16
ENDBRANCH  12  15
ENDBRANCH   1  11
BRANCH   9  20
HETATM   20  C   UNL     1       5.604  26.562  51.593  1.00  0.00    -0.007 A 
HETATM   21  C   UNL     1       5.634  27.969  51.598  1.00  0.00     0.015 A 
HETATM   22  C   UNL     1       5.117  28.714  50.530  1.00  0.00     0.024 A 
HETATM   23  C   UNL     1       4.556  28.061  49.437  1.00  0.00     0.034 A 
HETATM   24 CL   UNL     1       3.924  28.977  48.125  1.00  0.00    -0.084 Cl
HETATM   25  C   UNL     1       4.501  26.674  49.405  1.00  0.00     0.024 A 
HETATM   26  C   UNL     1       5.019  25.934  50.474  1.00  0.00     0.015 A 
ENDBRANCH   9  20
TORSDOF 5
ENDMDL
MODEL 9
REMARK VINA RESULT:      -8.2      3.797      7.207
REMARK  5 active torsions:
REMARK  status: ('A' for Active; 'I' for Inactive)
REMARK    1  A    between atoms: C_2  and  O_3 
REMARK    2  A    between atoms: C_2  and  C_4 
REMARK    3  A    between atoms: C_4  and  N_5 
REMARK       I    between atoms: N_5  and  C_6 
REMARK    4  A    between atoms: C_6  and  C_7 
REMARK    5  A    between atoms: C_15  and  C_16 
ROOT
HETATM    1  C   UNL     1       7.281  26.646  55.411  1.00  0.00     0.046 A 
HETATM    2  C   UNL     1       7.543  25.261  55.504  1.00  0.00     0.008 A 
HETATM    3  C   UNL     1       7.198  24.495  54.377  1.00  0.00     0.068 A 
HETATM    4  C   UNL     1       7.439  23.127  54.396  1.00  0.00     0.032 A 
HETATM    5  C   UNL     1       8.014  22.491  55.497  1.00  0.00     0.002 A 
HETATM    6  C   UNL     1       8.362  23.236  56.614  1.00  0.00     0.001 A 
HETATM    7  C   UNL     1       8.132  24.610  56.619  1.00  0.00     0.015 A 
HETATM    8  N   UNL     1       6.647  25.024  53.271  1.00  0.00    -0.248 NA
HETATM    9  C   UNL     1       6.379  26.351  53.211  1.00  0.00     0.068 A 
HETATM   10  C   UNL     1       6.691  27.191  54.267  1.00  0.00     0.050 A 
ENDROOT
BRANCH   1  11
HETATM   11  C   UNL     1       7.597  27.576  56.524  1.00  0.00     0.252 C 
HETATM   12  N   UNL     1       8.791  28.252  56.398  1.00  0.00    -0.354 N 
HETATM   13  H   UNL     1       9.436  28.004  55.660  1.00  0.00     0.162 HD
HETATM   14  O   UNL     1       6.834  27.707  57.471  1.00  0.00    -0.268 OA
BRANCH  12  15
HETATM   15  C   UNL     1       9.235  29.203  57.402  1.00  0.00     0.154 C 
BRANCH  15  16
HETATM   16  C   UNL     1      10.347  30.151  56.926  1.00  0.00     0.132 C 
HETATM   17  C   UNL     1      10.553  31.324  57.875  1.00  0.00     0.041 C 
BRANCH  16  18
HETATM   18  O   UNL     1      11.570  29.413  56.855  1.00  0.00    -0.394 OA
HETATM   19  H   UNL     1      11.532  28.728  57.545  1.00  0.00     0.210 HD
ENDBRANCH  16  18
ENDBRANCH  15  16
ENDBRANCH  12  15
ENDBRANCH   1  11
BRANCH   9  20
HETATM   20  C   UNL     1       5.759  26.823  51.954  1.00  0.00    -0.007 A 
HETATM   21  C   UNL     1       5.323  25.937  50.950  1.00  0.00     0.015 A 
HETATM   22  C   UNL     1       4.729  26.405  49.771  1.00  0.00     0.024 A 
HETATM   23  C   UNL     1       4.565  27.773  49.573  1.00  0.00     0.034 A 
HETATM   24 CL   UNL     1       3.835  28.346  48.125  1.00  0.00    -0.084 Cl
HETATM   25  C   UNL     1       4.994  28.675  50.538  1.00  0.00     0.024 A 
HETATM   26  C   UNL     1       5.587  28.202  51.715  1.00  0.00     0.015 A 
ENDBRANCH   9  20
TORSDOF 5
ENDMDL
MODEL 10
REMARK VINA RESULT:      -8.1      4.383      7.879
REMARK  5 active torsions:
REMARK  status: ('A' for Active; 'I' for Inactive)
REMARK    1  A    between atoms: C_2  and  O_3 
REMARK    2  A    between atoms: C_2  and  C_4 
REMARK    3  A    between atoms: C_4  and  N_5 
REMARK       I    between atoms: N_5  and  C_6 
REMARK    4  A    between atoms: C_6  and  C_7 
REMARK    5  A    between atoms: C_15  and  C_16 
ROOT
HETATM    1  C   UNL     1       6.264  27.743  54.191  1.00  0.00     0.046 A 
HETATM    2  C   UNL     1       6.638  28.239  55.459  1.00  0.00     0.008 A 
HETATM    3  C   UNL     1       7.321  27.337  56.294  1.00  0.00     0.068 A 
HETATM    4  C   UNL     1       7.729  27.763  57.552  1.00  0.00     0.032 A 
HETATM    5  C   UNL     1       7.484  29.058  58.011  1.00  0.00     0.002 A 
HETATM    6  C   UNL     1       6.815  29.959  57.196  1.00  0.00     0.001 A 
HETATM    7  C   UNL     1       6.397  29.556  55.929  1.00  0.00     0.015 A 
HETATM    8  N   UNL     1       7.606  26.075  55.931  1.00  0.00    -0.248 NA
HETATM    9  C   UNL     1       7.215  25.608  54.721  1.00  0.00     0.068 A 
HETATM   10  C   UNL     1       6.545  26.423  53.824  1.00  0.00     0.050 A 
ENDROOT
BRANCH   1  11
HETATM   11  C   UNL     1       5.541  28.585  53.206  1.00  0.00     0.252 C 
HETATM   12  N   UNL     1       4.208  28.793  53.482  1.00  0.00    -0.354 N 
HETATM   13  H   UNL     1       3.762  28.281  54.232  1.00  0.00     0.162 HD
HETATM   14  O   UNL     1       6.116  29.044  52.228  1.00  0.00    -0.268 OA
BRANCH  12  15
HETATM   15  C   UNL     1       3.369  29.601  52.616  1.00  0.00     0.154 C 
BRANCH  15  16
HETATM   16  C   UNL     1       3.332  31.093  52.984  1.00  0.00     0.132 C 
HETATM   17  C   UNL     1       3.251  31.316  54.488  1.00  0.00     0.041 C 
BRANCH  16  18
HETATM   18  O   UNL     1       4.532  31.707  52.505  1.00  0.00    -0.394 OA
HETATM   19  H   UNL     1       5.278  31.229  52.908  1.00  0.00     0.210 HD
ENDBRANCH  16  18
ENDBRANCH  15  16
ENDBRANCH  12  15
ENDBRANCH   1  11
BRANCH   9  20
HETATM   20  C   UNL     1       7.566  24.201  54.433  1.00  0.00    -0.007 A 
HETATM   21  C   UNL     1       7.668  23.227  55.445  1.00  0.00     0.015 A 
HETATM   22  C   UNL     1       7.993  21.897  55.149  1.00  0.00     0.024 A 
HETATM   23  C   UNL     1       8.228  21.518  53.831  1.00  0.00     0.034 A 
HETATM   24 CL   UNL     1       8.626  19.884  53.468  1.00  0.00    -0.084 Cl
HETATM   25  C   UNL     1       8.148  22.456  52.810  1.00  0.00     0.024 A 
HETATM   26  C   UNL     1       7.822  23.783  53.111  1.00  0.00     0.015 A 
ENDBRANCH   9  20
TORSDOF 5
ENDMDL
