MODEL 1
REMARK VINA RESULT:      -8.8      0.000      0.000
REMARK  6 active torsions:
REMARK  status: ('A' for Active; 'I' for Inactive)
REMARK    1  A    between atoms: C_2  and  C_3 
REMARK    2  A    between atoms: C_7  and  C_8 
REMARK       I    between atoms: C_8  and  N_9 
REMARK    3  A    between atoms: N_9  and  C_10 
REMARK    4  A    between atoms: C_10  and  C_11 
REMARK    5  A    between atoms: C_11  and  N_12 
REMARK    6  A    between atoms: C_15  and  C_16 
ROOT
HETATM    1  C   UNL     1       8.744  29.087  56.548  1.00  0.00     0.150 C 
ENDROOT
BRANCH   1   2
HETATM    2  N   UNL     1       8.465  29.486  57.907  1.00  0.00    -0.354 N 
HETATM    3  C   UNL     1       9.158  30.492  58.551  1.00  0.00     0.272 C 
HETATM    4  O   UNL     1      10.021  31.156  57.980  1.00  0.00    -0.266 OA
HETATM    5  H   UNL     1       7.844  28.952  58.518  1.00  0.00     0.162 HD
BRANCH   3   6
HETATM    6  C   UNL     1       8.726  30.702  59.941  1.00  0.00     0.152 A 
HETATM    7  N   UNL     1       9.350  30.067  60.955  1.00  0.00    -0.169 NA
HETATM    8  N   UNL     1       8.699  30.487  62.052  1.00  0.00    -0.281 N 
HETATM    9  C   UNL     1       7.666  31.342  61.788  1.00  0.00     0.036 A 
HETATM   10  H   UNL     1       9.005  30.144  62.958  1.00  0.00     0.189 HD
HETATM   11  C   UNL     1       7.652  31.513  60.416  1.00  0.00    -0.002 A 
HETATM   12  C   UNL     1       6.724  32.344  59.606  1.00  0.00     0.053 C 
BRANCH   9  13
HETATM   13  C   UNL     1       6.806  31.895  62.872  1.00  0.00     0.055 C 
HETATM   14  C   UNL     1       7.586  32.836  63.777  1.00  0.00     0.011 C 
ENDBRANCH   9  13
ENDBRANCH   3   6
ENDBRANCH   1   2
BRANCH   1  15
HETATM   15  C   UNL     1       7.993  27.807  56.135  1.00  0.00     0.254 C 
BRANCH  15  16
HETATM   16  N   UNL     1       7.005  27.355  57.195  1.00  0.00    -0.069 N 
HETATM   17  H   UNL     1       7.105  27.987  58.001  1.00  0.00     0.280 HD
HETATM   18  C   UNL     1       7.316  25.944  57.689  1.00  0.00     0.244 C 
HETATM   19  C   UNL     1       6.287  25.037  56.999  1.00  0.00     0.046 C 
HETATM   20  C   UNL     1       5.053  25.942  57.080  1.00  0.00     0.039 C 
HETATM   21  C   UNL     1       5.562  27.336  56.738  1.00  0.00     0.235 C 
BRANCH  19  22
HETATM   22  C   UNL     1       6.746  24.567  55.620  1.00  0.00    -0.046 A 
HETATM   23  C   UNL     1       7.784  23.611  55.479  1.00  0.00    -0.055 A 
HETATM   24  C   UNL     1       8.470  22.933  56.640  1.00  0.00     0.049 C 
HETATM   25  C   UNL     1       8.245  23.264  54.194  1.00  0.00     0.007 A 
HETATM   26  C   UNL     1       7.660  23.796  53.050  1.00  0.00     0.001 A 
HETATM   27  C   UNL     1       6.597  24.677  53.174  1.00  0.00     0.001 A 
HETATM   28  C   UNL     1       6.142  25.051  54.441  1.00  0.00     0.008 A 
ENDBRANCH  19  22
ENDBRANCH  15  16
ENDBRANCH   1  15
TORSDOF 6
ENDMDL
MODEL 2
REMARK VINA RESULT:      -8.5      1.775      3.300
REMARK  6 active torsions:
REMARK  status: ('A' for Active; 'I' for Inactive)
REMARK    1  A    between atoms: C_2  and  C_3 
REMARK    2  A    between atoms: C_7  and  C_8 
REMARK       I    between atoms: C_8  and  N_9 
REMARK    3  A    between atoms: N_9  and  C_10 
REMARK    4  A    between atoms: C_10  and  C_11 
REMARK    5  A    between atoms: C_11  and  N_12 
REMARK    6  A    between atoms: C_15  and  C_16 
ROOT
HETATM    1  C   UNL     1       5.838  27.068  56.075  1.00  0.00     0.150 C 
ENDROOT
BRANCH   1   2
HETATM    2  N   UNL     1       6.358  27.913  57.124  1.00  0.00    -0.354 N 
HETATM    3  C   UNL     1       6.807  29.200  56.897  1.00  0.00     0.272 C 
HETATM    4  O   UNL     1       6.734  29.729  55.791  1.00  0.00    -0.266 OA
HETATM    5  H   UNL     1       6.561  27.561  58.061  1.00  0.00     0.162 HD
BRANCH   3   6
HETATM    6  C   UNL     1       7.324  29.859  58.106  1.00  0.00     0.152 A 
HETATM    7  N   UNL     1       8.292  29.276  58.843  1.00  0.00    -0.169 NA
HETATM    8  N   UNL     1       8.504  30.143  59.847  1.00  0.00    -0.281 N 
HETATM    9  C   UNL     1       7.696  31.244  59.805  1.00  0.00     0.036 A 
HETATM   10  H   UNL     1       9.213  29.918  60.539  1.00  0.00     0.189 HD
HETATM   11  C   UNL     1       6.911  31.100  58.677  1.00  0.00    -0.002 A 
HETATM   12  C   UNL     1       5.860  32.019  58.170  1.00  0.00     0.053 C 
BRANCH   9  13
HETATM   13  C   UNL     1       7.761  32.307  60.849  1.00  0.00     0.055 C 
HETATM   14  C   UNL     1       8.746  31.948  61.950  1.00  0.00     0.011 C 
ENDBRANCH   9  13
ENDBRANCH   3   6
ENDBRANCH   1   2
BRANCH   1  15
HETATM   15  C   UNL     1       6.921  26.184  55.427  1.00  0.00     0.254 C 
BRANCH  15  16
HETATM   16  N   UNL     1       6.664  25.954  53.949  1.00  0.00    -0.069 N 
HETATM   17  H   UNL     1       6.121  26.756  53.601  1.00  0.00     0.280 HD
HETATM   18  C   UNL     1       5.820  24.703  53.713  1.00  0.00     0.244 C 
HETATM   19  C   UNL     1       6.810  23.629  53.238  1.00  0.00     0.046 C 
HETATM   20  C   UNL     1       7.708  24.489  52.342  1.00  0.00     0.039 C 
HETATM   21  C   UNL     1       7.916  25.784  53.115  1.00  0.00     0.235 C 
BRANCH  19  22
HETATM   22  C   UNL     1       7.461  22.874  54.396  1.00  0.00    -0.046 A 
HETATM   23  C   UNL     1       7.948  21.553  54.226  1.00  0.00    -0.055 A 
HETATM   24  C   UNL     1       7.936  20.810  52.912  1.00  0.00     0.049 C 
HETATM   25  C   UNL     1       8.463  20.851  55.333  1.00  0.00     0.007 A 
HETATM   26  C   UNL     1       8.560  21.449  56.585  1.00  0.00     0.001 A 
HETATM   27  C   UNL     1       8.153  22.764  56.746  1.00  0.00     0.001 A 
HETATM   28  C   UNL     1       7.618  23.469  55.664  1.00  0.00     0.008 A 
ENDBRANCH  19  22
ENDBRANCH  15  16
ENDBRANCH   1  15
TORSDOF 6
ENDMDL
MODEL 3
REMARK VINA RESULT:      -8.5      1.449      2.421
REMARK  6 active torsions:
REMARK  status: ('A' for Active; 'I' for Inactive)
REMARK    1  A    between atoms: C_2  and  C_3 
REMARK    2  A    between atoms: C_7  and  C_8 
REMARK       I    between atoms: C_8  and  N_9 
REMARK    3  A    between atoms: N_9  and  C_10 
REMARK    4  A    between atoms: C_10  and  C_11 
REMARK    5  A    between atoms: C_11  and  N_12 
REMARK    6  A    between atoms: C_15  and  C_16 
ROOT
HETATM    1  C   UNL     1       9.115  28.689  57.246  1.00  0.00     0.150 C 
ENDROOT
BRANCH   1   2
HETATM    2  N   UNL     1       8.462  29.497  58.249  1.00  0.00    -0.354 N 
HETATM    3  C   UNL     1       8.963  30.712  58.676  1.00  0.00     0.272 C 
HETATM    4  O   UNL     1       9.971  31.210  58.181  1.00  0.00    -0.266 OA
HETATM    5  H   UNL     1       7.676  29.153  58.803  1.00  0.00     0.162 HD
BRANCH   3   6
HETATM    6  C   UNL     1       8.150  31.342  59.727  1.00  0.00     0.152 A 
HETATM    7  N   UNL     1       7.179  32.222  59.406  1.00  0.00    -0.169 NA
HETATM    8  N   UNL     1       6.664  32.586  60.593  1.00  0.00    -0.281 N 
HETATM    9  C   UNL     1       7.278  32.000  61.663  1.00  0.00     0.036 A 
HETATM   10  H   UNL     1       5.895  33.249  60.604  1.00  0.00     0.189 HD
HETATM   11  C   UNL     1       8.254  31.173  61.140  1.00  0.00    -0.002 A 
HETATM   12  C   UNL     1       9.212  30.308  61.876  1.00  0.00     0.053 C 
BRANCH   9  13
HETATM   13  C   UNL     1       6.866  32.297  63.065  1.00  0.00     0.055 C 
HETATM   14  C   UNL     1       7.978  32.992  63.837  1.00  0.00     0.011 C 
ENDBRANCH   9  13
ENDBRANCH   3   6
ENDBRANCH   1   2
BRANCH   1  15
HETATM   15  C   UNL     1       8.207  27.574  56.694  1.00  0.00     0.254 C 
BRANCH  15  16
HETATM   16  N   UNL     1       7.246  28.089  55.636  1.00  0.00    -0.069 N 
HETATM   17  H   UNL     1       6.924  29.018  55.938  1.00  0.00     0.280 HD
HETATM   18  C   UNL     1       6.010  27.200  55.519  1.00  0.00     0.244 C 
HETATM   19  C   UNL     1       6.232  26.363  54.251  1.00  0.00     0.046 C 
HETATM   20  C   UNL     1       6.864  27.427  53.349  1.00  0.00     0.039 C 
HETATM   21  C   UNL     1       7.837  28.180  54.245  1.00  0.00     0.235 C 
BRANCH  19  22
HETATM   22  C   UNL     1       7.025  25.085  54.520  1.00  0.00    -0.046 A 
HETATM   23  C   UNL     1       7.669  24.387  53.467  1.00  0.00    -0.055 A 
HETATM   24  C   UNL     1       7.694  24.858  52.033  1.00  0.00     0.049 C 
HETATM   25  C   UNL     1       8.319  23.166  53.733  1.00  0.00     0.007 A 
HETATM   26  C   UNL     1       8.395  22.655  55.024  1.00  0.00     0.001 A 
HETATM   27  C   UNL     1       7.830  23.365  56.072  1.00  0.00     0.001 A 
HETATM   28  C   UNL     1       7.161  24.566  55.825  1.00  0.00     0.008 A 
ENDBRANCH  19  22
ENDBRANCH  15  16
ENDBRANCH   1  15
TORSDOF 6
ENDMDL
MODEL 4
REMARK VINA RESULT:      -8.2      4.446      7.935
REMARK  6 active torsions:
REMARK  status: ('A' for Active; 'I' for Inactive)
REMARK    1  A    between atoms: C_2  and  C_3 
REMARK    2  A    between atoms: C_7  and  C_8 
REMARK       I    between atoms: C_8  and  N_9 
REMARK    3  A    between atoms: N_9  and  C_10 
REMARK    4  A    between atoms: C_10  and  C_11 
REMARK    5  A    between atoms: C_11  and  N_12 
REMARK    6  A    between atoms: C_15  and  C_16 
ROOT
HETATM    1  C   UNL     1       5.956  28.907  54.734  1.00  0.00     0.150 C 
ENDROOT
BRANCH   1   2
HETATM    2  N   UNL     1       5.791  28.616  53.329  1.00  0.00    -0.354 N 
HETATM    3  C   UNL     1       4.630  28.079  52.806  1.00  0.00     0.272 C 
HETATM    4  O   UNL     1       3.639  27.872  53.500  1.00  0.00    -0.266 OA
HETATM    5  H   UNL     1       6.568  28.651  52.667  1.00  0.00     0.162 HD
BRANCH   3   6
HETATM    6  C   UNL     1       4.701  27.835  51.357  1.00  0.00     0.152 A 
HETATM    7  N   UNL     1       5.661  27.038  50.844  1.00  0.00    -0.169 NA
HETATM    8  N   UNL     1       5.423  27.051  49.522  1.00  0.00    -0.281 N 
HETATM    9  C   UNL     1       4.370  27.843  49.159  1.00  0.00     0.036 A 
HETATM   10  H   UNL     1       6.025  26.502  48.916  1.00  0.00     0.189 HD
HETATM   11  C   UNL     1       3.866  28.371  50.332  1.00  0.00    -0.002 A 
HETATM   12  C   UNL     1       2.719  29.300  50.499  1.00  0.00     0.053 C 
BRANCH   9  13
HETATM   13  C   UNL     1       3.966  28.009  47.733  1.00  0.00     0.055 C 
HETATM   14  C   UNL     1       2.888  27.012  47.339  1.00  0.00     0.011 C 
ENDBRANCH   9  13
ENDBRANCH   3   6
ENDBRANCH   1   2
BRANCH   1  15
HETATM   15  C   UNL     1       6.991  27.993  55.416  1.00  0.00     0.254 C 
BRANCH  15  16
HETATM   16  N   UNL     1       6.464  27.395  56.708  1.00  0.00    -0.069 N 
HETATM   17  H   UNL     1       6.538  28.118  57.436  1.00  0.00     0.280 HD
HETATM   18  C   UNL     1       7.311  26.208  57.164  1.00  0.00     0.244 C 
HETATM   19  C   UNL     1       6.495  24.961  56.792  1.00  0.00     0.046 C 
HETATM   20  C   UNL     1       5.090  25.461  57.144  1.00  0.00     0.039 C 
HETATM   21  C   UNL     1       5.038  26.893  56.629  1.00  0.00     0.235 C 
BRANCH  19  22
HETATM   22  C   UNL     1       6.755  24.492  55.362  1.00  0.00    -0.046 A 
HETATM   23  C   UNL     1       7.897  23.715  55.042  1.00  0.00    -0.055 A 
HETATM   24  C   UNL     1       8.901  23.231  56.059  1.00  0.00     0.049 C 
HETATM   25  C   UNL     1       8.156  23.372  53.700  1.00  0.00     0.007 A 
HETATM   26  C   UNL     1       7.277  23.729  52.683  1.00  0.00     0.001 A 
HETATM   27  C   UNL     1       6.121  24.427  52.994  1.00  0.00     0.001 A 
HETATM   28  C   UNL     1       5.860  24.797  54.316  1.00  0.00     0.008 A 
ENDBRANCH  19  22
ENDBRANCH  15  16
ENDBRANCH   1  15
TORSDOF 6
ENDMDL
MODEL 5
REMARK VINA RESULT:      -8.2      5.717      9.728
REMARK  6 active torsions:
REMARK  status: ('A' for Active; 'I' for Inactive)
REMARK    1  A    between atoms: C_2  and  C_3 
REMARK    2  A    between atoms: C_7  and  C_8 
REMARK       I    between atoms: C_8  and  N_9 
REMARK    3  A    between atoms: N_9  and  C_10 
REMARK    4  A    between atoms: C_10  and  C_11 
REMARK    5  A    between atoms: C_11  and  N_12 
REMARK    6  A    between atoms: C_15  and  C_16 
ROOT
HETATM    1  C   UNL     1       5.659  25.641  51.660  1.00  0.00     0.150 C 
ENDROOT
BRANCH   1   2
HETATM    2  N   UNL     1       4.673  25.750  50.611  1.00  0.00    -0.354 N 
HETATM    3  C   UNL     1       4.629  26.813  49.730  1.00  0.00     0.272 C 
HETATM    4  O   UNL     1       5.471  27.708  49.749  1.00  0.00    -0.266 OA
HETATM    5  H   UNL     1       3.866  25.127  50.551  1.00  0.00     0.162 HD
BRANCH   3   6
HETATM    6  C   UNL     1       3.520  26.730  48.769  1.00  0.00     0.152 A 
HETATM    7  N   UNL     1       3.539  25.813  47.779  1.00  0.00    -0.169 NA
HETATM    8  N   UNL     1       2.394  26.031  47.111  1.00  0.00    -0.281 N 
HETATM    9  C   UNL     1       1.652  27.064  47.610  1.00  0.00     0.036 A 
HETATM   10  H   UNL     1       2.180  25.441  46.313  1.00  0.00     0.189 HD
HETATM   11  C   UNL     1       2.351  27.547  48.700  1.00  0.00    -0.002 A 
HETATM   12  C   UNL     1       1.985  28.671  49.598  1.00  0.00     0.053 C 
BRANCH   9  13
HETATM   13  C   UNL     1       0.361  27.477  46.988  1.00  0.00     0.055 C 
HETATM   14  C   UNL     1       0.486  28.819  46.283  1.00  0.00     0.011 C 
ENDBRANCH   9  13
ENDBRANCH   3   6
ENDBRANCH   1   2
BRANCH   1  15
HETATM   15  C   UNL     1       5.039  25.308  53.031  1.00  0.00     0.254 C 
BRANCH  15  16
HETATM   16  N   UNL     1       5.626  26.156  54.146  1.00  0.00    -0.069 N 
HETATM   17  H   UNL     1       5.261  27.111  54.031  1.00  0.00     0.280 HD
HETATM   18  C   UNL     1       7.147  26.239  54.048  1.00  0.00     0.244 C 
HETATM   19  C   UNL     1       7.676  25.279  55.124  1.00  0.00     0.046 C 
HETATM   20  C   UNL     1       6.667  25.566  56.240  1.00  0.00     0.039 C 
HETATM   21  C   UNL     1       5.317  25.655  55.541  1.00  0.00     0.235 C 
BRANCH  19  22
HETATM   22  C   UNL     1       7.804  23.843  54.620  1.00  0.00    -0.046 A 
HETATM   23  C   UNL     1       8.099  22.778  55.510  1.00  0.00    -0.055 A 
HETATM   24  C   UNL     1       8.243  22.941  57.003  1.00  0.00     0.049 C 
HETATM   25  C   UNL     1       8.296  21.479  55.003  1.00  0.00     0.007 A 
HETATM   26  C   UNL     1       8.149  21.203  53.648  1.00  0.00     0.001 A 
HETATM   27  C   UNL     1       7.790  22.222  52.780  1.00  0.00     0.001 A 
HETATM   28  C   UNL     1       7.613  23.522  53.260  1.00  0.00     0.008 A 
ENDBRANCH  19  22
ENDBRANCH  15  16
ENDBRANCH   1  15
TORSDOF 6
ENDMDL
MODEL 6
REMARK VINA RESULT:      -8.2      2.008      3.461
REMARK  6 active torsions:
REMARK  status: ('A' for Active; 'I' for Inactive)
REMARK    1  A    between atoms: C_2  and  C_3 
REMARK    2  A    between atoms: C_7  and  C_8 
REMARK       I    between atoms: C_8  and  N_9 
REMARK    3  A    between atoms: N_9  and  C_10 
REMARK    4  A    between atoms: C_10  and  C_11 
REMARK    5  A    between atoms: C_11  and  N_12 
REMARK    6  A    between atoms: C_15  and  C_16 
ROOT
HETATM    1  C   UNL     1       6.271  28.554  54.569  1.00  0.00     0.150 C 
ENDROOT
BRANCH   1   2
HETATM    2  N   UNL     1       6.915  29.119  55.732  1.00  0.00    -0.354 N 
HETATM    3  C   UNL     1       6.263  29.299  56.936  1.00  0.00     0.272 C 
HETATM    4  O   UNL     1       5.104  28.931  57.110  1.00  0.00    -0.266 OA
HETATM    5  H   UNL     1       7.839  29.552  55.690  1.00  0.00     0.162 HD
BRANCH   3   6
HETATM    6  C   UNL     1       7.106  29.922  57.969  1.00  0.00     0.152 A 
HETATM    7  N   UNL     1       8.171  29.264  58.472  1.00  0.00    -0.169 NA
HETATM    8  N   UNL     1       8.685  30.118  59.372  1.00  0.00    -0.281 N 
HETATM    9  C   UNL     1       7.983  31.283  59.491  1.00  0.00     0.036 A 
HETATM   10  H   UNL     1       9.518  29.839  59.882  1.00  0.00     0.189 HD
HETATM   11  C   UNL     1       6.942  31.198  58.585  1.00  0.00    -0.002 A 
HETATM   12  C   UNL     1       5.880  32.200  58.315  1.00  0.00     0.053 C 
BRANCH   9  13
HETATM   13  C   UNL     1       8.382  32.346  60.458  1.00  0.00     0.055 C 
HETATM   14  C   UNL     1       9.603  31.936  61.266  1.00  0.00     0.011 C 
ENDBRANCH   9  13
ENDBRANCH   3   6
ENDBRANCH   1   2
BRANCH   1  15
HETATM   15  C   UNL     1       7.190  27.600  53.782  1.00  0.00     0.254 C 
BRANCH  15  16
HETATM   16  N   UNL     1       6.402  26.577  52.982  1.00  0.00    -0.069 N 
HETATM   17  H   UNL     1       5.856  27.090  52.277  1.00  0.00     0.280 HD
HETATM   18  C   UNL     1       5.407  25.822  53.860  1.00  0.00     0.244 C 
HETATM   19  C   UNL     1       6.049  24.450  54.113  1.00  0.00     0.046 C 
HETATM   20  C   UNL     1       6.654  24.192  52.728  1.00  0.00     0.039 C 
HETATM   21  C   UNL     1       7.253  25.525  52.303  1.00  0.00     0.235 C 
BRANCH  19  22
HETATM   22  C   UNL     1       6.987  24.451  55.318  1.00  0.00    -0.046 A 
HETATM   23  C   UNL     1       6.576  24.985  56.567  1.00  0.00    -0.055 A 
HETATM   24  C   UNL     1       5.192  25.523  56.839  1.00  0.00     0.049 C 
HETATM   25  C   UNL     1       7.492  25.051  57.634  1.00  0.00     0.007 A 
HETATM   26  C   UNL     1       8.782  24.548  57.510  1.00  0.00     0.001 A 
HETATM   27  C   UNL     1       9.173  23.960  56.317  1.00  0.00     0.001 A 
HETATM   28  C   UNL     1       8.285  23.906  55.239  1.00  0.00     0.008 A 
ENDBRANCH  19  22
ENDBRANCH  15  16
ENDBRANCH   1  15
TORSDOF 6
ENDMDL
MODEL 7
REMARK VINA RESULT:      -7.7      4.936      6.076
REMARK  6 active torsions:
REMARK  status: ('A' for Active; 'I' for Inactive)
REMARK    1  A    between atoms: C_2  and  C_3 
REMARK    2  A    between atoms: C_7  and  C_8 
REMARK       I    between atoms: C_8  and  N_9 
REMARK    3  A    between atoms: N_9  and  C_10 
REMARK    4  A    between atoms: C_10  and  C_11 
REMARK    5  A    between atoms: C_11  and  N_12 
REMARK    6  A    between atoms: C_15  and  C_16 
ROOT
HETATM    1  C   UNL     1       5.282  25.966  52.479  1.00  0.00     0.150 C 
ENDROOT
BRANCH   1   2
HETATM    2  N   UNL     1       4.573  27.159  52.879  1.00  0.00    -0.354 N 
HETATM    3  C   UNL     1       5.112  28.426  52.765  1.00  0.00     0.272 C 
HETATM    4  O   UNL     1       6.212  28.621  52.255  1.00  0.00    -0.266 OA
HETATM    5  H   UNL     1       3.697  27.125  53.403  1.00  0.00     0.162 HD
BRANCH   3   6
HETATM    6  C   UNL     1       4.224  29.485  53.266  1.00  0.00     0.152 A 
HETATM    7  N   UNL     1       3.495  30.230  52.410  1.00  0.00    -0.169 NA
HETATM    8  N   UNL     1       2.824  31.079  53.206  1.00  0.00    -0.281 N 
HETATM    9  C   UNL     1       3.110  30.933  54.534  1.00  0.00     0.036 A 
HETATM   10  H   UNL     1       2.188  31.745  52.777  1.00  0.00     0.189 HD
HETATM   11  C   UNL     1       4.019  29.896  54.618  1.00  0.00    -0.002 A 
HETATM   12  C   UNL     1       4.657  29.333  55.836  1.00  0.00     0.053 C 
BRANCH   9  13
HETATM   13  C   UNL     1       2.486  31.802  55.573  1.00  0.00     0.055 C 
HETATM   14  C   UNL     1       1.680  32.929  54.947  1.00  0.00     0.011 C 
ENDBRANCH   9  13
ENDBRANCH   3   6
ENDBRANCH   1   2
BRANCH   1  15
HETATM   15  C   UNL     1       5.451  24.957  53.630  1.00  0.00     0.254 C 
BRANCH  15  16
HETATM   16  N   UNL     1       6.178  25.560  54.819  1.00  0.00    -0.069 N 
HETATM   17  H   UNL     1       5.936  26.560  54.854  1.00  0.00     0.280 HD
HETATM   18  C   UNL     1       7.694  25.469  54.657  1.00  0.00     0.244 C 
HETATM   19  C   UNL     1       8.129  24.309  55.564  1.00  0.00     0.046 C 
HETATM   20  C   UNL     1       7.202  24.557  56.759  1.00  0.00     0.039 C 
HETATM   21  C   UNL     1       5.853  24.910  56.147  1.00  0.00     0.235 C 
BRANCH  19  22
HETATM   22  C   UNL     1       8.054  22.953  54.864  1.00  0.00    -0.046 A 
HETATM   23  C   UNL     1       8.133  21.743  55.601  1.00  0.00    -0.055 A 
HETATM   24  C   UNL     1       8.226  21.675  57.105  1.00  0.00     0.049 C 
HETATM   25  C   UNL     1       8.149  20.510  54.920  1.00  0.00     0.007 A 
HETATM   26  C   UNL     1       8.028  20.450  53.535  1.00  0.00     0.001 A 
HETATM   27  C   UNL     1       7.878  21.622  52.812  1.00  0.00     0.001 A 
HETATM   28  C   UNL     1       7.884  22.856  53.468  1.00  0.00     0.008 A 
ENDBRANCH  19  22
ENDBRANCH  15  16
ENDBRANCH   1  15
TORSDOF 6
ENDMDL
MODEL 8
REMARK VINA RESULT:      -7.7      5.901      9.146
REMARK  6 active torsions:
REMARK  status: ('A' for Active; 'I' for Inactive)
REMARK    1  A    between atoms: C_2  and  C_3 
REMARK    2  A    between atoms: C_7  and  C_8 
REMARK       I    between atoms: C_8  and  N_9 
REMARK    3  A    between atoms: N_9  and  C_10 
REMARK    4  A    between atoms: C_10  and  C_11 
REMARK    5  A    between atoms: C_11  and  N_12 
REMARK    6  A    between atoms: C_15  and  C_16 
ROOT
HETATM    1  C   UNL     1       4.211  27.323  53.625  1.00  0.00     0.150 C 
ENDROOT
BRANCH   1   2
HETATM    2  N   UNL     1       4.969  26.123  53.893  1.00  0.00    -0.354 N 
HETATM    3  C   UNL     1       6.253  26.145  54.402  1.00  0.00     0.272 C 
HETATM    4  O   UNL     1       6.810  27.194  54.716  1.00  0.00    -0.266 OA
HETATM    5  H   UNL     1       4.659  25.199  53.586  1.00  0.00     0.162 HD
BRANCH   3   6
HETATM    6  C   UNL     1       6.842  24.807  54.561  1.00  0.00     0.152 A 
HETATM    7  N   UNL     1       6.724  24.142  55.729  1.00  0.00    -0.169 NA
HETATM    8  N   UNL     1       7.372  22.986  55.512  1.00  0.00    -0.281 N 
HETATM    9  C   UNL     1       7.925  22.888  54.266  1.00  0.00     0.036 A 
HETATM   10  H   UNL     1       7.409  22.303  56.263  1.00  0.00     0.189 HD
HETATM   11  C   UNL     1       7.597  24.059  53.609  1.00  0.00    -0.002 A 
HETATM   12  C   UNL     1       7.954  24.463  52.225  1.00  0.00     0.053 C 
BRANCH   9  13
HETATM   13  C   UNL     1       8.707  21.691  53.845  1.00  0.00     0.055 C 
HETATM   14  C   UNL     1       7.850  20.715  53.053  1.00  0.00     0.011 C 
ENDBRANCH   9  13
ENDBRANCH   3   6
ENDBRANCH   1   2
BRANCH   1  15
HETATM   15  C   UNL     1       4.101  27.636  52.121  1.00  0.00     0.254 C 
BRANCH  15  16
HETATM   16  N   UNL     1       4.376  29.099  51.819  1.00  0.00    -0.069 N 
HETATM   17  H   UNL     1       4.375  29.605  52.715  1.00  0.00     0.280 HD
HETATM   18  C   UNL     1       3.275  29.711  50.956  1.00  0.00     0.244 C 
HETATM   19  C   UNL     1       3.864  29.784  49.539  1.00  0.00     0.046 C 
HETATM   20  C   UNL     1       5.299  30.197  49.880  1.00  0.00     0.039 C 
HETATM   21  C   UNL     1       5.678  29.353  51.089  1.00  0.00     0.235 C 
BRANCH  19  22
HETATM   22  C   UNL     1       3.655  28.494  48.747  1.00  0.00    -0.046 A 
HETATM   23  C   UNL     1       2.388  28.168  48.200  1.00  0.00    -0.055 A 
HETATM   24  C   UNL     1       1.176  29.064  48.282  1.00  0.00     0.049 C 
HETATM   25  C   UNL     1       2.204  26.932  47.550  1.00  0.00     0.007 A 
HETATM   26  C   UNL     1       3.261  26.043  47.380  1.00  0.00     0.001 A 
HETATM   27  C   UNL     1       4.520  26.383  47.848  1.00  0.00     0.001 A 
HETATM   28  C   UNL     1       4.716  27.595  48.516  1.00  0.00     0.008 A 
ENDBRANCH  19  22
ENDBRANCH  15  16
ENDBRANCH   1  15
TORSDOF 6
ENDMDL
MODEL 9
REMARK VINA RESULT:      -7.6      2.732      8.714
REMARK  6 active torsions:
REMARK  status: ('A' for Active; 'I' for Inactive)
REMARK    1  A    between atoms: C_2  and  C_3 
REMARK    2  A    between atoms: C_7  and  C_8 
REMARK       I    between atoms: C_8  and  N_9 
REMARK    3  A    between atoms: N_9  and  C_10 
REMARK    4  A    between atoms: C_10  and  C_11 
REMARK    5  A    between atoms: C_11  and  N_12 
REMARK    6  A    between atoms: C_15  and  C_16 
ROOT
HETATM    1  C   UNL     1       5.168  27.527  55.704  1.00  0.00     0.150 C 
ENDROOT
BRANCH   1   2
HETATM    2  N   UNL     1       5.814  26.426  55.029  1.00  0.00    -0.354 N 
HETATM    3  C   UNL     1       5.985  25.186  55.611  1.00  0.00     0.272 C 
HETATM    4  O   UNL     1       5.542  24.924  56.727  1.00  0.00    -0.266 OA
HETATM    5  H   UNL     1       6.309  26.542  54.143  1.00  0.00     0.162 HD
BRANCH   3   6
HETATM    6  C   UNL     1       6.699  24.230  54.751  1.00  0.00     0.152 A 
HETATM    7  N   UNL     1       6.429  24.164  53.431  1.00  0.00    -0.169 NA
HETATM    8  N   UNL     1       7.247  23.199  52.979  1.00  0.00    -0.281 N 
HETATM    9  C   UNL     1       8.011  22.622  53.953  1.00  0.00     0.036 A 
HETATM   10  H   UNL     1       7.229  22.974  51.988  1.00  0.00     0.189 HD
HETATM   11  C   UNL     1       7.686  23.272  55.129  1.00  0.00    -0.002 A 
HETATM   12  C   UNL     1       8.229  23.027  56.490  1.00  0.00     0.053 C 
BRANCH   9  13
HETATM   13  C   UNL     1       8.962  21.514  53.654  1.00  0.00     0.055 C 
HETATM   14  C   UNL     1       8.289  20.397  52.872  1.00  0.00     0.011 C 
ENDBRANCH   9  13
ENDBRANCH   3   6
ENDBRANCH   1   2
BRANCH   1  15
HETATM   15  C   UNL     1       6.117  28.715  55.953  1.00  0.00     0.254 C 
BRANCH  15  16
HETATM   16  N   UNL     1       7.542  28.263  56.224  1.00  0.00    -0.069 N 
HETATM   17  H   UNL     1       7.678  27.365  55.741  1.00  0.00     0.280 HD
HETATM   18  C   UNL     1       7.778  28.014  57.712  1.00  0.00     0.244 C 
HETATM   19  C   UNL     1       8.560  29.238  58.210  1.00  0.00     0.046 C 
HETATM   20  C   UNL     1       9.487  29.454  57.009  1.00  0.00     0.039 C 
HETATM   21  C   UNL     1       8.605  29.247  55.785  1.00  0.00     0.235 C 
BRANCH  19  22
HETATM   22  C   UNL     1       7.648  30.388  58.631  1.00  0.00    -0.046 A 
HETATM   23  C   UNL     1       7.858  31.082  59.850  1.00  0.00    -0.055 A 
HETATM   24  C   UNL     1       9.007  30.808  60.790  1.00  0.00     0.049 C 
HETATM   25  C   UNL     1       6.949  32.080  60.253  1.00  0.00     0.007 A 
HETATM   26  C   UNL     1       5.876  32.444  59.447  1.00  0.00     0.001 A 
HETATM   27  C   UNL     1       5.701  31.823  58.221  1.00  0.00     0.001 A 
HETATM   28  C   UNL     1       6.579  30.815  57.815  1.00  0.00     0.008 A 
ENDBRANCH  19  22
ENDBRANCH  15  16
ENDBRANCH   1  15
TORSDOF 6
ENDMDL
MODEL 10
REMARK VINA RESULT:      -7.5      5.596      9.226
REMARK  6 active torsions:
REMARK  status: ('A' for Active; 'I' for Inactive)
REMARK    1  A    between atoms: C_2  and  C_3 
REMARK    2  A    between atoms: C_7  and  C_8 
REMARK       I    between atoms: C_8  and  N_9 
REMARK    3  A    between atoms: N_9  and  C_10 
REMARK    4  A    between atoms: C_10  and  C_11 
REMARK    5  A    between atoms: C_11  and  N_12 
REMARK    6  A    between atoms: C_15  and  C_16 
ROOT
HETATM    1  C   UNL     1       4.997  27.448  53.395  1.00  0.00     0.150 C 
ENDROOT
BRANCH   1   2
HETATM    2  N   UNL     1       4.194  27.592  52.204  1.00  0.00    -0.354 N 
HETATM    3  C   UNL     1       4.258  28.703  51.385  1.00  0.00     0.272 C 
HETATM    4  O   UNL     1       5.053  29.617  51.591  1.00  0.00    -0.266 OA
HETATM    5  H   UNL     1       3.430  26.953  51.978  1.00  0.00     0.162 HD
BRANCH   3   6
HETATM    6  C   UNL     1       3.325  28.646  50.250  1.00  0.00     0.152 A 
HETATM    7  N   UNL     1       2.120  29.249  50.323  1.00  0.00    -0.169 NA
HETATM    8  N   UNL     1       1.554  28.989  49.132  1.00  0.00    -0.281 N 
HETATM    9  C   UNL     1       2.328  28.223  48.308  1.00  0.00     0.036 A 
HETATM   10  H   UNL     1       0.626  29.359  48.947  1.00  0.00     0.189 HD
HETATM   11  C   UNL     1       3.500  27.980  49.000  1.00  0.00    -0.002 A 
HETATM   12  C   UNL     1       4.679  27.193  48.556  1.00  0.00     0.053 C 
BRANCH   9  13
HETATM   13  C   UNL     1       1.862  27.805  46.955  1.00  0.00     0.055 C 
HETATM   14  C   UNL     1       0.387  27.435  46.963  1.00  0.00     0.011 C 
ENDBRANCH   9  13
ENDBRANCH   3   6
ENDBRANCH   1   2
BRANCH   1  15
HETATM   15  C   UNL     1       6.419  26.936  53.098  1.00  0.00     0.254 C 
BRANCH  15  16
HETATM   16  N   UNL     1       6.408  25.591  52.392  1.00  0.00    -0.069 N 
HETATM   17  H   UNL     1       5.871  25.704  51.521  1.00  0.00     0.280 HD
HETATM   18  C   UNL     1       5.697  24.526  53.224  1.00  0.00     0.244 C 
HETATM   19  C   UNL     1       6.818  23.676  53.838  1.00  0.00     0.046 C 
HETATM   20  C   UNL     1       7.782  23.626  52.649  1.00  0.00     0.039 C 
HETATM   21  C   UNL     1       7.781  25.037  52.078  1.00  0.00     0.235 C 
BRANCH  19  22
HETATM   22  C   UNL     1       7.334  24.246  55.159  1.00  0.00    -0.046 A 
HETATM   23  C   UNL     1       8.487  23.711  55.787  1.00  0.00    -0.055 A 
HETATM   24  C   UNL     1       9.333  22.608  55.201  1.00  0.00     0.049 C 
HETATM   25  C   UNL     1       8.887  24.200  57.046  1.00  0.00     0.007 A 
HETATM   26  C   UNL     1       8.206  25.244  57.664  1.00  0.00     0.001 A 
HETATM   27  C   UNL     1       7.120  25.822  57.026  1.00  0.00     0.001 A 
HETATM   28  C   UNL     1       6.695  25.335  55.787  1.00  0.00     0.008 A 
ENDBRANCH  19  22
ENDBRANCH  15  16
ENDBRANCH   1  15
TORSDOF 6
ENDMDL
