MODEL 1
REMARK VINA RESULT:      -8.6      0.000      0.000
REMARK  6 active torsions:
REMARK  status: ('A' for Active; 'I' for Inactive)
REMARK    1  A    between atoms: C_2  and  O_3 
REMARK    2  A    between atoms: O_3  and  C_4 
REMARK    3  A    between atoms: C_4  and  C_5 
REMARK    4  A    between atoms: C_6  and  O_7 
REMARK    5  A    between atoms: C_12  and  O_13 
REMARK    6  A    between atoms: C_17  and  C_18 
ROOT
HETATM    1  C   UNL     1       7.102  26.671  55.738  1.00  0.00     0.133 C 
HETATM    2  C   UNL     1       5.565  26.916  55.898  1.00  0.00     0.073 C 
HETATM    3  C   UNL     1       5.236  27.877  57.052  1.00  0.00     0.047 C 
HETATM    4  C   UNL     1       4.867  27.420  54.603  1.00  0.00     0.097 C 
HETATM    5  C   UNL     1       5.417  26.722  53.415  1.00  0.00     0.042 A 
HETATM    6  C   UNL     1       6.608  26.035  53.327  1.00  0.00     0.030 A 
HETATM    7  C   UNL     1       6.637  25.613  51.989  1.00  0.00     0.190 A 
HETATM    8  N   UNL     1       5.578  25.995  51.285  1.00  0.00    -0.149 NA
HETATM    9  N   UNL     1       4.831  26.658  52.184  1.00  0.00    -0.279 N 
HETATM   10  H   UNL     1       3.943  27.043  51.881  1.00  0.00     0.189 HD
HETATM   11  C   UNL     1       7.563  25.900  54.464  1.00  0.00     0.074 C 
ENDROOT
BRANCH  11  12
HETATM   12  C   UNL     1       7.783  24.409  54.695  1.00  0.00    -0.048 A 
HETATM   13  C   UNL     1       8.336  23.989  55.920  1.00  0.00     0.009 A 
HETATM   14  C   UNL     1       8.556  22.633  56.181  1.00  0.00     0.024 A 
HETATM   15  C   UNL     1       8.216  21.680  55.225  1.00  0.00     0.034 A 
HETATM   16 CL   UNL     1       8.486  20.012  55.546  1.00  0.00    -0.084 Cl
HETATM   17  C   UNL     1       7.659  22.071  54.012  1.00  0.00     0.024 A 
HETATM   18  C   UNL     1       7.443  23.427  53.749  1.00  0.00     0.009 A 
ENDBRANCH  11  12
BRANCH   1  19
HETATM   19  C   UNL     1       7.868  27.977  55.824  1.00  0.00     0.267 C 
HETATM   20  O   UNL     1       7.767  28.862  54.985  1.00  0.00    -0.265 OA
BRANCH  19  21
HETATM   21  O   UNL     1       8.681  28.024  56.910  1.00  0.00    -0.321 OA
BRANCH  21  22
HETATM   22  C   UNL     1       9.196  29.317  57.262  1.00  0.00     0.174 C 
HETATM   23  C   UNL     1      10.663  29.422  56.888  1.00  0.00     0.034 C 
ENDBRANCH  21  22
ENDBRANCH  19  21
ENDBRANCH   1  19
BRANCH   2  24
HETATM   24  O   UNL     1       4.939  25.667  56.260  1.00  0.00    -0.389 OA
HETATM   25  H   UNL     1       5.022  25.546  57.222  1.00  0.00     0.210 HD
ENDBRANCH   2  24
BRANCH   7  26
HETATM   26  O   UNL     1       7.554  24.891  51.342  1.00  0.00    -0.343 OA
HETATM   27  H   UNL     1       8.247  25.478  51.007  1.00  0.00     0.219 HD
ENDBRANCH   7  26
TORSDOF 6
ENDMDL
MODEL 2
REMARK VINA RESULT:      -8.0      3.108      5.853
REMARK  6 active torsions:
REMARK  status: ('A' for Active; 'I' for Inactive)
REMARK    1  A    between atoms: C_2  and  O_3 
REMARK    2  A    between atoms: O_3  and  C_4 
REMARK    3  A    between atoms: C_4  and  C_5 
REMARK    4  A    between atoms: C_6  and  O_7 
REMARK    5  A    between atoms: C_12  and  O_13 
REMARK    6  A    between atoms: C_17  and  C_18 
ROOT
HETATM    1  C   UNL     1       7.673  26.074  55.467  1.00  0.00     0.133 C 
HETATM    2  C   UNL     1       7.330  26.299  53.958  1.00  0.00     0.073 C 
HETATM    3  C   UNL     1       7.842  25.162  53.059  1.00  0.00     0.047 C 
HETATM    4  C   UNL     1       5.817  26.525  53.678  1.00  0.00     0.097 C 
HETATM    5  C   UNL     1       5.218  27.371  54.740  1.00  0.00     0.042 A 
HETATM    6  C   UNL     1       5.727  27.623  55.995  1.00  0.00     0.030 A 
HETATM    7  C   UNL     1       4.751  28.445  56.578  1.00  0.00     0.190 A 
HETATM    8  N   UNL     1       3.716  28.692  55.784  1.00  0.00    -0.149 NA
HETATM    9  N   UNL     1       4.031  28.040  54.653  1.00  0.00    -0.279 N 
HETATM   10  H   UNL     1       3.385  28.091  53.872  1.00  0.00     0.189 HD
HETATM   11  C   UNL     1       7.008  27.043  56.492  1.00  0.00     0.074 C 
ENDROOT
BRANCH  11  12
HETATM   12  C   UNL     1       7.901  28.208  56.905  1.00  0.00    -0.048 A 
HETATM   13  C   UNL     1       7.784  28.719  58.211  1.00  0.00     0.009 A 
HETATM   14  C   UNL     1       8.582  29.785  58.639  1.00  0.00     0.024 A 
HETATM   15  C   UNL     1       9.513  30.345  57.770  1.00  0.00     0.034 A 
HETATM   16 CL   UNL     1      10.495  31.655  58.296  1.00  0.00    -0.084 Cl
HETATM   17  C   UNL     1       9.654  29.849  56.478  1.00  0.00     0.024 A 
HETATM   18  C   UNL     1       8.854  28.786  56.049  1.00  0.00     0.009 A 
ENDBRANCH  11  12
BRANCH   1  19
HETATM   19  C   UNL     1       7.375  24.646  55.880  1.00  0.00     0.267 C 
HETATM   20  O   UNL     1       6.238  24.219  56.022  1.00  0.00    -0.265 OA
BRANCH  19  21
HETATM   21  O   UNL     1       8.508  23.928  56.094  1.00  0.00    -0.321 OA
BRANCH  21  22
HETATM   22  C   UNL     1       8.415  22.514  55.865  1.00  0.00     0.174 C 
HETATM   23  C   UNL     1       9.335  22.101  54.730  1.00  0.00     0.034 C 
ENDBRANCH  21  22
ENDBRANCH  19  21
ENDBRANCH   1  19
BRANCH   2  24
HETATM   24  O   UNL     1       8.027  27.479  53.502  1.00  0.00    -0.389 OA
HETATM   25  H   UNL     1       7.371  28.174  53.317  1.00  0.00     0.210 HD
ENDBRANCH   2  24
BRANCH   7  26
HETATM   26  O   UNL     1       4.722  29.009  57.788  1.00  0.00    -0.343 OA
HETATM   27  H   UNL     1       5.546  28.807  58.255  1.00  0.00     0.219 HD
ENDBRANCH   7  26
TORSDOF 6
ENDMDL
MODEL 3
REMARK VINA RESULT:      -7.6      9.926     12.535
REMARK  6 active torsions:
REMARK  status: ('A' for Active; 'I' for Inactive)
REMARK    1  A    between atoms: C_2  and  O_3 
REMARK    2  A    between atoms: O_3  and  C_4 
REMARK    3  A    between atoms: C_4  and  C_5 
REMARK    4  A    between atoms: C_6  and  O_7 
REMARK    5  A    between atoms: C_12  and  O_13 
REMARK    6  A    between atoms: C_17  and  C_18 
ROOT
HETATM    1  C   UNL     1       5.736  36.261  62.454  1.00  0.00     0.133 C 
HETATM    2  C   UNL     1       5.377  36.634  63.930  1.00  0.00     0.073 C 
HETATM    3  C   UNL     1       5.726  38.091  64.273  1.00  0.00     0.047 C 
HETATM    4  C   UNL     1       3.892  36.366  64.308  1.00  0.00     0.097 C 
HETATM    5  C   UNL     1       3.427  35.095  63.698  1.00  0.00     0.042 A 
HETATM    6  C   UNL     1       3.999  34.414  62.646  1.00  0.00     0.030 A 
HETATM    7  C   UNL     1       3.143  33.317  62.470  1.00  0.00     0.190 A 
HETATM    8  N   UNL     1       2.121  33.295  63.317  1.00  0.00    -0.149 NA
HETATM    9  N   UNL     1       2.324  34.386  64.075  1.00  0.00    -0.279 N 
HETATM   10  H   UNL     1       1.665  34.583  64.822  1.00  0.00     0.189 HD
HETATM   11  C   UNL     1       5.218  34.887  61.929  1.00  0.00     0.074 C 
ENDROOT
BRANCH  11  12
HETATM   12  C   UNL     1       6.253  33.770  62.012  1.00  0.00    -0.048 A 
HETATM   13  C   UNL     1       6.528  33.016  60.854  1.00  0.00     0.009 A 
HETATM   14  C   UNL     1       7.469  31.983  60.877  1.00  0.00     0.024 A 
HETATM   15  C   UNL     1       8.154  31.696  62.054  1.00  0.00     0.034 A 
HETATM   16 CL   UNL     1       9.312  30.425  62.081  1.00  0.00    -0.084 Cl
HETATM   17  C   UNL     1       7.907  32.434  63.207  1.00  0.00     0.024 A 
HETATM   18  C   UNL     1       6.963  33.465  63.185  1.00  0.00     0.009 A 
ENDBRANCH  11  12
BRANCH   1  19
HETATM   19  C   UNL     1       5.288  37.349  61.499  1.00  0.00     0.267 C 
HETATM   20  O   UNL     1       4.118  37.511  61.177  1.00  0.00    -0.265 OA
BRANCH  19  21
HETATM   21  O   UNL     1       6.330  38.086  61.035  1.00  0.00    -0.321 OA
BRANCH  21  22
HETATM   22  C   UNL     1       6.096  39.495  60.889  1.00  0.00     0.174 C 
HETATM   23  C   UNL     1       7.191  40.287  61.579  1.00  0.00     0.034 C 
ENDBRANCH  21  22
ENDBRANCH  19  21
ENDBRANCH   1  19
BRANCH   2  24
HETATM   24  O   UNL     1       6.191  35.835  64.814  1.00  0.00    -0.389 OA
HETATM   25  H   UNL     1       6.807  36.424  65.285  1.00  0.00     0.210 HD
ENDBRANCH   2  24
BRANCH   7  26
HETATM   26  O   UNL     1       3.216  32.309  61.599  1.00  0.00    -0.343 OA
HETATM   27  H   UNL     1       2.550  32.435  60.907  1.00  0.00     0.219 HD
ENDBRANCH   7  26
TORSDOF 6
ENDMDL
MODEL 4
REMARK VINA RESULT:      -7.6      3.391      5.469
REMARK  6 active torsions:
REMARK  status: ('A' for Active; 'I' for Inactive)
REMARK    1  A    between atoms: C_2  and  O_3 
REMARK    2  A    between atoms: O_3  and  C_4 
REMARK    3  A    between atoms: C_4  and  C_5 
REMARK    4  A    between atoms: C_6  and  O_7 
REMARK    5  A    between atoms: C_12  and  O_13 
REMARK    6  A    between atoms: C_17  and  C_18 
ROOT
HETATM    1  C   UNL     1       6.240  25.516  55.367  1.00  0.00     0.133 C 
HETATM    2  C   UNL     1       5.453  26.169  56.551  1.00  0.00     0.073 C 
HETATM    3  C   UNL     1       4.749  25.130  57.438  1.00  0.00     0.047 C 
HETATM    4  C   UNL     1       6.318  27.100  57.448  1.00  0.00     0.097 C 
HETATM    5  C   UNL     1       7.256  27.891  56.615  1.00  0.00     0.042 A 
HETATM    6  C   UNL     1       7.650  27.630  55.321  1.00  0.00     0.030 A 
HETATM    7  C   UNL     1       8.555  28.666  55.045  1.00  0.00     0.190 A 
HETATM    8  N   UNL     1       8.733  29.505  56.058  1.00  0.00    -0.149 NA
HETATM    9  N   UNL     1       7.912  29.023  57.007  1.00  0.00    -0.279 N 
HETATM   10  H   UNL     1       7.859  29.514  57.893  1.00  0.00     0.189 HD
HETATM   11  C   UNL     1       7.174  26.451  54.542  1.00  0.00     0.074 C 
ENDROOT
BRANCH  11  12
HETATM   12  C   UNL     1       6.537  26.982  53.262  1.00  0.00    -0.048 A 
HETATM   13  C   UNL     1       6.400  26.112  52.163  1.00  0.00     0.009 A 
HETATM   14  C   UNL     1       5.821  26.550  50.969  1.00  0.00     0.024 A 
HETATM   15  C   UNL     1       5.362  27.859  50.861  1.00  0.00     0.034 A 
HETATM   16 CL   UNL     1       4.650  28.398  49.392  1.00  0.00    -0.084 Cl
HETATM   17  C   UNL     1       5.478  28.734  51.937  1.00  0.00     0.024 A 
HETATM   18  C   UNL     1       6.060  28.297  53.130  1.00  0.00     0.009 A 
ENDBRANCH  11  12
BRANCH   1  19
HETATM   19  C   UNL     1       7.042  24.322  55.846  1.00  0.00     0.267 C 
HETATM   20  O   UNL     1       7.855  24.390  56.758  1.00  0.00    -0.265 OA
BRANCH  19  21
HETATM   21  O   UNL     1       6.768  23.200  55.132  1.00  0.00    -0.321 OA
BRANCH  21  22
HETATM   22  C   UNL     1       7.883  22.576  54.477  1.00  0.00     0.174 C 
HETATM   23  C   UNL     1       7.810  22.804  52.978  1.00  0.00     0.034 C 
ENDBRANCH  21  22
ENDBRANCH  19  21
ENDBRANCH   1  19
BRANCH   2  24
HETATM   24  O   UNL     1       4.389  26.976  56.003  1.00  0.00    -0.389 OA
HETATM   25  H   UNL     1       3.785  27.224  56.725  1.00  0.00     0.210 HD
ENDBRANCH   2  24
BRANCH   7  26
HETATM   26  O   UNL     1       9.240  28.926  53.929  1.00  0.00    -0.343 OA
HETATM   27  H   UNL     1       9.540  29.847  53.945  1.00  0.00     0.219 HD
ENDBRANCH   7  26
TORSDOF 6
ENDMDL
MODEL 5
REMARK VINA RESULT:      -7.3      9.255     11.560
REMARK  6 active torsions:
REMARK  status: ('A' for Active; 'I' for Inactive)
REMARK    1  A    between atoms: C_2  and  O_3 
REMARK    2  A    between atoms: O_3  and  C_4 
REMARK    3  A    between atoms: C_4  and  C_5 
REMARK    4  A    between atoms: C_6  and  O_7 
REMARK    5  A    between atoms: C_12  and  O_13 
REMARK    6  A    between atoms: C_17  and  C_18 
ROOT
HETATM    1  C   UNL     1       5.327  35.090  63.165  1.00  0.00     0.133 C 
HETATM    2  C   UNL     1       4.093  34.586  63.983  1.00  0.00     0.073 C 
HETATM    3  C   UNL     1       3.750  35.507  65.165  1.00  0.00     0.047 C 
HETATM    4  C   UNL     1       2.814  34.362  63.127  1.00  0.00     0.097 C 
HETATM    5  C   UNL     1       3.169  33.760  61.818  1.00  0.00     0.042 A 
HETATM    6  C   UNL     1       4.408  33.743  61.215  1.00  0.00     0.030 A 
HETATM    7  C   UNL     1       4.164  33.084  60.000  1.00  0.00     0.190 A 
HETATM    8  N   UNL     1       2.898  32.721  59.834  1.00  0.00    -0.149 NA
HETATM    9  N   UNL     1       2.307  33.129  60.969  1.00  0.00    -0.279 N 
HETATM   10  H   UNL     1       1.315  32.947  61.087  1.00  0.00     0.189 HD
HETATM   11  C   UNL     1       5.622  34.365  61.818  1.00  0.00     0.074 C 
ENDROOT
BRANCH  11  12
HETATM   12  C   UNL     1       6.682  33.273  61.928  1.00  0.00    -0.048 A 
HETATM   13  C   UNL     1       7.611  33.126  60.880  1.00  0.00     0.009 A 
HETATM   14  C   UNL     1       8.603  32.142  60.935  1.00  0.00     0.024 A 
HETATM   15  C   UNL     1       8.685  31.301  62.040  1.00  0.00     0.034 A 
HETATM   16 CL   UNL     1       9.905  30.092  62.106  1.00  0.00    -0.084 Cl
HETATM   17  C   UNL     1       7.784  31.435  63.091  1.00  0.00     0.024 A 
HETATM   18  C   UNL     1       6.789  32.416  63.035  1.00  0.00     0.009 A 
ENDBRANCH  11  12
BRANCH   1  19
HETATM   19  C   UNL     1       5.229  36.581  62.906  1.00  0.00     0.267 C 
HETATM   20  O   UNL     1       4.465  37.063  62.080  1.00  0.00    -0.265 OA
BRANCH  19  21
HETATM   21  O   UNL     1       6.096  37.292  63.671  1.00  0.00    -0.321 OA
BRANCH  21  22
HETATM   22  C   UNL     1       6.334  38.649  63.266  1.00  0.00     0.174 C 
HETATM   23  C   UNL     1       6.243  39.581  64.462  1.00  0.00     0.034 C 
ENDBRANCH  21  22
ENDBRANCH  19  21
ENDBRANCH   1  19
BRANCH   2  24
HETATM   24  O   UNL     1       4.430  33.317  64.583  1.00  0.00    -0.389 OA
HETATM   25  H   UNL     1       3.644  32.743  64.558  1.00  0.00     0.210 HD
ENDBRANCH   2  24
BRANCH   7  26
HETATM   26  O   UNL     1       5.009  32.770  59.016  1.00  0.00    -0.343 OA
HETATM   27  H   UNL     1       5.670  33.471  58.924  1.00  0.00     0.219 HD
ENDBRANCH   7  26
TORSDOF 6
ENDMDL
MODEL 6
REMARK VINA RESULT:      -7.1      3.992      6.509
REMARK  6 active torsions:
REMARK  status: ('A' for Active; 'I' for Inactive)
REMARK    1  A    between atoms: C_2  and  O_3 
REMARK    2  A    between atoms: O_3  and  C_4 
REMARK    3  A    between atoms: C_4  and  C_5 
REMARK    4  A    between atoms: C_6  and  O_7 
REMARK    5  A    between atoms: C_12  and  O_13 
REMARK    6  A    between atoms: C_17  and  C_18 
ROOT
HETATM    1  C   UNL     1       4.102  28.536  50.682  1.00  0.00     0.133 C 
HETATM    2  C   UNL     1       4.836  29.898  50.449  1.00  0.00     0.073 C 
HETATM    3  C   UNL     1       4.636  30.441  49.024  1.00  0.00     0.047 C 
HETATM    4  C   UNL     1       4.457  31.006  51.472  1.00  0.00     0.097 C 
HETATM    5  C   UNL     1       4.320  30.426  52.831  1.00  0.00     0.042 A 
HETATM    6  C   UNL     1       4.142  29.100  53.160  1.00  0.00     0.030 A 
HETATM    7  C   UNL     1       4.045  29.127  54.560  1.00  0.00     0.190 A 
HETATM    8  N   UNL     1       4.142  30.345  55.079  1.00  0.00    -0.149 NA
HETATM    9  N   UNL     1       4.331  31.127  54.002  1.00  0.00    -0.279 N 
HETATM   10  H   UNL     1       4.449  32.125  54.147  1.00  0.00     0.189 HD
HETATM   11  C   UNL     1       4.046  28.010  52.148  1.00  0.00     0.074 C 
ENDROOT
BRANCH  11  12
HETATM   12  C   UNL     1       5.132  26.991  52.477  1.00  0.00    -0.048 A 
HETATM   13  C   UNL     1       4.826  25.620  52.374  1.00  0.00     0.009 A 
HETATM   14  C   UNL     1       5.787  24.647  52.662  1.00  0.00     0.024 A 
HETATM   15  C   UNL     1       7.068  25.031  53.047  1.00  0.00     0.034 A 
HETATM   16 CL   UNL     1       8.250  23.833  53.401  1.00  0.00    -0.084 Cl
HETATM   17  C   UNL     1       7.396  26.379  53.145  1.00  0.00     0.024 A 
HETATM   18  C   UNL     1       6.434  27.353  52.860  1.00  0.00     0.009 A 
ENDBRANCH  11  12
BRANCH   1  19
HETATM   19  C   UNL     1       2.694  28.581  50.123  1.00  0.00     0.267 C 
HETATM   20  O   UNL     1       1.790  29.217  50.650  1.00  0.00    -0.265 OA
BRANCH  19  21
HETATM   21  O   UNL     1       2.560  27.821  49.006  1.00  0.00    -0.321 OA
BRANCH  21  22
HETATM   22  C   UNL     1       3.609  26.873  48.755  1.00  0.00     0.174 C 
HETATM   23  C   UNL     1       3.046  25.625  48.099  1.00  0.00     0.034 C 
ENDBRANCH  21  22
ENDBRANCH  19  21
ENDBRANCH   1  19
BRANCH   2  24
HETATM   24  O   UNL     1       6.258  29.677  50.569  1.00  0.00    -0.389 OA
HETATM   25  H   UNL     1       6.660  30.463  50.980  1.00  0.00     0.210 HD
ENDBRANCH   2  24
BRANCH   7  26
HETATM   26  O   UNL     1       3.881  28.123  55.423  1.00  0.00    -0.343 OA
HETATM   27  H   UNL     1       4.735  27.693  55.581  1.00  0.00     0.219 HD
ENDBRANCH   7  26
TORSDOF 6
ENDMDL
MODEL 7
REMARK VINA RESULT:      -6.9     10.590     12.897
REMARK  6 active torsions:
REMARK  status: ('A' for Active; 'I' for Inactive)
REMARK    1  A    between atoms: C_2  and  O_3 
REMARK    2  A    between atoms: O_3  and  C_4 
REMARK    3  A    between atoms: C_4  and  C_5 
REMARK    4  A    between atoms: C_6  and  O_7 
REMARK    5  A    between atoms: C_12  and  O_13 
REMARK    6  A    between atoms: C_17  and  C_18 
ROOT
HETATM    1  C   UNL     1       4.632  35.585  61.725  1.00  0.00     0.133 C 
HETATM    2  C   UNL     1       5.196  36.993  62.108  1.00  0.00     0.073 C 
HETATM    3  C   UNL     1       4.836  38.075  61.076  1.00  0.00     0.047 C 
HETATM    4  C   UNL     1       4.774  37.481  63.522  1.00  0.00     0.097 C 
HETATM    5  C   UNL     1       4.799  36.352  64.485  1.00  0.00     0.042 A 
HETATM    6  C   UNL     1       4.789  35.005  64.195  1.00  0.00     0.030 A 
HETATM    7  C   UNL     1       4.791  34.403  65.462  1.00  0.00     0.190 A 
HETATM    8  N   UNL     1       4.794  35.272  66.466  1.00  0.00    -0.149 NA
HETATM    9  N   UNL     1       4.818  36.463  65.845  1.00  0.00    -0.279 N 
HETATM   10  H   UNL     1       4.838  37.303  66.415  1.00  0.00     0.189 HD
HETATM   11  C   UNL     1       4.739  34.467  62.805  1.00  0.00     0.074 C 
ENDROOT
BRANCH  11  12
HETATM   12  C   UNL     1       5.950  33.556  62.629  1.00  0.00    -0.048 A 
HETATM   13  C   UNL     1       5.989  32.691  61.519  1.00  0.00     0.009 A 
HETATM   14  C   UNL     1       7.078  31.839  61.312  1.00  0.00     0.024 A 
HETATM   15  C   UNL     1       8.144  31.847  62.206  1.00  0.00     0.034 A 
HETATM   16 CL   UNL     1       9.482  30.798  61.950  1.00  0.00    -0.084 Cl
HETATM   17  C   UNL     1       8.131  32.700  63.304  1.00  0.00     0.024 A 
HETATM   18  C   UNL     1       7.041  33.550  63.513  1.00  0.00     0.009 A 
ENDBRANCH  11  12
BRANCH   1  19
HETATM   19  C   UNL     1       3.191  35.688  61.268  1.00  0.00     0.267 C 
HETATM   20  O   UNL     1       2.257  35.838  62.044  1.00  0.00    -0.265 OA
BRANCH  19  21
HETATM   21  O   UNL     1       3.069  35.566  59.921  1.00  0.00    -0.321 OA
BRANCH  21  22
HETATM   22  C   UNL     1       3.201  34.240  59.388  1.00  0.00     0.174 C 
HETATM   23  C   UNL     1       4.312  34.193  58.354  1.00  0.00     0.034 C 
ENDBRANCH  21  22
ENDBRANCH  19  21
ENDBRANCH   1  19
BRANCH   2  24
HETATM   24  O   UNL     1       6.638  36.927  62.094  1.00  0.00    -0.389 OA
HETATM   25  H   UNL     1       6.964  37.069  63.000  1.00  0.00     0.210 HD
ENDBRANCH   2  24
BRANCH   7  26
HETATM   26  O   UNL     1       4.800  33.111  65.793  1.00  0.00    -0.343 OA
HETATM   27  H   UNL     1       4.337  32.992  66.635  1.00  0.00     0.219 HD
ENDBRANCH   7  26
TORSDOF 6
ENDMDL
MODEL 8
REMARK VINA RESULT:      -6.7      4.286      7.057
REMARK  6 active torsions:
REMARK  status: ('A' for Active; 'I' for Inactive)
REMARK    1  A    between atoms: C_2  and  O_3 
REMARK    2  A    between atoms: O_3  and  C_4 
REMARK    3  A    between atoms: C_4  and  C_5 
REMARK    4  A    between atoms: C_6  and  O_7 
REMARK    5  A    between atoms: C_12  and  O_13 
REMARK    6  A    between atoms: C_17  and  C_18 
ROOT
HETATM    1  C   UNL     1       4.466  26.946  49.280  1.00  0.00     0.133 C 
HETATM    2  C   UNL     1       5.114  28.257  48.727  1.00  0.00     0.073 C 
HETATM    3  C   UNL     1       5.175  28.284  47.190  1.00  0.00     0.047 C 
HETATM    4  C   UNL     1       4.434  29.562  49.230  1.00  0.00     0.097 C 
HETATM    5  C   UNL     1       4.062  29.429  50.660  1.00  0.00     0.042 A 
HETATM    6  C   UNL     1       3.931  28.265  51.386  1.00  0.00     0.030 A 
HETATM    7  C   UNL     1       3.538  28.720  52.654  1.00  0.00     0.190 A 
HETATM    8  N   UNL     1       3.420  30.039  52.736  1.00  0.00    -0.149 NA
HETATM    9  N   UNL     1       3.765  30.458  51.506  1.00  0.00    -0.279 N 
HETATM   10  H   UNL     1       3.765  31.456  51.320  1.00  0.00     0.189 HD
HETATM   11  C   UNL     1       4.145  26.909  50.805  1.00  0.00     0.074 C 
ENDROOT
BRANCH  11  12
HETATM   12  C   UNL     1       5.219  26.222  51.642  1.00  0.00    -0.048 A 
HETATM   13  C   UNL     1       4.958  24.937  52.154  1.00  0.00     0.009 A 
HETATM   14  C   UNL     1       5.910  24.265  52.926  1.00  0.00     0.024 A 
HETATM   15  C   UNL     1       7.139  24.864  53.186  1.00  0.00     0.034 A 
HETATM   16 CL   UNL     1       8.311  24.037  54.134  1.00  0.00    -0.084 Cl
HETATM   17  C   UNL     1       7.423  26.129  52.681  1.00  0.00     0.024 A 
HETATM   18  C   UNL     1       6.469  26.803  51.913  1.00  0.00     0.009 A 
ENDBRANCH  11  12
BRANCH   1  19
HETATM   19  C   UNL     1       3.209  26.598  48.507  1.00  0.00     0.267 C 
HETATM   20  O   UNL     1       3.157  25.676  47.704  1.00  0.00    -0.265 OA
BRANCH  19  21
HETATM   21  O   UNL     1       2.182  27.439  48.793  1.00  0.00    -0.321 OA
BRANCH  21  22
HETATM   22  C   UNL     1       1.097  27.458  47.852  1.00  0.00     0.174 C 
HETATM   23  C   UNL     1       1.293  28.575  46.843  1.00  0.00     0.034 C 
ENDBRANCH  21  22
ENDBRANCH  19  21
ENDBRANCH   1  19
BRANCH   2  24
HETATM   24  O   UNL     1       6.492  28.302  49.157  1.00  0.00    -0.389 OA
HETATM   25  H   UNL     1       7.049  28.523  48.390  1.00  0.00     0.210 HD
ENDBRANCH   2  24
BRANCH   7  26
HETATM   26  O   UNL     1       3.281  28.029  53.766  1.00  0.00    -0.343 OA
HETATM   27  H   UNL     1       2.670  28.533  54.323  1.00  0.00     0.219 HD
ENDBRANCH   7  26
TORSDOF 6
ENDMDL
MODEL 9
REMARK VINA RESULT:      -6.7      4.704      6.749
REMARK  6 active torsions:
REMARK  status: ('A' for Active; 'I' for Inactive)
REMARK    1  A    between atoms: C_2  and  O_3 
REMARK    2  A    between atoms: O_3  and  C_4 
REMARK    3  A    between atoms: C_4  and  C_5 
REMARK    4  A    between atoms: C_6  and  O_7 
REMARK    5  A    between atoms: C_12  and  O_13 
REMARK    6  A    between atoms: C_17  and  C_18 
ROOT
HETATM    1  C   UNL     1       5.211  27.020  51.945  1.00  0.00     0.133 C 
HETATM    2  C   UNL     1       4.462  27.589  53.195  1.00  0.00     0.073 C 
HETATM    3  C   UNL     1       4.668  26.726  54.451  1.00  0.00     0.047 C 
HETATM    4  C   UNL     1       4.818  29.065  53.529  1.00  0.00     0.097 C 
HETATM    5  C   UNL     1       4.950  29.858  52.282  1.00  0.00     0.042 A 
HETATM    6  C   UNL     1       5.142  29.380  51.004  1.00  0.00     0.030 A 
HETATM    7  C   UNL     1       5.226  30.550  50.233  1.00  0.00     0.190 A 
HETATM    8  N   UNL     1       5.108  31.666  50.942  1.00  0.00    -0.149 NA
HETATM    9  N   UNL     1       4.920  31.220  52.195  1.00  0.00    -0.279 N 
HETATM   10  H   UNL     1       4.787  31.902  52.934  1.00  0.00     0.189 HD
HETATM   11  C   UNL     1       5.261  27.930  50.680  1.00  0.00     0.074 C 
ENDROOT
BRANCH  11  12
HETATM   12  C   UNL     1       4.185  27.607  49.649  1.00  0.00    -0.048 A 
HETATM   13  C   UNL     1       2.967  28.312  49.699  1.00  0.00     0.009 A 
HETATM   14  C   UNL     1       1.950  28.054  48.775  1.00  0.00     0.024 A 
HETATM   15  C   UNL     1       2.142  27.097  47.783  1.00  0.00     0.034 A 
HETATM   16 CL   UNL     1       0.891  26.780  46.647  1.00  0.00    -0.084 Cl
HETATM   17  C   UNL     1       3.341  26.395  47.708  1.00  0.00     0.024 A 
HETATM   18  C   UNL     1       4.356  26.650  48.634  1.00  0.00     0.009 A 
ENDBRANCH  11  12
BRANCH   1  19
HETATM   19  C   UNL     1       6.624  26.606  52.306  1.00  0.00     0.267 C 
HETATM   20  O   UNL     1       7.347  27.273  53.033  1.00  0.00    -0.265 OA
BRANCH  19  21
HETATM   21  O   UNL     1       6.986  25.441  51.709  1.00  0.00    -0.321 OA
BRANCH  21  22
HETATM   22  C   UNL     1       7.856  24.584  52.464  1.00  0.00     0.174 C 
HETATM   23  C   UNL     1       7.046  23.668  53.363  1.00  0.00     0.034 C 
ENDBRANCH  21  22
ENDBRANCH  19  21
ENDBRANCH   1  19
BRANCH   2  24
HETATM   24  O   UNL     1       3.042  27.542  52.937  1.00  0.00    -0.389 OA
HETATM   25  H   UNL     1       2.717  28.453  52.827  1.00  0.00     0.210 HD
ENDBRANCH   2  24
BRANCH   7  26
HETATM   26  O   UNL     1       5.394  30.694  48.917  1.00  0.00    -0.343 OA
HETATM   27  H   UNL     1       4.632  31.162  48.546  1.00  0.00     0.219 HD
ENDBRANCH   7  26
TORSDOF 6
ENDMDL
MODEL 10
REMARK VINA RESULT:      -6.7      5.480      7.007
REMARK  6 active torsions:
REMARK  status: ('A' for Active; 'I' for Inactive)
REMARK    1  A    between atoms: C_2  and  O_3 
REMARK    2  A    between atoms: O_3  and  C_4 
REMARK    3  A    between atoms: C_4  and  C_5 
REMARK    4  A    between atoms: C_6  and  O_7 
REMARK    5  A    between atoms: C_12  and  O_13 
REMARK    6  A    between atoms: C_17  and  C_18 
ROOT
HETATM    1  C   UNL     1       3.296  29.889  49.882  1.00  0.00     0.133 C 
HETATM    2  C   UNL     1       1.781  29.499  49.847  1.00  0.00     0.073 C 
HETATM    3  C   UNL     1       0.856  30.690  50.150  1.00  0.00     0.047 C 
HETATM    4  C   UNL     1       1.329  28.832  48.517  1.00  0.00     0.097 C 
HETATM    5  C   UNL     1       2.376  27.903  48.025  1.00  0.00     0.042 A 
HETATM    6  C   UNL     1       3.705  27.873  48.389  1.00  0.00     0.030 A 
HETATM    7  C   UNL     1       4.229  26.834  47.606  1.00  0.00     0.190 A 
HETATM    8  N   UNL     1       3.333  26.258  46.813  1.00  0.00    -0.149 NA
HETATM    9  N   UNL     1       2.197  26.916  47.099  1.00  0.00    -0.279 N 
HETATM   10  H   UNL     1       1.347  26.641  46.618  1.00  0.00     0.189 HD
HETATM   11  C   UNL     1       4.309  28.823  49.367  1.00  0.00     0.074 C 
ENDROOT
BRANCH  11  12
HETATM   12  C   UNL     1       4.939  27.989  50.478  1.00  0.00    -0.048 A 
HETATM   13  C   UNL     1       5.625  28.650  51.514  1.00  0.00     0.009 A 
HETATM   14  C   UNL     1       6.218  27.931  52.556  1.00  0.00     0.024 A 
HETATM   15  C   UNL     1       6.124  26.543  52.580  1.00  0.00     0.034 A 
HETATM   16 CL   UNL     1       6.853  25.659  53.862  1.00  0.00    -0.084 Cl
HETATM   17  C   UNL     1       5.442  25.868  51.573  1.00  0.00     0.024 A 
HETATM   18  C   UNL     1       4.852  26.587  50.529  1.00  0.00     0.009 A 
ENDBRANCH  11  12
BRANCH   1  19
HETATM   19  C   UNL     1       3.534  31.189  49.139  1.00  0.00     0.267 C 
HETATM   20  O   UNL     1       3.419  31.292  47.925  1.00  0.00    -0.265 OA
BRANCH  19  21
HETATM   21  O   UNL     1       3.911  32.194  49.971  1.00  0.00    -0.321 OA
BRANCH  21  22
HETATM   22  C   UNL     1       5.308  32.264  50.291  1.00  0.00     0.174 C 
HETATM   23  C   UNL     1       6.000  33.295  49.417  1.00  0.00     0.034 C 
ENDBRANCH  21  22
ENDBRANCH  19  21
ENDBRANCH   1  19
BRANCH   2  24
HETATM   24  O   UNL     1       1.529  28.550  50.906  1.00  0.00    -0.389 OA
HETATM   25  H   UNL     1       1.268  27.702  50.506  1.00  0.00     0.210 HD
ENDBRANCH   2  24
BRANCH   7  26
HETATM   26  O   UNL     1       5.471  26.347  47.553  1.00  0.00    -0.343 OA
HETATM   27  H   UNL     1       6.059  26.912  48.076  1.00  0.00     0.219 HD
ENDBRANCH   7  26
TORSDOF 6
ENDMDL
