MODEL 1
REMARK VINA RESULT:      -9.3      0.000      0.000
REMARK  8 active torsions:
REMARK  status: ('A' for Active; 'I' for Inactive)
REMARK    1  A    between atoms: O_2  and  C_3 
REMARK    2  A    between atoms: C_3  and  C_4 
REMARK    3  A    between atoms: C_6  and  C_7 
REMARK    4  A    between atoms: C_7  and  N_8 
REMARK    5  A    between atoms: C_17  and  C_18 
REMARK    6  A    between atoms: C_18  and  N_19 
REMARK    7  A    between atoms: C_23  and  O_24 
REMARK    8  A    between atoms: C_23  and  C_25 
ROOT
HETATM    1  N   UNL     1       7.564  25.495  57.528  1.00  0.00    -0.059 N 
HETATM    2  H   UNL     1       7.348  25.765  58.500  1.00  0.00     0.280 HD
HETATM    3  C   UNL     1       6.217  25.219  56.908  1.00  0.00     0.276 C 
HETATM    4  C   UNL     1       6.235  25.076  55.412  1.00  0.00     0.002 A 
HETATM    5  C   UNL     1       6.960  24.045  54.815  1.00  0.00     0.076 A 
HETATM    6  O   UNL     1       7.624  23.121  55.573  1.00  0.00    -0.349 OA
HETATM    7  C   UNL     1       8.776  23.675  56.224  1.00  0.00     0.203 C 
HETATM    8  C   UNL     1       8.433  24.254  57.604  1.00  0.00     0.262 C 
HETATM    9  C   UNL     1       5.513  25.959  54.588  1.00  0.00     0.020 A 
HETATM   10  C   UNL     1       5.506  25.810  53.188  1.00  0.00    -0.032 A 
HETATM   11  C   UNL     1       6.249  24.765  52.618  1.00  0.00     0.011 A 
HETATM   12  C   UNL     1       6.957  23.876  53.432  1.00  0.00     0.038 A 
ENDROOT
BRANCH  10  13
HETATM   13  C   UNL     1       4.709  26.763  52.327  1.00  0.00     0.273 C 
BRANCH  13  14
HETATM   14  N   UNL     1       5.198  26.921  50.896  1.00  0.00    -0.067 N 
HETATM   15  H   UNL     1       6.165  26.568  50.877  1.00  0.00     0.280 HD
HETATM   16  C   UNL     1       4.409  26.108  49.896  1.00  0.00     0.238 C 
HETATM   17  C   UNL     1       4.998  26.300  48.510  1.00  0.00     0.071 C 
HETATM   18  C   UNL     1       4.939  27.774  48.062  1.00  0.00     0.089 C 
HETATM   19  C   UNL     1       5.742  28.581  49.101  1.00  0.00     0.071 C 
HETATM   20  C   UNL     1       5.248  28.390  50.527  1.00  0.00     0.238 C 
BRANCH  18  21
HETATM   21  O   UNL     1       5.677  27.854  46.842  1.00  0.00    -0.385 OA
HETATM   22  H   UNL     1       6.609  27.604  46.994  1.00  0.00     0.211 HD
ENDBRANCH  18  21
BRANCH  18  23
HETATM   23  C   UNL     1       3.514  28.241  47.789  1.00  0.00    -0.006 A 
HETATM   24  C   UNL     1       3.065  29.534  48.046  1.00  0.00     0.126 A 
HETATM   25  N   UNL     1       1.791  29.953  47.885  1.00  0.00    -0.272 NA
HETATM   26  C   UNL     1       0.912  29.077  47.358  1.00  0.00     0.116 A 
HETATM   27  C   UNL     1       1.255  27.788  47.003  1.00  0.00     0.020 A 
HETATM   28  C   UNL     1       2.567  27.372  47.219  1.00  0.00     0.013 A 
ENDBRANCH  18  23
ENDBRANCH  13  14
ENDBRANCH  10  13
BRANCH   1  29
HETATM   29  C   UNL     1       8.291  26.710  56.988  1.00  0.00     0.299 C 
BRANCH  29  30
HETATM   30  C   UNL     1       7.675  28.007  57.354  1.00  0.00     0.079 A 
HETATM   31  O   UNL     1       8.223  28.665  58.416  1.00  0.00    -0.316 OA
HETATM   32  C   UNL     1       7.558  29.853  58.544  1.00  0.00     0.077 A 
HETATM   33  C   UNL     1       6.559  29.930  57.596  1.00  0.00     0.037 A 
HETATM   34  C   UNL     1       6.635  28.743  56.829  1.00  0.00     0.037 A 
BRANCH  32  35
HETATM   35  C   UNL     1       8.020  30.787  59.607  1.00  0.00     0.231 C 
BRANCH  35  36
HETATM   36  O   UNL     1       8.618  31.901  58.951  1.00  0.00    -0.390 OA
HETATM   37  C   UNL     1       9.970  31.630  58.597  1.00  0.00     0.201 C 
ENDBRANCH  35  36
ENDBRANCH  32  35
ENDBRANCH  29  30
ENDBRANCH   1  29
TORSDOF 8
ENDMDL
MODEL 2
REMARK VINA RESULT:      -8.7      1.369      1.672
REMARK  8 active torsions:
REMARK  status: ('A' for Active; 'I' for Inactive)
REMARK    1  A    between atoms: O_2  and  C_3 
REMARK    2  A    between atoms: C_3  and  C_4 
REMARK    3  A    between atoms: C_6  and  C_7 
REMARK    4  A    between atoms: C_7  and  N_8 
REMARK    5  A    between atoms: C_17  and  C_18 
REMARK    6  A    between atoms: C_18  and  N_19 
REMARK    7  A    between atoms: C_23  and  O_24 
REMARK    8  A    between atoms: C_23  and  C_25 
ROOT
HETATM    1  N   UNL     1       7.652  25.589  57.602  1.00  0.00    -0.059 N 
HETATM    2  H   UNL     1       7.357  25.969  58.514  1.00  0.00     0.280 HD
HETATM    3  C   UNL     1       6.396  24.989  57.022  1.00  0.00     0.276 C 
HETATM    4  C   UNL     1       6.495  24.614  55.570  1.00  0.00     0.002 A 
HETATM    5  C   UNL     1       7.405  23.640  55.158  1.00  0.00     0.076 A 
HETATM    6  O   UNL     1       8.185  22.978  56.065  1.00  0.00    -0.349 OA
HETATM    7  C   UNL     1       9.202  23.818  56.628  1.00  0.00     0.203 C 
HETATM    8  C   UNL     1       8.713  24.544  57.891  1.00  0.00     0.262 C 
HETATM    9  C   UNL     1       5.667  25.216  54.604  1.00  0.00     0.020 A 
HETATM   10  C   UNL     1       5.739  24.845  53.248  1.00  0.00    -0.032 A 
HETATM   11  C   UNL     1       6.668  23.866  52.866  1.00  0.00     0.011 A 
HETATM   12  C   UNL     1       7.484  23.254  53.822  1.00  0.00     0.038 A 
ENDROOT
BRANCH  10  13
HETATM   13  C   UNL     1       4.827  25.497  52.233  1.00  0.00     0.273 C 
BRANCH  13  14
HETATM   14  N   UNL     1       5.392  26.723  51.536  1.00  0.00    -0.067 N 
HETATM   15  H   UNL     1       6.412  26.591  51.491  1.00  0.00     0.280 HD
HETATM   16  C   UNL     1       4.904  26.886  50.115  1.00  0.00     0.238 C 
HETATM   17  C   UNL     1       5.555  28.110  49.494  1.00  0.00     0.071 C 
HETATM   18  C   UNL     1       5.196  29.399  50.259  1.00  0.00     0.089 C 
HETATM   19  C   UNL     1       5.695  29.204  51.705  1.00  0.00     0.071 C 
HETATM   20  C   UNL     1       5.134  27.959  52.374  1.00  0.00     0.238 C 
BRANCH  18  21
HETATM   21  O   UNL     1       6.002  30.437  49.699  1.00  0.00    -0.385 OA
HETATM   22  H   UNL     1       5.651  30.703  48.827  1.00  0.00     0.211 HD
ENDBRANCH  18  21
BRANCH  18  23
HETATM   23  C   UNL     1       3.733  29.788  50.090  1.00  0.00    -0.006 A 
HETATM   24  C   UNL     1       3.115  30.799  50.822  1.00  0.00     0.126 A 
HETATM   25  N   UNL     1       1.803  31.111  50.747  1.00  0.00    -0.272 NA
HETATM   26  C   UNL     1       1.059  30.452  49.836  1.00  0.00     0.116 A 
HETATM   27  C   UNL     1       1.574  29.476  49.008  1.00  0.00     0.020 A 
HETATM   28  C   UNL     1       2.921  29.146  49.138  1.00  0.00     0.013 A 
ENDBRANCH  18  23
ENDBRANCH  13  14
ENDBRANCH  10  13
BRANCH   1  29
HETATM   29  C   UNL     1       8.186  26.807  56.877  1.00  0.00     0.299 C 
BRANCH  29  30
HETATM   30  C   UNL     1       7.612  28.095  57.337  1.00  0.00     0.079 A 
HETATM   31  O   UNL     1       8.257  28.718  58.364  1.00  0.00    -0.316 OA
HETATM   32  C   UNL     1       7.612  29.903  58.588  1.00  0.00     0.077 A 
HETATM   33  C   UNL     1       6.533  30.012  57.737  1.00  0.00     0.037 A 
HETATM   34  C   UNL     1       6.533  28.849  56.930  1.00  0.00     0.037 A 
BRANCH  32  35
HETATM   35  C   UNL     1       8.172  30.803  59.633  1.00  0.00     0.231 C 
BRANCH  35  36
HETATM   36  O   UNL     1       8.741  31.921  58.958  1.00  0.00    -0.390 OA
HETATM   37  C   UNL     1      10.058  31.635  58.499  1.00  0.00     0.201 C 
ENDBRANCH  35  36
ENDBRANCH  32  35
ENDBRANCH  29  30
ENDBRANCH   1  29
TORSDOF 8
ENDMDL
MODEL 3
REMARK VINA RESULT:      -8.7      2.915      8.105
REMARK  8 active torsions:
REMARK  status: ('A' for Active; 'I' for Inactive)
REMARK    1  A    between atoms: O_2  and  C_3 
REMARK    2  A    between atoms: C_3  and  C_4 
REMARK    3  A    between atoms: C_6  and  C_7 
REMARK    4  A    between atoms: C_7  and  N_8 
REMARK    5  A    between atoms: C_17  and  C_18 
REMARK    6  A    between atoms: C_18  and  N_19 
REMARK    7  A    between atoms: C_23  and  O_24 
REMARK    8  A    between atoms: C_23  and  C_25 
ROOT
HETATM    1  N   UNL     1       4.736  31.341  49.874  1.00  0.00    -0.059 N 
HETATM    2  H   UNL     1       5.169  32.118  50.396  1.00  0.00     0.280 HD
HETATM    3  C   UNL     1       5.761  30.235  49.930  1.00  0.00     0.276 C 
HETATM    4  C   UNL     1       5.257  28.893  49.481  1.00  0.00     0.002 A 
HETATM    5  C   UNL     1       4.820  28.711  48.169  1.00  0.00     0.076 A 
HETATM    6  O   UNL     1       4.885  29.729  47.259  1.00  0.00    -0.349 OA
HETATM    7  C   UNL     1       3.931  30.765  47.528  1.00  0.00     0.203 C 
HETATM    8  C   UNL     1       4.502  31.843  48.462  1.00  0.00     0.262 C 
HETATM    9  C   UNL     1       5.233  27.793  50.359  1.00  0.00     0.020 A 
HETATM   10  C   UNL     1       4.788  26.528  49.932  1.00  0.00    -0.032 A 
HETATM   11  C   UNL     1       4.350  26.380  48.608  1.00  0.00     0.011 A 
HETATM   12  C   UNL     1       4.385  27.464  47.726  1.00  0.00     0.038 A 
ENDROOT
BRANCH  10  13
HETATM   13  C   UNL     1       4.787  25.360  50.892  1.00  0.00     0.273 C 
BRANCH  13  14
HETATM   14  N   UNL     1       5.577  25.563  52.174  1.00  0.00    -0.067 N 
HETATM   15  H   UNL     1       5.475  26.557  52.426  1.00  0.00     0.280 HD
HETATM   16  C   UNL     1       5.054  24.755  53.339  1.00  0.00     0.238 C 
HETATM   17  C   UNL     1       5.880  25.059  54.577  1.00  0.00     0.071 C 
HETATM   18  C   UNL     1       7.363  24.686  54.380  1.00  0.00     0.089 C 
HETATM   19  C   UNL     1       7.869  25.516  53.183  1.00  0.00     0.071 C 
HETATM   20  C   UNL     1       7.050  25.312  51.918  1.00  0.00     0.238 C 
BRANCH  18  21
HETATM   21  O   UNL     1       8.058  25.181  55.527  1.00  0.00    -0.385 OA
HETATM   22  H   UNL     1       7.554  25.910  55.937  1.00  0.00     0.211 HD
ENDBRANCH  18  21
BRANCH  18  23
HETATM   23  C   UNL     1       7.579  23.180  54.305  1.00  0.00    -0.006 A 
HETATM   24  C   UNL     1       7.448  22.328  55.399  1.00  0.00     0.126 A 
HETATM   25  N   UNL     1       7.708  21.002  55.378  1.00  0.00    -0.272 NA
HETATM   26  C   UNL     1       8.036  20.453  54.191  1.00  0.00     0.116 A 
HETATM   27  C   UNL     1       8.134  21.185  53.025  1.00  0.00     0.020 A 
HETATM   28  C   UNL     1       7.900  22.557  53.086  1.00  0.00     0.013 A 
ENDBRANCH  18  23
ENDBRANCH  13  14
ENDBRANCH  10  13
BRANCH   1  29
HETATM   29  C   UNL     1       3.457  31.081  50.644  1.00  0.00     0.299 C 
BRANCH  29  30
HETATM   30  C   UNL     1       3.616  31.084  52.118  1.00  0.00     0.079 A 
HETATM   31  O   UNL     1       3.691  29.866  52.725  1.00  0.00    -0.316 OA
HETATM   32  C   UNL     1       3.898  30.090  54.058  1.00  0.00     0.077 A 
HETATM   33  C   UNL     1       3.909  31.447  54.305  1.00  0.00     0.037 A 
HETATM   34  C   UNL     1       3.729  32.088  53.055  1.00  0.00     0.037 A 
BRANCH  32  35
HETATM   35  C   UNL     1       4.077  28.901  54.936  1.00  0.00     0.231 C 
BRANCH  35  36
HETATM   36  O   UNL     1       5.379  28.996  55.506  1.00  0.00    -0.390 OA
HETATM   37  C   UNL     1       6.380  28.582  54.582  1.00  0.00     0.201 C 
ENDBRANCH  35  36
ENDBRANCH  32  35
ENDBRANCH  29  30
ENDBRANCH   1  29
TORSDOF 8
ENDMDL
MODEL 4
REMARK VINA RESULT:      -8.6      1.253      1.973
REMARK  8 active torsions:
REMARK  status: ('A' for Active; 'I' for Inactive)
REMARK    1  A    between atoms: O_2  and  C_3 
REMARK    2  A    between atoms: C_3  and  C_4 
REMARK    3  A    between atoms: C_6  and  C_7 
REMARK    4  A    between atoms: C_7  and  N_8 
REMARK    5  A    between atoms: C_17  and  C_18 
REMARK    6  A    between atoms: C_18  and  N_19 
REMARK    7  A    between atoms: C_23  and  O_24 
REMARK    8  A    between atoms: C_23  and  C_25 
ROOT
HETATM    1  N   UNL     1       7.579  25.692  57.419  1.00  0.00    -0.059 N 
HETATM    2  H   UNL     1       7.376  25.990  58.385  1.00  0.00     0.280 HD
HETATM    3  C   UNL     1       6.224  25.400  56.824  1.00  0.00     0.276 C 
HETATM    4  C   UNL     1       6.222  25.213  55.334  1.00  0.00     0.002 A 
HETATM    5  C   UNL     1       6.937  24.163  54.758  1.00  0.00     0.076 A 
HETATM    6  O   UNL     1       7.608  23.260  55.535  1.00  0.00    -0.349 OA
HETATM    7  C   UNL     1       8.770  23.830  56.154  1.00  0.00     0.203 C 
HETATM    8  C   UNL     1       8.446  24.451  57.521  1.00  0.00     0.262 C 
HETATM    9  C   UNL     1       5.492  26.073  54.492  1.00  0.00     0.020 A 
HETATM   10  C   UNL     1       5.467  25.882  53.098  1.00  0.00    -0.032 A 
HETATM   11  C   UNL     1       6.200  24.819  52.550  1.00  0.00     0.011 A 
HETATM   12  C   UNL     1       6.916  23.953  53.381  1.00  0.00     0.038 A 
ENDROOT
BRANCH  10  13
HETATM   13  C   UNL     1       4.661  26.812  52.219  1.00  0.00     0.273 C 
BRANCH  13  14
HETATM   14  N   UNL     1       5.168  26.972  50.795  1.00  0.00    -0.067 N 
HETATM   15  H   UNL     1       6.136  26.622  50.788  1.00  0.00     0.280 HD
HETATM   16  C   UNL     1       4.394  26.157  49.784  1.00  0.00     0.238 C 
HETATM   17  C   UNL     1       5.000  26.351  48.406  1.00  0.00     0.071 C 
HETATM   18  C   UNL     1       4.941  27.825  47.958  1.00  0.00     0.089 C 
HETATM   19  C   UNL     1       5.728  28.635  49.007  1.00  0.00     0.071 C 
HETATM   20  C   UNL     1       5.217  28.441  50.426  1.00  0.00     0.238 C 
BRANCH  18  21
HETATM   21  O   UNL     1       5.695  27.907  46.747  1.00  0.00    -0.385 OA
HETATM   22  H   UNL     1       5.778  28.838  46.465  1.00  0.00     0.211 HD
ENDBRANCH  18  21
BRANCH  18  23
HETATM   23  C   UNL     1       3.519  28.287  47.666  1.00  0.00    -0.006 A 
HETATM   24  C   UNL     1       3.086  29.600  47.833  1.00  0.00     0.126 A 
HETATM   25  N   UNL     1       1.814  30.020  47.656  1.00  0.00    -0.272 NA
HETATM   26  C   UNL     1       0.920  29.118  47.204  1.00  0.00     0.116 A 
HETATM   27  C   UNL     1       1.246  27.802  46.941  1.00  0.00     0.020 A 
HETATM   28  C   UNL     1       2.555  27.389  47.173  1.00  0.00     0.013 A 
ENDBRANCH  18  23
ENDBRANCH  13  14
ENDBRANCH  10  13
BRANCH   1  29
HETATM   29  C   UNL     1       8.302  26.887  56.834  1.00  0.00     0.299 C 
BRANCH  29  30
HETATM   30  C   UNL     1       7.676  28.195  57.144  1.00  0.00     0.079 A 
HETATM   31  O   UNL     1       6.791  28.679  56.226  1.00  0.00    -0.316 OA
HETATM   32  C   UNL     1       6.287  29.848  56.727  1.00  0.00     0.077 A 
HETATM   33  C   UNL     1       6.884  30.129  57.938  1.00  0.00     0.037 A 
HETATM   34  C   UNL     1       7.777  29.064  58.208  1.00  0.00     0.037 A 
BRANCH  32  35
HETATM   35  C   UNL     1       5.243  30.544  55.927  1.00  0.00     0.231 C 
BRANCH  35  36
HETATM   36  O   UNL     1       5.123  29.841  54.695  1.00  0.00    -0.390 OA
HETATM   37  C   UNL     1       3.801  29.931  54.173  1.00  0.00     0.201 C 
ENDBRANCH  35  36
ENDBRANCH  32  35
ENDBRANCH  29  30
ENDBRANCH   1  29
TORSDOF 8
ENDMDL
MODEL 5
REMARK VINA RESULT:      -8.6      4.498      7.982
REMARK  8 active torsions:
REMARK  status: ('A' for Active; 'I' for Inactive)
REMARK    1  A    between atoms: O_2  and  C_3 
REMARK    2  A    between atoms: C_3  and  C_4 
REMARK    3  A    between atoms: C_6  and  C_7 
REMARK    4  A    between atoms: C_7  and  N_8 
REMARK    5  A    between atoms: C_17  and  C_18 
REMARK    6  A    between atoms: C_18  and  N_19 
REMARK    7  A    between atoms: C_23  and  O_24 
REMARK    8  A    between atoms: C_23  and  C_25 
ROOT
HETATM    1  N   UNL     1       5.867  33.020  60.044  1.00  0.00    -0.059 N 
HETATM    2  H   UNL     1       6.576  33.714  60.323  1.00  0.00     0.280 HD
HETATM    3  C   UNL     1       6.276  32.604  58.653  1.00  0.00     0.276 C 
HETATM    4  C   UNL     1       5.563  31.391  58.128  1.00  0.00     0.002 A 
HETATM    5  C   UNL     1       4.180  31.416  57.944  1.00  0.00     0.076 A 
HETATM    6  O   UNL     1       3.458  32.550  58.190  1.00  0.00    -0.349 OA
HETATM    7  C   UNL     1       3.367  32.847  59.590  1.00  0.00     0.203 C 
HETATM    8  C   UNL     1       4.529  33.733  60.066  1.00  0.00     0.262 C 
HETATM    9  C   UNL     1       6.267  30.219  57.793  1.00  0.00     0.020 A 
HETATM   10  C   UNL     1       5.603  29.092  57.274  1.00  0.00    -0.032 A 
HETATM   11  C   UNL     1       4.212  29.147  57.106  1.00  0.00     0.011 A 
HETATM   12  C   UNL     1       3.508  30.313  57.422  1.00  0.00     0.038 A 
ENDROOT
BRANCH  10  13
HETATM   13  C   UNL     1       6.387  27.851  56.909  1.00  0.00     0.273 C 
BRANCH  13  14
HETATM   14  N   UNL     1       6.341  27.454  55.443  1.00  0.00    -0.067 N 
HETATM   15  H   UNL     1       6.045  28.292  54.922  1.00  0.00     0.280 HD
HETATM   16  C   UNL     1       7.685  27.039  54.888  1.00  0.00     0.238 C 
HETATM   17  C   UNL     1       7.542  26.704  53.414  1.00  0.00     0.071 C 
HETATM   18  C   UNL     1       6.564  25.535  53.186  1.00  0.00     0.089 C 
HETATM   19  C   UNL     1       5.206  25.978  53.767  1.00  0.00     0.071 C 
HETATM   20  C   UNL     1       5.282  26.392  55.228  1.00  0.00     0.238 C 
BRANCH  18  21
HETATM   21  O   UNL     1       6.377  25.437  51.772  1.00  0.00    -0.385 OA
HETATM   22  H   UNL     1       6.077  24.539  51.534  1.00  0.00     0.211 HD
ENDBRANCH  18  21
BRANCH  18  23
HETATM   23  C   UNL     1       7.118  24.207  53.686  1.00  0.00    -0.006 A 
HETATM   24  C   UNL     1       6.903  23.718  54.972  1.00  0.00     0.126 A 
HETATM   25  N   UNL     1       7.445  22.583  55.465  1.00  0.00    -0.272 NA
HETATM   26  C   UNL     1       8.179  21.829  54.622  1.00  0.00     0.116 A 
HETATM   27  C   UNL     1       8.407  22.177  53.306  1.00  0.00     0.020 A 
HETATM   28  C   UNL     1       7.870  23.374  52.838  1.00  0.00     0.013 A 
ENDBRANCH  18  23
ENDBRANCH  13  14
ENDBRANCH  10  13
BRANCH   1  29
HETATM   29  C   UNL     1       5.998  31.948  61.107  1.00  0.00     0.299 C 
BRANCH  29  30
HETATM   30  C   UNL     1       6.551  32.428  62.397  1.00  0.00     0.079 A 
HETATM   31  O   UNL     1       5.655  32.922  63.298  1.00  0.00    -0.316 OA
HETATM   32  C   UNL     1       6.353  33.245  64.428  1.00  0.00     0.077 A 
HETATM   33  C   UNL     1       7.696  33.001  64.230  1.00  0.00     0.037 A 
HETATM   34  C   UNL     1       7.824  32.473  62.922  1.00  0.00     0.037 A 
BRANCH  32  35
HETATM   35  C   UNL     1       5.579  33.754  65.593  1.00  0.00     0.231 C 
BRANCH  35  36
HETATM   36  O   UNL     1       4.202  33.523  65.311  1.00  0.00    -0.390 OA
HETATM   37  C   UNL     1       3.450  34.730  65.373  1.00  0.00     0.201 C 
ENDBRANCH  35  36
ENDBRANCH  32  35
ENDBRANCH  29  30
ENDBRANCH   1  29
TORSDOF 8
ENDMDL
MODEL 6
REMARK VINA RESULT:      -8.5      1.763      2.441
REMARK  8 active torsions:
REMARK  status: ('A' for Active; 'I' for Inactive)
REMARK    1  A    between atoms: O_2  and  C_3 
REMARK    2  A    between atoms: C_3  and  C_4 
REMARK    3  A    between atoms: C_6  and  C_7 
REMARK    4  A    between atoms: C_7  and  N_8 
REMARK    5  A    between atoms: C_17  and  C_18 
REMARK    6  A    between atoms: C_18  and  N_19 
REMARK    7  A    between atoms: C_23  and  O_24 
REMARK    8  A    between atoms: C_23  and  C_25 
ROOT
HETATM    1  N   UNL     1       7.145  27.416  57.164  1.00  0.00    -0.059 N 
HETATM    2  H   UNL     1       7.213  27.998  58.013  1.00  0.00     0.280 HD
HETATM    3  C   UNL     1       5.719  27.589  56.705  1.00  0.00     0.276 C 
HETATM    4  C   UNL     1       5.439  27.063  55.325  1.00  0.00     0.002 A 
HETATM    5  C   UNL     1       5.588  25.704  55.049  1.00  0.00     0.076 A 
HETATM    6  O   UNL     1       5.942  24.822  56.031  1.00  0.00    -0.349 OA
HETATM    7  C   UNL     1       7.307  24.980  56.442  1.00  0.00     0.203 C 
HETATM    8  C   UNL     1       7.449  25.992  57.589  1.00  0.00     0.262 C 
HETATM    9  C   UNL     1       5.006  27.918  54.294  1.00  0.00     0.020 A 
HETATM   10  C   UNL     1       4.716  27.423  53.009  1.00  0.00    -0.032 A 
HETATM   11  C   UNL     1       4.881  26.052  52.763  1.00  0.00     0.011 A 
HETATM   12  C   UNL     1       5.297  25.194  53.786  1.00  0.00     0.038 A 
ENDROOT
BRANCH  10  13
HETATM   13  C   UNL     1       4.237  28.360  51.924  1.00  0.00     0.273 C 
BRANCH  13  14
HETATM   14  N   UNL     1       3.831  27.700  50.617  1.00  0.00    -0.067 N 
HETATM   15  H   UNL     1       3.649  26.710  50.834  1.00  0.00     0.280 HD
HETATM   16  C   UNL     1       2.561  28.265  50.024  1.00  0.00     0.238 C 
HETATM   17  C   UNL     1       2.219  27.514  48.750  1.00  0.00     0.071 C 
HETATM   18  C   UNL     1       3.329  27.653  47.689  1.00  0.00     0.089 C 
HETATM   19  C   UNL     1       4.613  27.079  48.319  1.00  0.00     0.071 C 
HETATM   20  C   UNL     1       4.987  27.741  49.637  1.00  0.00     0.238 C 
BRANCH  18  21
HETATM   21  O   UNL     1       2.981  26.767  46.624  1.00  0.00    -0.385 OA
HETATM   22  H   UNL     1       2.071  26.947  46.319  1.00  0.00     0.211 HD
ENDBRANCH  18  21
BRANCH  18  23
HETATM   23  C   UNL     1       3.419  29.065  47.124  1.00  0.00    -0.006 A 
HETATM   24  C   UNL     1       2.320  29.777  46.651  1.00  0.00     0.126 A 
HETATM   25  N   UNL     1       2.383  30.998  46.075  1.00  0.00    -0.272 NA
HETATM   26  C   UNL     1       3.587  31.603  46.035  1.00  0.00     0.116 A 
HETATM   27  C   UNL     1       4.737  31.024  46.532  1.00  0.00     0.020 A 
HETATM   28  C   UNL     1       4.648  29.748  47.081  1.00  0.00     0.013 A 
ENDBRANCH  18  23
ENDBRANCH  13  14
ENDBRANCH  10  13
BRANCH   1  29
HETATM   29  C   UNL     1       8.199  28.013  56.254  1.00  0.00     0.299 C 
BRANCH  29  30
HETATM   30  C   UNL     1       9.053  29.041  56.895  1.00  0.00     0.079 A 
HETATM   31  O   UNL     1       8.458  29.828  57.836  1.00  0.00    -0.316 OA
HETATM   32  C   UNL     1       9.422  30.655  58.342  1.00  0.00     0.077 A 
HETATM   33  C   UNL     1      10.617  30.426  57.693  1.00  0.00     0.037 A 
HETATM   34  C   UNL     1      10.381  29.386  56.762  1.00  0.00     0.037 A 
BRANCH  32  35
HETATM   35  C   UNL     1       9.028  31.577  59.442  1.00  0.00     0.231 C 
BRANCH  35  36
HETATM   36  O   UNL     1       8.413  30.784  60.452  1.00  0.00    -0.390 OA
HETATM   37  C   UNL     1       9.297  30.557  61.544  1.00  0.00     0.201 C 
ENDBRANCH  35  36
ENDBRANCH  32  35
ENDBRANCH  29  30
ENDBRANCH   1  29
TORSDOF 8
ENDMDL
MODEL 7
REMARK VINA RESULT:      -8.3      2.052      2.508
REMARK  8 active torsions:
REMARK  status: ('A' for Active; 'I' for Inactive)
REMARK    1  A    between atoms: O_2  and  C_3 
REMARK    2  A    between atoms: C_3  and  C_4 
REMARK    3  A    between atoms: C_6  and  C_7 
REMARK    4  A    between atoms: C_7  and  N_8 
REMARK    5  A    between atoms: C_17  and  C_18 
REMARK    6  A    between atoms: C_18  and  N_19 
REMARK    7  A    between atoms: C_23  and  O_24 
REMARK    8  A    between atoms: C_23  and  C_25 
ROOT
HETATM    1  N   UNL     1       7.768  23.728  57.036  1.00  0.00    -0.059 N 
HETATM    2  H   UNL     1       7.359  23.715  57.983  1.00  0.00     0.280 HD
HETATM    3  C   UNL     1       6.597  24.008  56.126  1.00  0.00     0.276 C 
HETATM    4  C   UNL     1       6.973  24.354  54.714  1.00  0.00     0.002 A 
HETATM    5  C   UNL     1       7.642  23.424  53.918  1.00  0.00     0.076 A 
HETATM    6  O   UNL     1       7.925  22.172  54.387  1.00  0.00    -0.349 OA
HETATM    7  C   UNL     1       8.949  22.183  55.392  1.00  0.00     0.203 C 
HETATM    8  C   UNL     1       8.367  22.354  56.803  1.00  0.00     0.262 C 
HETATM    9  C   UNL     1       6.644  25.605  54.158  1.00  0.00     0.020 A 
HETATM   10  C   UNL     1       6.970  25.920  52.825  1.00  0.00    -0.032 A 
HETATM   11  C   UNL     1       7.647  24.965  52.054  1.00  0.00     0.011 A 
HETATM   12  C   UNL     1       7.964  23.715  52.594  1.00  0.00     0.038 A 
ENDROOT
BRANCH  10  13
HETATM   13  C   UNL     1       6.591  27.266  52.250  1.00  0.00     0.273 C 
BRANCH  13  14
HETATM   14  N   UNL     1       5.183  27.366  51.687  1.00  0.00    -0.067 N 
HETATM   15  H   UNL     1       4.622  26.653  52.173  1.00  0.00     0.280 HD
HETATM   16  C   UNL     1       4.524  28.701  51.946  1.00  0.00     0.238 C 
HETATM   17  C   UNL     1       3.113  28.686  51.385  1.00  0.00     0.071 C 
HETATM   18  C   UNL     1       3.106  28.452  49.861  1.00  0.00     0.089 C 
HETATM   19  C   UNL     1       3.790  27.091  49.623  1.00  0.00     0.071 C 
HETATM   20  C   UNL     1       5.189  27.008  50.214  1.00  0.00     0.238 C 
BRANCH  18  21
HETATM   21  O   UNL     1       1.737  28.278  49.488  1.00  0.00    -0.385 OA
HETATM   22  H   UNL     1       1.645  27.508  48.895  1.00  0.00     0.211 HD
ENDBRANCH  18  21
BRANCH  18  23
HETATM   23  C   UNL     1       3.664  29.640  49.088  1.00  0.00    -0.006 A 
HETATM   24  C   UNL     1       3.729  30.933  49.603  1.00  0.00     0.126 A 
HETATM   25  N   UNL     1       4.147  32.016  48.913  1.00  0.00    -0.272 NA
HETATM   26  C   UNL     1       4.613  31.815  47.664  1.00  0.00     0.116 A 
HETATM   27  C   UNL     1       4.659  30.570  47.071  1.00  0.00     0.020 A 
HETATM   28  C   UNL     1       4.183  29.478  47.791  1.00  0.00     0.013 A 
ENDBRANCH  18  23
ENDBRANCH  13  14
ENDBRANCH  10  13
BRANCH   1  29
HETATM   29  C   UNL     1       8.802  24.831  57.123  1.00  0.00     0.299 C 
BRANCH  29  30
HETATM   30  C   UNL     1       8.237  26.188  57.315  1.00  0.00     0.079 A 
HETATM   31  O   UNL     1       9.045  27.237  56.988  1.00  0.00    -0.316 OA
HETATM   32  C   UNL     1       8.320  28.381  57.177  1.00  0.00     0.077 A 
HETATM   33  C   UNL     1       7.070  28.063  57.666  1.00  0.00     0.037 A 
HETATM   34  C   UNL     1       7.016  26.651  57.754  1.00  0.00     0.037 A 
BRANCH  32  35
HETATM   35  C   UNL     1       8.971  29.673  56.825  1.00  0.00     0.231 C 
BRANCH  35  36
HETATM   36  O   UNL     1       9.950  29.933  57.825  1.00  0.00    -0.390 OA
HETATM   37  C   UNL     1      11.261  29.963  57.272  1.00  0.00     0.201 C 
ENDBRANCH  35  36
ENDBRANCH  32  35
ENDBRANCH  29  30
ENDBRANCH   1  29
TORSDOF 8
ENDMDL
MODEL 8
REMARK VINA RESULT:      -8.2      1.742      2.303
REMARK  8 active torsions:
REMARK  status: ('A' for Active; 'I' for Inactive)
REMARK    1  A    between atoms: O_2  and  C_3 
REMARK    2  A    between atoms: C_3  and  C_4 
REMARK    3  A    between atoms: C_6  and  C_7 
REMARK    4  A    between atoms: C_7  and  N_8 
REMARK    5  A    between atoms: C_17  and  C_18 
REMARK    6  A    between atoms: C_18  and  N_19 
REMARK    7  A    between atoms: C_23  and  O_24 
REMARK    8  A    between atoms: C_23  and  C_25 
ROOT
HETATM    1  N   UNL     1       7.732  27.086  57.220  1.00  0.00    -0.059 N 
HETATM    2  H   UNL     1       7.935  27.517  58.134  1.00  0.00     0.280 HD
HETATM    3  C   UNL     1       6.226  27.076  57.137  1.00  0.00     0.276 C 
HETATM    4  C   UNL     1       5.677  26.751  55.777  1.00  0.00     0.002 A 
HETATM    5  C   UNL     1       5.929  25.508  55.197  1.00  0.00     0.076 A 
HETATM    6  O   UNL     1       6.635  24.549  55.869  1.00  0.00    -0.349 OA
HETATM    7  C   UNL     1       8.026  24.877  55.988  1.00  0.00     0.203 C 
HETATM    8  C   UNL     1       8.319  25.687  57.259  1.00  0.00     0.262 C 
HETATM    9  C   UNL     1       4.887  27.677  55.070  1.00  0.00     0.020 A 
HETATM   10  C   UNL     1       4.348  27.364  53.807  1.00  0.00    -0.032 A 
HETATM   11  C   UNL     1       4.625  26.106  53.251  1.00  0.00     0.011 A 
HETATM   12  C   UNL     1       5.397  25.176  53.953  1.00  0.00     0.038 A 
ENDROOT
BRANCH  10  13
HETATM   13  C   UNL     1       3.490  28.371  53.077  1.00  0.00     0.273 C 
BRANCH  13  14
HETATM   14  N   UNL     1       4.092  28.947  51.806  1.00  0.00    -0.067 N 
HETATM   15  H   UNL     1       4.780  29.654  52.102  1.00  0.00     0.280 HD
HETATM   16  C   UNL     1       4.835  27.927  50.974  1.00  0.00     0.238 C 
HETATM   17  C   UNL     1       5.431  28.607  49.754  1.00  0.00     0.071 C 
HETATM   18  C   UNL     1       4.344  29.233  48.860  1.00  0.00     0.089 C 
HETATM   19  C   UNL     1       3.597  30.262  49.732  1.00  0.00     0.071 C 
HETATM   20  C   UNL     1       3.023  29.667  51.008  1.00  0.00     0.238 C 
BRANCH  18  21
HETATM   21  O   UNL     1       5.032  29.988  47.859  1.00  0.00    -0.385 OA
HETATM   22  H   UNL     1       5.012  29.512  47.007  1.00  0.00     0.211 HD
ENDBRANCH  18  21
BRANCH  18  23
HETATM   23  C   UNL     1       3.489  28.183  48.161  1.00  0.00    -0.006 A 
HETATM   24  C   UNL     1       4.014  27.056  47.533  1.00  0.00     0.126 A 
HETATM   25  N   UNL     1       3.287  26.152  46.841  1.00  0.00    -0.272 NA
HETATM   26  C   UNL     1       1.948  26.308  46.832  1.00  0.00     0.116 A 
HETATM   27  C   UNL     1       1.308  27.349  47.474  1.00  0.00     0.020 A 
HETATM   28  C   UNL     1       2.087  28.289  48.144  1.00  0.00     0.013 A 
ENDBRANCH  18  23
ENDBRANCH  13  14
ENDBRANCH  10  13
BRANCH   1  29
HETATM   29  C   UNL     1       8.431  28.007  56.242  1.00  0.00     0.299 C 
BRANCH  29  30
HETATM   30  C   UNL     1       9.225  29.087  56.876  1.00  0.00     0.079 A 
HETATM   31  O   UNL     1       8.720  29.620  58.025  1.00  0.00    -0.316 OA
HETATM   32  C   UNL     1       9.624  30.542  58.475  1.00  0.00     0.077 A 
HETATM   33  C   UNL     1      10.680  30.627  57.592  1.00  0.00     0.037 A 
HETATM   34  C   UNL     1      10.424  29.689  56.563  1.00  0.00     0.037 A 
BRANCH  32  35
HETATM   35  C   UNL     1       9.325  31.226  59.763  1.00  0.00     0.231 C 
BRANCH  35  36
HETATM   36  O   UNL     1       7.986  30.887  60.114  1.00  0.00    -0.390 OA
HETATM   37  C   UNL     1       7.189  32.051  60.304  1.00  0.00     0.201 C 
ENDBRANCH  35  36
ENDBRANCH  32  35
ENDBRANCH  29  30
ENDBRANCH   1  29
TORSDOF 8
ENDMDL
MODEL 9
REMARK VINA RESULT:      -8.1      3.732      7.499
REMARK  8 active torsions:
REMARK  status: ('A' for Active; 'I' for Inactive)
REMARK    1  A    between atoms: O_2  and  C_3 
REMARK    2  A    between atoms: C_3  and  C_4 
REMARK    3  A    between atoms: C_6  and  C_7 
REMARK    4  A    between atoms: C_7  and  N_8 
REMARK    5  A    between atoms: C_17  and  C_18 
REMARK    6  A    between atoms: C_18  and  N_19 
REMARK    7  A    between atoms: C_23  and  O_24 
REMARK    8  A    between atoms: C_23  and  C_25 
ROOT
HETATM    1  N   UNL     1       4.843  31.863  58.409  1.00  0.00    -0.059 N 
HETATM    2  H   UNL     1       3.817  31.895  58.506  1.00  0.00     0.280 HD
HETATM    3  C   UNL     1       5.156  30.401  58.211  1.00  0.00     0.276 C 
HETATM    4  C   UNL     1       6.563  30.117  57.767  1.00  0.00     0.002 A 
HETATM    5  C   UNL     1       7.639  30.455  58.587  1.00  0.00     0.076 A 
HETATM    6  O   UNL     1       7.436  31.003  59.822  1.00  0.00    -0.349 OA
HETATM    7  C   UNL     1       6.952  32.352  59.750  1.00  0.00     0.203 C 
HETATM    8  C   UNL     1       5.418  32.409  59.703  1.00  0.00     0.262 C 
HETATM    9  C   UNL     1       6.824  29.492  56.533  1.00  0.00     0.020 A 
HETATM   10  C   UNL     1       8.141  29.200  56.127  1.00  0.00    -0.032 A 
HETATM   11  C   UNL     1       9.201  29.558  56.973  1.00  0.00     0.011 A 
HETATM   12  C   UNL     1       8.947  30.166  58.206  1.00  0.00     0.038 A 
ENDROOT
BRANCH  10  13
HETATM   13  C   UNL     1       8.392  28.514  54.804  1.00  0.00     0.273 C 
BRANCH  13  14
HETATM   14  N   UNL     1       7.250  27.659  54.280  1.00  0.00    -0.067 N 
HETATM   15  H   UNL     1       6.523  28.311  53.954  1.00  0.00     0.280 HD
HETATM   16  C   UNL     1       7.634  26.797  53.100  1.00  0.00     0.238 C 
HETATM   17  C   UNL     1       6.420  26.017  52.627  1.00  0.00     0.071 C 
HETATM   18  C   UNL     1       5.876  25.084  53.726  1.00  0.00     0.089 C 
HETATM   19  C   UNL     1       5.500  25.985  54.919  1.00  0.00     0.071 C 
HETATM   20  C   UNL     1       6.652  26.847  55.411  1.00  0.00     0.238 C 
BRANCH  18  21
HETATM   21  O   UNL     1       4.646  24.551  53.229  1.00  0.00    -0.385 OA
HETATM   22  H   UNL     1       3.918  25.182  53.387  1.00  0.00     0.211 HD
ENDBRANCH  18  21
BRANCH  18  23
HETATM   23  C   UNL     1       6.815  23.921  54.019  1.00  0.00    -0.006 A 
HETATM   24  C   UNL     1       7.119  23.481  55.306  1.00  0.00     0.126 A 
HETATM   25  N   UNL     1       8.005  22.504  55.596  1.00  0.00    -0.272 NA
HETATM   26  C   UNL     1       8.572  21.853  54.561  1.00  0.00     0.116 A 
HETATM   27  C   UNL     1       8.300  22.155  53.242  1.00  0.00     0.020 A 
HETATM   28  C   UNL     1       7.413  23.195  52.974  1.00  0.00     0.013 A 
ENDBRANCH  18  23
ENDBRANCH  13  14
ENDBRANCH  10  13
BRANCH   1  29
HETATM   29  C   UNL     1       5.104  32.752  57.210  1.00  0.00     0.299 C 
BRANCH  29  30
HETATM   30  C   UNL     1       4.233  32.477  56.042  1.00  0.00     0.079 A 
HETATM   31  O   UNL     1       4.763  31.699  55.056  1.00  0.00    -0.316 OA
HETATM   32  C   UNL     1       3.788  31.516  54.115  1.00  0.00     0.077 A 
HETATM   33  C   UNL     1       2.655  32.215  54.479  1.00  0.00     0.037 A 
HETATM   34  C   UNL     1       2.941  32.832  55.720  1.00  0.00     0.037 A 
BRANCH  32  35
HETATM   35  C   UNL     1       4.107  30.640  52.955  1.00  0.00     0.231 C 
BRANCH  35  36
HETATM   36  O   UNL     1       4.444  29.359  53.481  1.00  0.00    -0.390 OA
HETATM   37  C   UNL     1       3.570  28.350  52.987  1.00  0.00     0.201 C 
ENDBRANCH  35  36
ENDBRANCH  32  35
ENDBRANCH  29  30
ENDBRANCH   1  29
TORSDOF 8
ENDMDL
MODEL 10
REMARK VINA RESULT:      -7.9      2.886      7.728
REMARK  8 active torsions:
REMARK  status: ('A' for Active; 'I' for Inactive)
REMARK    1  A    between atoms: O_2  and  C_3 
REMARK    2  A    between atoms: C_3  and  C_4 
REMARK    3  A    between atoms: C_6  and  C_7 
REMARK    4  A    between atoms: C_7  and  N_8 
REMARK    5  A    between atoms: C_17  and  C_18 
REMARK    6  A    between atoms: C_18  and  N_19 
REMARK    7  A    between atoms: C_23  and  O_24 
REMARK    8  A    between atoms: C_23  and  C_25 
ROOT
HETATM    1  N   UNL     1       3.804  31.705  51.602  1.00  0.00    -0.059 N 
HETATM    2  H   UNL     1       4.282  32.449  52.133  1.00  0.00     0.280 HD
HETATM    3  C   UNL     1       4.925  30.919  50.968  1.00  0.00     0.276 C 
HETATM    4  C   UNL     1       4.506  29.608  50.365  1.00  0.00     0.002 A 
HETATM    5  C   UNL     1       3.601  29.582  49.304  1.00  0.00     0.076 A 
HETATM    6  O   UNL     1       3.118  30.741  48.763  1.00  0.00    -0.349 OA
HETATM    7  C   UNL     1       2.206  31.415  49.641  1.00  0.00     0.203 C 
HETATM    8  C   UNL     1       2.929  32.398  50.576  1.00  0.00     0.262 C 
HETATM    9  C   UNL     1       5.026  28.389  50.839  1.00  0.00     0.020 A 
HETATM   10  C   UNL     1       4.655  27.162  50.256  1.00  0.00    -0.032 A 
HETATM   11  C   UNL     1       3.740  27.170  49.194  1.00  0.00     0.011 A 
HETATM   12  C   UNL     1       3.230  28.379  48.709  1.00  0.00     0.038 A 
ENDROOT
BRANCH  10  13
HETATM   13  C   UNL     1       5.241  25.868  50.775  1.00  0.00     0.273 C 
BRANCH  13  14
HETATM   14  N   UNL     1       5.766  25.911  52.201  1.00  0.00    -0.067 N 
HETATM   15  H   UNL     1       5.570  26.857  52.556  1.00  0.00     0.280 HD
HETATM   16  C   UNL     1       5.073  24.938  53.127  1.00  0.00     0.238 C 
HETATM   17  C   UNL     1       5.637  25.086  54.530  1.00  0.00     0.071 C 
HETATM   18  C   UNL     1       7.146  24.778  54.575  1.00  0.00     0.089 C 
HETATM   19  C   UNL     1       7.827  25.776  53.617  1.00  0.00     0.071 C 
HETATM   20  C   UNL     1       7.270  25.730  52.203  1.00  0.00     0.238 C 
BRANCH  18  21
HETATM   21  O   UNL     1       7.589  25.125  55.889  1.00  0.00    -0.385 OA
HETATM   22  H   UNL     1       6.833  25.133  56.507  1.00  0.00     0.211 HD
ENDBRANCH  18  21
BRANCH  18  23
HETATM   23  C   UNL     1       7.445  23.302  54.347  1.00  0.00    -0.006 A 
HETATM   24  C   UNL     1       7.730  22.758  53.096  1.00  0.00     0.126 A 
HETATM   25  N   UNL     1       7.922  21.443  52.855  1.00  0.00    -0.272 NA
HETATM   26  C   UNL     1       7.921  20.610  53.915  1.00  0.00     0.116 A 
HETATM   27  C   UNL     1       7.715  21.041  55.210  1.00  0.00     0.020 A 
HETATM   28  C   UNL     1       7.478  22.397  55.423  1.00  0.00     0.013 A 
ENDBRANCH  18  23
ENDBRANCH  13  14
ENDBRANCH  10  13
BRANCH   1  29
HETATM   29  C   UNL     1       3.019  30.971  52.670  1.00  0.00     0.299 C 
BRANCH  29  30
HETATM   30  C   UNL     1       3.809  30.603  53.869  1.00  0.00     0.079 A 
HETATM   31  O   UNL     1       4.147  31.620  54.712  1.00  0.00    -0.316 OA
HETATM   32  C   UNL     1       4.808  31.065  55.772  1.00  0.00     0.077 A 
HETATM   33  C   UNL     1       4.930  29.705  55.583  1.00  0.00     0.037 A 
HETATM   34  C   UNL     1       4.285  29.406  54.358  1.00  0.00     0.037 A 
BRANCH  32  35
HETATM   35  C   UNL     1       5.232  31.976  56.871  1.00  0.00     0.231 C 
BRANCH  35  36
HETATM   36  O   UNL     1       5.321  31.188  58.054  1.00  0.00    -0.390 OA
HETATM   37  C   UNL     1       5.197  31.991  59.223  1.00  0.00     0.201 C 
ENDBRANCH  35  36
ENDBRANCH  32  35
ENDBRANCH  29  30
ENDBRANCH   1  29
TORSDOF 8
ENDMDL
