MODEL 1
REMARK VINA RESULT:     -10.6      0.000      0.000
REMARK  7 active torsions:
REMARK  status: ('A' for Active; 'I' for Inactive)
REMARK    1  A    between atoms: O_2  and  C_3 
REMARK    2  A    between atoms: C_6  and  C_7 
REMARK    3  A    between atoms: C_11  and  C_12 
REMARK       I    between atoms: C_12  and  N_13 
REMARK    4  A    between atoms: N_13  and  N_14 
REMARK       I    between atoms: N_14  and  C_15 
REMARK    5  A    between atoms: C_15  and  C_16 
REMARK    6  A    between atoms: C_16  and  C_17 
REMARK    7  A    between atoms: C_17  and  C_18 
ROOT
HETATM    1  C   UNL     1       8.974  29.522  57.584  1.00  0.00     0.288 C 
HETATM    2  N   UNL     1       7.936  28.617  57.552  1.00  0.00    -0.262 N 
HETATM    3  O   UNL     1       9.924  29.457  56.809  1.00  0.00    -0.264 OA
HETATM    4  H   UNL     1       7.125  28.664  58.166  1.00  0.00     0.190 HD
ENDROOT
BRANCH   1   5
HETATM    5  C   UNL     1       8.857  30.540  58.593  1.00  0.00     0.121 A 
HETATM    6  N   UNL     1       9.645  31.655  58.599  1.00  0.00    -0.272 N 
HETATM    7  N   UNL     1       9.416  32.486  59.627  1.00  0.00    -0.174 NA
HETATM    8  H   UNL     1      10.369  31.895  57.929  1.00  0.00     0.189 HD
HETATM    9  C   UNL     1       8.415  31.912  60.313  1.00  0.00     0.089 A 
HETATM   10  C   UNL     1       8.040  30.685  59.697  1.00  0.00     0.071 A 
BRANCH   9  11
HETATM   11  C   UNL     1       7.855  32.511  61.528  1.00  0.00    -0.005 A 
HETATM   12  C   UNL     1       6.688  33.284  61.480  1.00  0.00     0.016 A 
HETATM   13  C   UNL     1       6.146  33.825  62.650  1.00  0.00     0.037 A 
HETATM   14  C   UNL     1       6.751  33.600  63.887  1.00  0.00     0.068 A 
HETATM   15  C   UNL     1       7.923  32.848  63.943  1.00  0.00     0.037 A 
HETATM   16  C   UNL     1       8.471  32.310  62.771  1.00  0.00     0.016 A 
BRANCH  14  17
HETATM   17  O   UNL     1       6.107  34.172  64.950  1.00  0.00    -0.356 OA
HETATM   18  C   UNL     1       4.795  33.702  65.230  1.00  0.00     0.210 C 
ENDBRANCH  14  17
ENDBRANCH   9  11
ENDBRANCH   1   5
BRANCH   2  19
HETATM   19  N   UNL     1       7.916  27.610  56.586  1.00  0.00    -0.267 N 
HETATM   20  C   UNL     1       7.840  26.306  57.030  1.00  0.00     0.236 C 
HETATM   21  O   UNL     1       7.836  26.023  58.227  1.00  0.00    -0.272 OA
HETATM   22  H   UNL     1       7.840  27.894  55.611  1.00  0.00     0.190 HD
BRANCH  20  23
HETATM   23  C   UNL     1       7.744  25.291  55.916  1.00  0.00     0.109 C 
BRANCH  23  24
HETATM   24  C   UNL     1       8.319  23.945  56.351  1.00  0.00     0.049 C 
BRANCH  24  25
HETATM   25  C   UNL     1       8.158  22.882  55.289  1.00  0.00    -0.036 A 
HETATM   26  C   UNL     1       8.178  21.508  55.574  1.00  0.00     0.040 A 
HETATM   27 CL   UNL     1       8.392  20.912  57.181  1.00  0.00    -0.084 Cl
HETATM   28  C   UNL     1       8.026  20.567  54.550  1.00  0.00     0.024 A 
HETATM   29  C   UNL     1       7.856  20.985  53.231  1.00  0.00     0.002 A 
HETATM   30  C   UNL     1       7.841  22.345  52.932  1.00  0.00     0.001 A 
HETATM   31  C   UNL     1       7.994  23.287  53.951  1.00  0.00     0.009 A 
ENDBRANCH  24  25
ENDBRANCH  23  24
ENDBRANCH  20  23
ENDBRANCH   2  19
TORSDOF 7
ENDMDL
MODEL 2
REMARK VINA RESULT:     -10.2      1.113      1.708
REMARK  7 active torsions:
REMARK  status: ('A' for Active; 'I' for Inactive)
REMARK    1  A    between atoms: O_2  and  C_3 
REMARK    2  A    between atoms: C_6  and  C_7 
REMARK    3  A    between atoms: C_11  and  C_12 
REMARK       I    between atoms: C_12  and  N_13 
REMARK    4  A    between atoms: N_13  and  N_14 
REMARK       I    between atoms: N_14  and  C_15 
REMARK    5  A    between atoms: C_15  and  C_16 
REMARK    6  A    between atoms: C_16  and  C_17 
REMARK    7  A    between atoms: C_17  and  C_18 
ROOT
HETATM    1  C   UNL     1       9.185  29.471  57.678  1.00  0.00     0.288 C 
HETATM    2  N   UNL     1       8.187  28.526  57.584  1.00  0.00    -0.262 N 
HETATM    3  O   UNL     1      10.181  29.445  56.959  1.00  0.00    -0.264 OA
HETATM    4  H   UNL     1       7.341  28.538  58.150  1.00  0.00     0.190 HD
ENDROOT
BRANCH   1   5
HETATM    5  C   UNL     1       8.971  30.479  58.679  1.00  0.00     0.121 A 
HETATM    6  N   UNL     1       9.662  31.657  58.688  1.00  0.00    -0.272 N 
HETATM    7  N   UNL     1       9.350  32.471  59.709  1.00  0.00    -0.174 NA
HETATM    8  H   UNL     1      10.371  31.954  58.025  1.00  0.00     0.189 HD
HETATM    9  C   UNL     1       8.393  31.817  60.386  1.00  0.00     0.089 A 
HETATM   10  C   UNL     1       8.131  30.560  59.773  1.00  0.00     0.071 A 
BRANCH   9  11
HETATM   11  C   UNL     1       7.770  32.373  61.591  1.00  0.00    -0.005 A 
HETATM   12  C   UNL     1       8.419  32.319  62.830  1.00  0.00     0.016 A 
HETATM   13  C   UNL     1       7.828  32.880  63.967  1.00  0.00     0.037 A 
HETATM   14  C   UNL     1       6.586  33.510  63.888  1.00  0.00     0.068 A 
HETATM   15  C   UNL     1       5.923  33.552  62.663  1.00  0.00     0.037 A 
HETATM   16  C   UNL     1       6.511  32.986  61.524  1.00  0.00     0.016 A 
BRANCH  14  17
HETATM   17  O   UNL     1       6.133  34.029  65.069  1.00  0.00    -0.356 OA
HETATM   18  C   UNL     1       4.845  33.609  65.499  1.00  0.00     0.210 C 
ENDBRANCH  14  17
ENDBRANCH   9  11
ENDBRANCH   1   5
BRANCH   2  19
HETATM   19  N   UNL     1       8.262  27.521  56.618  1.00  0.00    -0.267 N 
HETATM   20  C   UNL     1       8.037  26.225  57.031  1.00  0.00     0.236 C 
HETATM   21  O   UNL     1       7.824  25.942  58.208  1.00  0.00    -0.272 OA
HETATM   22  H   UNL     1       8.361  27.810  55.646  1.00  0.00     0.190 HD
BRANCH  20  23
HETATM   23  C   UNL     1       8.061  25.218  55.905  1.00  0.00     0.109 C 
BRANCH  23  24
HETATM   24  C   UNL     1       7.028  24.117  56.135  1.00  0.00     0.049 C 
BRANCH  24  25
HETATM   25  C   UNL     1       7.442  22.804  55.512  1.00  0.00    -0.036 A 
HETATM   26  C   UNL     1       7.444  22.583  54.126  1.00  0.00     0.040 A 
HETATM   27 CL   UNL     1       6.966  23.808  53.006  1.00  0.00    -0.084 Cl
HETATM   28  C   UNL     1       7.835  21.346  53.603  1.00  0.00     0.024 A 
HETATM   29  C   UNL     1       8.227  20.315  54.456  1.00  0.00     0.002 A 
HETATM   30  C   UNL     1       8.223  20.516  55.833  1.00  0.00     0.001 A 
HETATM   31  C   UNL     1       7.831  21.750  56.359  1.00  0.00     0.009 A 
ENDBRANCH  24  25
ENDBRANCH  23  24
ENDBRANCH  20  23
ENDBRANCH   2  19
TORSDOF 7
ENDMDL
MODEL 3
REMARK VINA RESULT:      -9.8      1.769      2.325
REMARK  7 active torsions:
REMARK  status: ('A' for Active; 'I' for Inactive)
REMARK    1  A    between atoms: O_2  and  C_3 
REMARK    2  A    between atoms: C_6  and  C_7 
REMARK    3  A    between atoms: C_11  and  C_12 
REMARK       I    between atoms: C_12  and  N_13 
REMARK    4  A    between atoms: N_13  and  N_14 
REMARK       I    between atoms: N_14  and  C_15 
REMARK    5  A    between atoms: C_15  and  C_16 
REMARK    6  A    between atoms: C_16  and  C_17 
REMARK    7  A    between atoms: C_17  and  C_18 
ROOT
HETATM    1  C   UNL     1       8.432  30.053  58.738  1.00  0.00     0.288 C 
HETATM    2  N   UNL     1       7.506  29.079  58.437  1.00  0.00    -0.262 N 
HETATM    3  O   UNL     1       9.329  30.366  57.959  1.00  0.00    -0.264 OA
HETATM    4  H   UNL     1       6.738  28.818  59.053  1.00  0.00     0.190 HD
ENDROOT
BRANCH   1   5
HETATM    5  C   UNL     1       8.267  30.666  60.027  1.00  0.00     0.121 A 
HETATM    6  N   UNL     1       8.989  30.276  61.119  1.00  0.00    -0.272 N 
HETATM    7  N   UNL     1       8.688  30.940  62.245  1.00  0.00    -0.174 NA
HETATM    8  H   UNL     1       9.695  29.547  61.154  1.00  0.00     0.189 HD
HETATM    9  C   UNL     1       7.750  31.827  61.877  1.00  0.00     0.089 A 
HETATM   10  C   UNL     1       7.456  31.682  60.492  1.00  0.00     0.071 A 
BRANCH   9  11
HETATM   11  C   UNL     1       7.145  32.764  62.828  1.00  0.00    -0.005 A 
HETATM   12  C   UNL     1       7.623  32.872  64.139  1.00  0.00     0.016 A 
HETATM   13  C   UNL     1       7.058  33.791  65.029  1.00  0.00     0.037 A 
HETATM   14  C   UNL     1       6.013  34.624  64.626  1.00  0.00     0.068 A 
HETATM   15  C   UNL     1       5.518  34.512  63.328  1.00  0.00     0.037 A 
HETATM   16  C   UNL     1       6.079  33.587  62.437  1.00  0.00     0.016 A 
BRANCH  14  17
HETATM   17  O   UNL     1       5.566  35.487  65.588  1.00  0.00    -0.356 OA
HETATM   18  C   UNL     1       4.416  36.258  65.269  1.00  0.00     0.210 C 
ENDBRANCH  14  17
ENDBRANCH   9  11
ENDBRANCH   1   5
BRANCH   2  19
HETATM   19  N   UNL     1       7.536  28.443  57.194  1.00  0.00    -0.267 N 
HETATM   20  C   UNL     1       7.625  27.067  57.188  1.00  0.00     0.236 C 
HETATM   21  O   UNL     1       7.721  26.413  58.225  1.00  0.00    -0.272 OA
HETATM   22  H   UNL     1       7.374  29.017  56.368  1.00  0.00     0.190 HD
BRANCH  20  23
HETATM   23  C   UNL     1       7.573  26.463  55.804  1.00  0.00     0.109 C 
BRANCH  23  24
HETATM   24  C   UNL     1       6.753  25.175  55.800  1.00  0.00     0.049 C 
BRANCH  24  25
HETATM   25  C   UNL     1       7.431  24.067  55.028  1.00  0.00    -0.036 A 
HETATM   26  C   UNL     1       7.071  23.719  53.716  1.00  0.00     0.040 A 
HETATM   27 CL   UNL     1       5.809  24.539  52.868  1.00  0.00    -0.084 Cl
HETATM   28  C   UNL     1       7.731  22.683  53.049  1.00  0.00     0.024 A 
HETATM   29  C   UNL     1       8.754  21.979  53.681  1.00  0.00     0.002 A 
HETATM   30  C   UNL     1       9.117  22.307  54.985  1.00  0.00     0.001 A 
HETATM   31  C   UNL     1       8.459  23.341  55.655  1.00  0.00     0.009 A 
ENDBRANCH  24  25
ENDBRANCH  23  24
ENDBRANCH  20  23
ENDBRANCH   2  19
TORSDOF 7
ENDMDL
MODEL 4
REMARK VINA RESULT:      -9.7      3.312     11.258
REMARK  7 active torsions:
REMARK  status: ('A' for Active; 'I' for Inactive)
REMARK    1  A    between atoms: O_2  and  C_3 
REMARK    2  A    between atoms: C_6  and  C_7 
REMARK    3  A    between atoms: C_11  and  C_12 
REMARK       I    between atoms: C_12  and  N_13 
REMARK    4  A    between atoms: N_13  and  N_14 
REMARK       I    between atoms: N_14  and  C_15 
REMARK    5  A    between atoms: C_15  and  C_16 
REMARK    6  A    between atoms: C_16  and  C_17 
REMARK    7  A    between atoms: C_17  and  C_18 
ROOT
HETATM    1  C   UNL     1       6.934  29.702  57.279  1.00  0.00     0.288 C 
HETATM    2  N   UNL     1       7.617  29.376  58.430  1.00  0.00    -0.262 N 
HETATM    3  O   UNL     1       6.322  30.761  57.160  1.00  0.00    -0.264 OA
HETATM    4  H   UNL     1       8.153  28.517  58.545  1.00  0.00     0.190 HD
ENDROOT
BRANCH   1   5
HETATM    5  C   UNL     1       6.991  28.711  56.240  1.00  0.00     0.121 A 
HETATM    6  N   UNL     1       6.734  29.010  54.932  1.00  0.00    -0.272 N 
HETATM    7  N   UNL     1       6.810  27.958  54.102  1.00  0.00    -0.174 NA
HETATM    8  H   UNL     1       6.488  29.918  54.550  1.00  0.00     0.189 HD
HETATM    9  C   UNL     1       7.159  26.928  54.888  1.00  0.00     0.089 A 
HETATM   10  C   UNL     1       7.278  27.360  56.239  1.00  0.00     0.071 A 
BRANCH   9  11
HETATM   11  C   UNL     1       7.351  25.573  54.362  1.00  0.00    -0.005 A 
HETATM   12  C   UNL     1       7.108  24.448  55.159  1.00  0.00     0.016 A 
HETATM   13  C   UNL     1       7.265  23.160  54.637  1.00  0.00     0.037 A 
HETATM   14  C   UNL     1       7.659  22.970  53.312  1.00  0.00     0.068 A 
HETATM   15  C   UNL     1       7.921  24.084  52.516  1.00  0.00     0.037 A 
HETATM   16  C   UNL     1       7.770  25.375  53.039  1.00  0.00     0.016 A 
BRANCH  14  17
HETATM   17  O   UNL     1       7.756  21.662  52.926  1.00  0.00    -0.356 OA
HETATM   18  C   UNL     1       7.912  20.701  53.963  1.00  0.00     0.210 C 
ENDBRANCH  14  17
ENDBRANCH   9  11
ENDBRANCH   1   5
BRANCH   2  19
HETATM   19  N   UNL     1       7.672  30.279  59.493  1.00  0.00    -0.267 N 
HETATM   20  C   UNL     1       8.877  30.907  59.730  1.00  0.00     0.236 C 
HETATM   21  O   UNL     1       9.884  30.660  59.070  1.00  0.00    -0.272 OA
HETATM   22  H   UNL     1       6.796  30.511  59.959  1.00  0.00     0.190 HD
BRANCH  20  23
HETATM   23  C   UNL     1       8.820  31.922  60.847  1.00  0.00     0.109 C 
BRANCH  23  24
HETATM   24  C   UNL     1       8.020  31.386  62.033  1.00  0.00     0.049 C 
BRANCH  24  25
HETATM   25  C   UNL     1       7.331  32.487  62.805  1.00  0.00    -0.036 A 
HETATM   26  C   UNL     1       6.183  33.144  62.337  1.00  0.00     0.040 A 
HETATM   27 CL   UNL     1       5.454  32.743  60.823  1.00  0.00    -0.084 Cl
HETATM   28  C   UNL     1       5.587  34.159  63.093  1.00  0.00     0.024 A 
HETATM   29  C   UNL     1       6.130  34.532  64.321  1.00  0.00     0.002 A 
HETATM   30  C   UNL     1       7.274  33.895  64.794  1.00  0.00     0.001 A 
HETATM   31  C   UNL     1       7.872  32.882  64.042  1.00  0.00     0.009 A 
ENDBRANCH  24  25
ENDBRANCH  23  24
ENDBRANCH  20  23
ENDBRANCH   2  19
TORSDOF 7
ENDMDL
MODEL 5
REMARK VINA RESULT:      -9.4      2.062      2.663
REMARK  7 active torsions:
REMARK  status: ('A' for Active; 'I' for Inactive)
REMARK    1  A    between atoms: O_2  and  C_3 
REMARK    2  A    between atoms: C_6  and  C_7 
REMARK    3  A    between atoms: C_11  and  C_12 
REMARK       I    between atoms: C_12  and  N_13 
REMARK    4  A    between atoms: N_13  and  N_14 
REMARK       I    between atoms: N_14  and  C_15 
REMARK    5  A    between atoms: C_15  and  C_16 
REMARK    6  A    between atoms: C_16  and  C_17 
REMARK    7  A    between atoms: C_17  and  C_18 
ROOT
HETATM    1  C   UNL     1       9.148  29.276  57.674  1.00  0.00     0.288 C 
HETATM    2  N   UNL     1       8.126  28.352  57.656  1.00  0.00    -0.262 N 
HETATM    3  O   UNL     1      10.131  29.178  56.944  1.00  0.00    -0.264 OA
HETATM    4  H   UNL     1       7.289  28.423  58.231  1.00  0.00     0.190 HD
ENDROOT
BRANCH   1   5
HETATM    5  C   UNL     1       8.973  30.353  58.609  1.00  0.00     0.121 A 
HETATM    6  N   UNL     1       9.661  31.528  58.506  1.00  0.00    -0.272 N 
HETATM    7  N   UNL     1       9.391  32.412  59.479  1.00  0.00    -0.174 NA
HETATM    8  H   UNL     1      10.342  31.776  57.795  1.00  0.00     0.189 HD
HETATM    9  C   UNL     1       8.464  31.809  60.240  1.00  0.00     0.089 A 
HETATM   10  C   UNL     1       8.179  30.512  59.728  1.00  0.00     0.071 A 
BRANCH   9  11
HETATM   11  C   UNL     1       7.890  32.449  61.427  1.00  0.00    -0.005 A 
HETATM   12  C   UNL     1       6.723  33.218  61.339  1.00  0.00     0.016 A 
HETATM   13  C   UNL     1       6.167  33.799  62.484  1.00  0.00     0.037 A 
HETATM   14  C   UNL     1       6.758  33.617  63.735  1.00  0.00     0.068 A 
HETATM   15  C   UNL     1       7.929  32.868  63.830  1.00  0.00     0.037 A 
HETATM   16  C   UNL     1       8.491  32.291  62.683  1.00  0.00     0.016 A 
BRANCH  14  17
HETATM   17  O   UNL     1       6.102  34.224  64.770  1.00  0.00    -0.356 OA
HETATM   18  C   UNL     1       4.881  33.629  65.189  1.00  0.00     0.210 C 
ENDBRANCH  14  17
ENDBRANCH   9  11
ENDBRANCH   1   5
BRANCH   2  19
HETATM   19  N   UNL     1       8.161  27.285  56.757  1.00  0.00    -0.267 N 
HETATM   20  C   UNL     1       8.092  26.011  57.281  1.00  0.00     0.236 C 
HETATM   21  O   UNL     1       8.046  25.804  58.492  1.00  0.00    -0.272 OA
HETATM   22  H   UNL     1       8.119  27.506  55.763  1.00  0.00     0.190 HD
BRANCH  20  23
HETATM   23  C   UNL     1       8.059  24.926  56.231  1.00  0.00     0.109 C 
BRANCH  23  24
HETATM   24  C   UNL     1       6.643  24.731  55.691  1.00  0.00     0.049 C 
BRANCH  24  25
HETATM   25  C   UNL     1       6.483  25.277  54.291  1.00  0.00    -0.036 A 
HETATM   26  C   UNL     1       5.758  26.445  54.006  1.00  0.00     0.040 A 
HETATM   27 CL   UNL     1       4.981  27.364  55.246  1.00  0.00    -0.084 Cl
HETATM   28  C   UNL     1       5.641  26.905  52.690  1.00  0.00     0.024 A 
HETATM   29  C   UNL     1       6.240  26.205  51.645  1.00  0.00     0.002 A 
HETATM   30  C   UNL     1       6.956  25.041  51.912  1.00  0.00     0.001 A 
HETATM   31  C   UNL     1       7.074  24.578  53.224  1.00  0.00     0.009 A 
ENDBRANCH  24  25
ENDBRANCH  23  24
ENDBRANCH  20  23
ENDBRANCH   2  19
TORSDOF 7
ENDMDL
MODEL 6
REMARK VINA RESULT:      -9.4      3.615     11.500
REMARK  7 active torsions:
REMARK  status: ('A' for Active; 'I' for Inactive)
REMARK    1  A    between atoms: O_2  and  C_3 
REMARK    2  A    between atoms: C_6  and  C_7 
REMARK    3  A    between atoms: C_11  and  C_12 
REMARK       I    between atoms: C_12  and  N_13 
REMARK    4  A    between atoms: N_13  and  N_14 
REMARK       I    between atoms: N_14  and  C_15 
REMARK    5  A    between atoms: C_15  and  C_16 
REMARK    6  A    between atoms: C_16  and  C_17 
REMARK    7  A    between atoms: C_17  and  C_18 
ROOT
HETATM    1  C   UNL     1       8.394  31.171  59.349  1.00  0.00     0.288 C 
HETATM    2  N   UNL     1       7.643  30.929  60.479  1.00  0.00    -0.262 N 
HETATM    3  O   UNL     1       8.890  32.270  59.116  1.00  0.00    -0.264 OA
HETATM    4  H   UNL     1       7.242  30.022  60.708  1.00  0.00     0.190 HD
ENDROOT
BRANCH   1   5
HETATM    5  C   UNL     1       8.546  30.043  58.472  1.00  0.00     0.121 A 
HETATM    6  N   UNL     1       9.630  29.895  57.654  1.00  0.00    -0.272 N 
HETATM    7  N   UNL     1       9.595  28.795  56.886  1.00  0.00    -0.174 NA
HETATM    8  H   UNL     1      10.422  30.525  57.571  1.00  0.00     0.189 HD
HETATM    9  C   UNL     1       8.455  28.175  57.230  1.00  0.00     0.089 A 
HETATM   10  C   UNL     1       7.767  28.931  58.220  1.00  0.00     0.071 A 
BRANCH   9  11
HETATM   11  C   UNL     1       8.035  26.914  56.614  1.00  0.00    -0.005 A 
HETATM   12  C   UNL     1       7.438  26.892  55.348  1.00  0.00     0.016 A 
HETATM   13  C   UNL     1       7.069  25.680  54.756  1.00  0.00     0.037 A 
HETATM   14  C   UNL     1       7.295  24.468  55.411  1.00  0.00     0.068 A 
HETATM   15  C   UNL     1       7.871  24.480  56.680  1.00  0.00     0.037 A 
HETATM   16  C   UNL     1       8.236  25.695  57.277  1.00  0.00     0.016 A 
BRANCH  14  17
HETATM   17  O   UNL     1       6.903  23.360  54.714  1.00  0.00    -0.356 OA
HETATM   18  C   UNL     1       7.844  22.815  53.799  1.00  0.00     0.210 C 
ENDBRANCH  14  17
ENDBRANCH   9  11
ENDBRANCH   1   5
BRANCH   2  19
HETATM   19  N   UNL     1       7.463  31.936  61.429  1.00  0.00    -0.267 N 
HETATM   20  C   UNL     1       7.947  31.704  62.699  1.00  0.00     0.236 C 
HETATM   21  O   UNL     1       8.479  30.640  63.011  1.00  0.00    -0.272 OA
HETATM   22  H   UNL     1       7.091  32.827  61.105  1.00  0.00     0.190 HD
BRANCH  20  23
HETATM   23  C   UNL     1       7.777  32.876  63.636  1.00  0.00     0.109 C 
BRANCH  23  24
HETATM   24  C   UNL     1       6.319  33.331  63.683  1.00  0.00     0.049 C 
BRANCH  24  25
HETATM   25  C   UNL     1       5.901  33.772  65.066  1.00  0.00    -0.036 A 
HETATM   26  C   UNL     1       4.586  34.143  65.384  1.00  0.00     0.040 A 
HETATM   27 CL   UNL     1       3.322  34.127  64.206  1.00  0.00    -0.084 Cl
HETATM   28  C   UNL     1       4.254  34.545  66.682  1.00  0.00     0.024 A 
HETATM   29  C   UNL     1       5.230  34.585  67.676  1.00  0.00     0.002 A 
HETATM   30  C   UNL     1       6.541  34.227  67.374  1.00  0.00     0.001 A 
HETATM   31  C   UNL     1       6.876  33.826  66.079  1.00  0.00     0.009 A 
ENDBRANCH  24  25
ENDBRANCH  23  24
ENDBRANCH  20  23
ENDBRANCH   2  19
TORSDOF 7
ENDMDL
MODEL 7
REMARK VINA RESULT:      -9.3      2.010      2.215
REMARK  7 active torsions:
REMARK  status: ('A' for Active; 'I' for Inactive)
REMARK    1  A    between atoms: O_2  and  C_3 
REMARK    2  A    between atoms: C_6  and  C_7 
REMARK    3  A    between atoms: C_11  and  C_12 
REMARK       I    between atoms: C_12  and  N_13 
REMARK    4  A    between atoms: N_13  and  N_14 
REMARK       I    between atoms: N_14  and  C_15 
REMARK    5  A    between atoms: C_15  and  C_16 
REMARK    6  A    between atoms: C_16  and  C_17 
REMARK    7  A    between atoms: C_17  and  C_18 
ROOT
HETATM    1  C   UNL     1       8.014  29.537  57.496  1.00  0.00     0.288 C 
HETATM    2  N   UNL     1       7.459  29.663  56.242  1.00  0.00    -0.262 N 
HETATM    3  O   UNL     1       8.804  28.638  57.775  1.00  0.00    -0.264 OA
HETATM    4  H   UNL     1       6.823  30.413  55.978  1.00  0.00     0.190 HD
ENDROOT
BRANCH   1   5
HETATM    5  C   UNL     1       7.596  30.531  58.446  1.00  0.00     0.121 A 
HETATM    6  N   UNL     1       6.750  31.550  58.111  1.00  0.00    -0.272 N 
HETATM    7  N   UNL     1       6.486  32.399  59.115  1.00  0.00    -0.174 NA
HETATM    8  H   UNL     1       6.331  31.721  57.202  1.00  0.00     0.189 HD
HETATM    9  C   UNL     1       7.161  31.906  60.165  1.00  0.00     0.089 A 
HETATM   10  C   UNL     1       7.874  30.735  59.783  1.00  0.00     0.071 A 
BRANCH   9  11
HETATM   11  C   UNL     1       7.137  32.549  61.482  1.00  0.00    -0.005 A 
HETATM   12  C   UNL     1       6.264  33.610  61.751  1.00  0.00     0.016 A 
HETATM   13  C   UNL     1       6.227  34.196  63.021  1.00  0.00     0.037 A 
HETATM   14  C   UNL     1       7.053  33.731  64.045  1.00  0.00     0.068 A 
HETATM   15  C   UNL     1       7.939  32.688  63.782  1.00  0.00     0.037 A 
HETATM   16  C   UNL     1       7.981  32.104  62.509  1.00  0.00     0.016 A 
BRANCH  14  17
HETATM   17  O   UNL     1       6.904  34.381  65.239  1.00  0.00    -0.356 OA
HETATM   18  C   UNL     1       5.781  34.014  66.029  1.00  0.00     0.210 C 
ENDBRANCH  14  17
ENDBRANCH   9  11
ENDBRANCH   1   5
BRANCH   2  19
HETATM   19  N   UNL     1       7.824  28.783  55.222  1.00  0.00    -0.267 N 
HETATM   20  C   UNL     1       6.835  27.981  54.691  1.00  0.00     0.236 C 
HETATM   21  O   UNL     1       5.682  27.996  55.119  1.00  0.00    -0.272 OA
HETATM   22  H   UNL     1       8.768  28.862  54.847  1.00  0.00     0.190 HD
BRANCH  20  23
HETATM   23  C   UNL     1       7.304  27.119  53.543  1.00  0.00     0.109 C 
BRANCH  23  24
HETATM   24  C   UNL     1       6.345  25.955  53.306  1.00  0.00     0.049 C 
BRANCH  24  25
HETATM   25  C   UNL     1       6.960  24.623  53.669  1.00  0.00    -0.036 A 
HETATM   26  C   UNL     1       6.839  24.049  54.944  1.00  0.00     0.040 A 
HETATM   27 CL   UNL     1       5.968  24.827  56.217  1.00  0.00    -0.084 Cl
HETATM   28  C   UNL     1       7.430  22.813  55.226  1.00  0.00     0.024 A 
HETATM   29  C   UNL     1       8.151  22.138  54.243  1.00  0.00     0.002 A 
HETATM   30  C   UNL     1       8.286  22.699  52.976  1.00  0.00     0.001 A 
HETATM   31  C   UNL     1       7.698  23.933  52.691  1.00  0.00     0.009 A 
ENDBRANCH  24  25
ENDBRANCH  23  24
ENDBRANCH  20  23
ENDBRANCH   2  19
TORSDOF 7
ENDMDL
MODEL 8
REMARK VINA RESULT:      -9.3      3.726     11.409
REMARK  7 active torsions:
REMARK  status: ('A' for Active; 'I' for Inactive)
REMARK    1  A    between atoms: O_2  and  C_3 
REMARK    2  A    between atoms: C_6  and  C_7 
REMARK    3  A    between atoms: C_11  and  C_12 
REMARK       I    between atoms: C_12  and  N_13 
REMARK    4  A    between atoms: N_13  and  N_14 
REMARK       I    between atoms: N_14  and  C_15 
REMARK    5  A    between atoms: C_15  and  C_16 
REMARK    6  A    between atoms: C_16  and  C_17 
REMARK    7  A    between atoms: C_17  and  C_18 
ROOT
HETATM    1  C   UNL     1       7.515  29.137  58.170  1.00  0.00     0.288 C 
HETATM    2  N   UNL     1       6.420  29.970  58.242  1.00  0.00    -0.262 N 
HETATM    3  O   UNL     1       8.554  29.367  58.783  1.00  0.00    -0.264 OA
HETATM    4  H   UNL     1       5.539  29.789  57.765  1.00  0.00     0.190 HD
ENDROOT
BRANCH   1   5
HETATM    5  C   UNL     1       7.345  27.987  57.324  1.00  0.00     0.121 A 
HETATM    6  N   UNL     1       6.186  27.749  56.640  1.00  0.00    -0.272 N 
HETATM    7  N   UNL     1       6.196  26.618  55.919  1.00  0.00    -0.174 NA
HETATM    8  H   UNL     1       5.349  28.322  56.641  1.00  0.00     0.189 HD
HETATM    9  C   UNL     1       7.420  26.102  56.109  1.00  0.00     0.089 A 
HETATM   10  C   UNL     1       8.170  26.931  56.989  1.00  0.00     0.071 A 
BRANCH   9  11
HETATM   11  C   UNL     1       7.845  24.847  55.483  1.00  0.00    -0.005 A 
HETATM   12  C   UNL     1       8.445  23.831  56.237  1.00  0.00     0.016 A 
HETATM   13  C   UNL     1       8.818  22.625  55.635  1.00  0.00     0.037 A 
HETATM   14  C   UNL     1       8.595  22.407  54.275  1.00  0.00     0.068 A 
HETATM   15  C   UNL     1       8.015  23.419  53.512  1.00  0.00     0.037 A 
HETATM   16  C   UNL     1       7.646  24.630  54.112  1.00  0.00     0.016 A 
BRANCH  14  17
HETATM   17  O   UNL     1       8.991  21.180  53.820  1.00  0.00    -0.356 OA
HETATM   18  C   UNL     1       8.117  20.522  52.914  1.00  0.00     0.210 C 
ENDBRANCH  14  17
ENDBRANCH   9  11
ENDBRANCH   1   5
BRANCH   2  19
HETATM   19  N   UNL     1       6.449  31.095  59.068  1.00  0.00    -0.267 N 
HETATM   20  C   UNL     1       5.333  31.905  59.076  1.00  0.00     0.236 C 
HETATM   21  O   UNL     1       4.361  31.685  58.356  1.00  0.00    -0.272 OA
HETATM   22  H   UNL     1       7.239  31.192  59.703  1.00  0.00     0.190 HD
BRANCH  20  23
HETATM   23  C   UNL     1       5.424  33.052  60.055  1.00  0.00     0.109 C 
BRANCH  23  24
HETATM   24  C   UNL     1       4.772  32.687  61.387  1.00  0.00     0.049 C 
BRANCH  24  25
HETATM   25  C   UNL     1       5.692  32.927  62.561  1.00  0.00    -0.036 A 
HETATM   26  C   UNL     1       5.269  33.540  63.750  1.00  0.00     0.040 A 
HETATM   27 CL   UNL     1       3.641  34.077  63.972  1.00  0.00    -0.084 Cl
HETATM   28  C   UNL     1       6.165  33.739  64.806  1.00  0.00     0.024 A 
HETATM   29  C   UNL     1       7.493  33.333  64.686  1.00  0.00     0.002 A 
HETATM   30  C   UNL     1       7.929  32.731  63.510  1.00  0.00     0.001 A 
HETATM   31  C   UNL     1       7.038  32.531  62.454  1.00  0.00     0.009 A 
ENDBRANCH  24  25
ENDBRANCH  23  24
ENDBRANCH  20  23
ENDBRANCH   2  19
TORSDOF 7
ENDMDL
MODEL 9
REMARK VINA RESULT:      -9.3      8.530     12.249
REMARK  7 active torsions:
REMARK  status: ('A' for Active; 'I' for Inactive)
REMARK    1  A    between atoms: O_2  and  C_3 
REMARK    2  A    between atoms: C_6  and  C_7 
REMARK    3  A    between atoms: C_11  and  C_12 
REMARK       I    between atoms: C_12  and  N_13 
REMARK    4  A    between atoms: N_13  and  N_14 
REMARK       I    between atoms: N_14  and  C_15 
REMARK    5  A    between atoms: C_15  and  C_16 
REMARK    6  A    between atoms: C_16  and  C_17 
REMARK    7  A    between atoms: C_17  and  C_18 
ROOT
HETATM    1  C   UNL     1       5.308  27.174  50.429  1.00  0.00     0.288 C 
HETATM    2  N   UNL     1       5.912  25.943  50.559  1.00  0.00    -0.262 N 
HETATM    3  O   UNL     1       5.479  28.076  51.246  1.00  0.00    -0.264 OA
HETATM    4  H   UNL     1       5.808  25.188  49.883  1.00  0.00     0.190 HD
ENDROOT
BRANCH   1   5
HETATM    5  C   UNL     1       4.468  27.317  49.272  1.00  0.00     0.121 A 
HETATM    6  N   UNL     1       4.830  26.843  48.044  1.00  0.00    -0.272 N 
HETATM    7  N   UNL     1       3.935  27.085  47.074  1.00  0.00    -0.174 NA
HETATM    8  H   UNL     1       5.689  26.355  47.807  1.00  0.00     0.189 HD
HETATM    9  C   UNL     1       2.927  27.720  47.691  1.00  0.00     0.089 A 
HETATM   10  C   UNL     1       3.226  27.888  49.072  1.00  0.00     0.071 A 
BRANCH   9  11
HETATM   11  C   UNL     1       1.728  28.166  46.975  1.00  0.00    -0.005 A 
HETATM   12  C   UNL     1       0.739  27.254  46.585  1.00  0.00     0.016 A 
HETATM   13  C   UNL     1      -0.414  27.696  45.929  1.00  0.00     0.037 A 
HETATM   14  C   UNL     1      -0.607  29.051  45.656  1.00  0.00     0.068 A 
HETATM   15  C   UNL     1       0.380  29.963  46.024  1.00  0.00     0.037 A 
HETATM   16  C   UNL     1       1.540  29.522  46.676  1.00  0.00     0.016 A 
BRANCH  14  17
HETATM   17  O   UNL     1      -1.784  29.345  45.027  1.00  0.00    -0.356 OA
HETATM   18  C   UNL     1      -1.756  30.412  44.087  1.00  0.00     0.210 C 
ENDBRANCH  14  17
ENDBRANCH   9  11
ENDBRANCH   1   5
BRANCH   2  19
HETATM   19  N   UNL     1       6.787  25.699  51.618  1.00  0.00    -0.267 N 
HETATM   20  C   UNL     1       6.307  24.963  52.682  1.00  0.00     0.236 C 
HETATM   21  O   UNL     1       5.144  24.568  52.730  1.00  0.00    -0.272 OA
HETATM   22  H   UNL     1       7.760  25.976  51.498  1.00  0.00     0.190 HD
BRANCH  20  23
HETATM   23  C   UNL     1       7.346  24.684  53.742  1.00  0.00     0.109 C 
BRANCH  23  24
HETATM   24  C   UNL     1       8.196  23.471  53.369  1.00  0.00     0.049 C 
BRANCH  24  25
HETATM   25  C   UNL     1       8.275  22.460  54.490  1.00  0.00    -0.036 A 
HETATM   26  C   UNL     1       8.323  21.076  54.266  1.00  0.00     0.040 A 
HETATM   27 CL   UNL     1       8.293  20.406  52.674  1.00  0.00    -0.084 Cl
HETATM   28  C   UNL     1       8.394  20.184  55.342  1.00  0.00     0.024 A 
HETATM   29  C   UNL     1       8.415  20.662  56.651  1.00  0.00     0.002 A 
HETATM   30  C   UNL     1       8.361  22.033  56.888  1.00  0.00     0.001 A 
HETATM   31  C   UNL     1       8.289  22.926  55.817  1.00  0.00     0.009 A 
ENDBRANCH  24  25
ENDBRANCH  23  24
ENDBRANCH  20  23
ENDBRANCH   2  19
TORSDOF 7
ENDMDL
MODEL 10
REMARK VINA RESULT:      -9.2      2.323      3.040
REMARK  7 active torsions:
REMARK  status: ('A' for Active; 'I' for Inactive)
REMARK    1  A    between atoms: O_2  and  C_3 
REMARK    2  A    between atoms: C_6  and  C_7 
REMARK    3  A    between atoms: C_11  and  C_12 
REMARK       I    between atoms: C_12  and  N_13 
REMARK    4  A    between atoms: N_13  and  N_14 
REMARK       I    between atoms: N_14  and  C_15 
REMARK    5  A    between atoms: C_15  and  C_16 
REMARK    6  A    between atoms: C_16  and  C_17 
REMARK    7  A    between atoms: C_17  and  C_18 
ROOT
HETATM    1  C   UNL     1       7.656  31.147  59.031  1.00  0.00     0.288 C 
HETATM    2  N   UNL     1       7.050  30.060  58.440  1.00  0.00    -0.262 N 
HETATM    3  O   UNL     1       8.710  31.617  58.610  1.00  0.00    -0.264 OA
HETATM    4  H   UNL     1       6.164  29.667  58.752  1.00  0.00     0.190 HD
ENDROOT
BRANCH   1   5
HETATM    5  C   UNL     1       6.962  31.680  60.171  1.00  0.00     0.121 A 
HETATM    6  N   UNL     1       5.618  31.921  60.161  1.00  0.00    -0.272 N 
HETATM    7  N   UNL     1       5.143  32.441  61.303  1.00  0.00    -0.174 NA
HETATM    8  H   UNL     1       4.975  31.761  59.391  1.00  0.00     0.189 HD
HETATM    9  C   UNL     1       6.211  32.520  62.112  1.00  0.00     0.089 A 
HETATM   10  C   UNL     1       7.373  32.055  61.435  1.00  0.00     0.071 A 
BRANCH   9  11
HETATM   11  C   UNL     1       6.119  33.042  63.478  1.00  0.00    -0.005 A 
HETATM   12  C   UNL     1       4.877  33.282  64.078  1.00  0.00     0.016 A 
HETATM   13  C   UNL     1       4.802  33.751  65.393  1.00  0.00     0.037 A 
HETATM   14  C   UNL     1       5.960  33.983  66.136  1.00  0.00     0.068 A 
HETATM   15  C   UNL     1       7.202  33.765  65.542  1.00  0.00     0.037 A 
HETATM   16  C   UNL     1       7.279  33.300  64.222  1.00  0.00     0.016 A 
BRANCH  14  17
HETATM   17  O   UNL     1       5.742  34.423  67.412  1.00  0.00    -0.356 OA
HETATM   18  C   UNL     1       6.856  34.397  68.295  1.00  0.00     0.210 C 
ENDBRANCH  14  17
ENDBRANCH   9  11
ENDBRANCH   1   5
BRANCH   2  19
HETATM   19  N   UNL     1       7.606  29.483  57.297  1.00  0.00    -0.267 N 
HETATM   20  C   UNL     1       6.931  28.423  56.728  1.00  0.00     0.236 C 
HETATM   21  O   UNL     1       5.904  27.963  57.222  1.00  0.00    -0.272 OA
HETATM   22  H   UNL     1       8.411  29.947  56.880  1.00  0.00     0.190 HD
BRANCH  20  23
HETATM   23  C   UNL     1       7.564  27.915  55.455  1.00  0.00     0.109 C 
BRANCH  23  24
HETATM   24  C   UNL     1       6.525  27.247  54.556  1.00  0.00     0.049 C 
BRANCH  24  25
HETATM   25  C   UNL     1       7.007  25.922  54.011  1.00  0.00    -0.036 A 
HETATM   26  C   UNL     1       6.913  24.721  54.732  1.00  0.00     0.040 A 
HETATM   27 CL   UNL     1       6.233  24.658  56.318  1.00  0.00    -0.084 Cl
HETATM   28  C   UNL     1       7.377  23.523  54.179  1.00  0.00     0.024 A 
HETATM   29  C   UNL     1       7.941  23.509  52.904  1.00  0.00     0.002 A 
HETATM   30  C   UNL     1       8.048  24.694  52.181  1.00  0.00     0.001 A 
HETATM   31  C   UNL     1       7.587  25.892  52.730  1.00  0.00     0.009 A 
ENDBRANCH  24  25
ENDBRANCH  23  24
ENDBRANCH  20  23
ENDBRANCH   2  19
TORSDOF 7
ENDMDL
