MODEL 1
REMARK VINA RESULT:      -9.8      0.000      0.000
REMARK  10 active torsions:
REMARK  status: ('A' for Active; 'I' for Inactive)
REMARK    1  A    between atoms: C_3  and  C_4 
REMARK       I    between atoms: C_4  and  N_5 
REMARK    2  A    between atoms: N_5  and  N_6 
REMARK    3  A    between atoms: N_6  and  C_7 
REMARK    4  A    between atoms: C_7  and  C_8 
REMARK    5  A    between atoms: C_8  and  O_9 
REMARK    6  A    between atoms: O_9  and  C_10 
REMARK    7  A    between atoms: C_22  and  O_23 
REMARK    8  A    between atoms: O_23  and  C_24 
REMARK    9  A    between atoms: C_24  and  C_25 
REMARK   10  A    between atoms: N_27  and  C_28 
ROOT
HETATM    1  C   UNL     1       4.249  29.822  57.079  1.00  0.00     0.001 A 
HETATM    2  C   UNL     1       5.263  28.943  57.459  1.00  0.00     0.020 A 
HETATM    3  C   UNL     1       6.016  28.300  56.472  1.00  0.00     0.067 A 
HETATM    4  C   UNL     1       5.738  28.503  55.116  1.00  0.00     0.085 A 
HETATM    5  C   UNL     1       4.736  29.399  54.743  1.00  0.00     0.038 A 
HETATM    6  C   UNL     1       3.990  30.051  55.726  1.00  0.00     0.003 A 
ENDROOT
BRANCH   3   7
HETATM    7  C   UNL     1       7.076  27.357  56.859  1.00  0.00     0.272 C 
HETATM    8  N   UNL     1       8.405  27.754  56.826  1.00  0.00    -0.264 N 
HETATM    9  H   UNL     1       8.980  27.197  57.461  1.00  0.00     0.190 HD
HETATM   10  O   UNL     1       6.766  26.244  57.268  1.00  0.00    -0.266 OA
BRANCH   8  11
HETATM   11  N   UNL     1       8.849  28.957  56.463  1.00  0.00    -0.285 N 
HETATM   12  H   UNL     1       8.295  29.486  55.785  1.00  0.00     0.188 HD
BRANCH  11  13
HETATM   13  C   UNL     1       9.883  29.605  57.011  1.00  0.00     0.114 C 
HETATM   14  N   UNL     1      11.155  29.426  56.699  1.00  0.00    -0.386 N 
HETATM   15  H   UNL     1      11.864  29.988  57.163  1.00  0.00     0.157 HD
HETATM   16  H   UNL     1      11.472  28.770  55.991  1.00  0.00     0.157 HD
BRANCH  13  17
HETATM   17  C   UNL     1       9.581  30.582  58.118  1.00  0.00     0.253 C 
BRANCH  17  18
HETATM   18  O   UNL     1       8.347  30.202  58.751  1.00  0.00    -0.342 OA
BRANCH  18  19
HETATM   19  C   UNL     1       8.215  30.838  59.959  1.00  0.00     0.091 A 
HETATM   20  C   UNL     1       7.252  31.836  60.165  1.00  0.00     0.069 A 
HETATM   21 CL   UNL     1       6.151  32.279  58.911  1.00  0.00    -0.081 Cl
HETATM   22  C   UNL     1       7.172  32.486  61.395  1.00  0.00     0.050 A 
HETATM   23  C   UNL     1       8.070  32.149  62.407  1.00  0.00     0.035 A 
HETATM   24 CL   UNL     1       7.979  32.946  63.929  1.00  0.00    -0.084 Cl
HETATM   25  C   UNL     1       9.049  31.175  62.197  1.00  0.00     0.026 A 
HETATM   26  C   UNL     1       9.128  30.522  60.966  1.00  0.00     0.040 A 
ENDBRANCH  18  19
ENDBRANCH  17  18
ENDBRANCH  13  17
ENDBRANCH  11  13
ENDBRANCH   8  11
ENDBRANCH   3   7
BRANCH   4  27
HETATM   27  O   UNL     1       6.570  27.941  54.183  1.00  0.00    -0.343 OA
BRANCH  27  28
HETATM   28  C   UNL     1       5.875  27.010  53.319  1.00  0.00     0.258 C 
BRANCH  28  29
HETATM   29  C   UNL     1       6.620  25.724  53.134  1.00  0.00     0.172 A 
HETATM   30  N   UNL     1       6.600  24.720  54.026  1.00  0.00    -0.147 NA
HETATM   31  N   UNL     1       7.452  23.820  53.456  1.00  0.00    -0.207 N 
HETATM   32  C   UNL     1       7.914  24.314  52.263  1.00  0.00     0.239 A 
HETATM   33  N   UNL     1       7.406  25.505  52.036  1.00  0.00    -0.223 NA
BRANCH  31  34
HETATM   34  C   UNL     1       7.787  22.573  54.045  1.00  0.00     0.153 A 
HETATM   35  N   UNL     1       7.877  22.514  55.397  1.00  0.00    -0.217 NA
HETATM   36  C   UNL     1       8.188  21.316  55.933  1.00  0.00     0.128 A 
HETATM   37 CL   UNL     1       8.283  21.306  57.643  1.00  0.00    -0.062 Cl
HETATM   38  C   UNL     1       8.422  20.166  55.200  1.00  0.00     0.044 A 
HETATM   39  C   UNL     1       8.327  20.248  53.815  1.00  0.00     0.007 A 
HETATM   40  C   UNL     1       8.004  21.467  53.222  1.00  0.00     0.052 A 
ENDBRANCH  31  34
ENDBRANCH  28  29
ENDBRANCH  27  28
ENDBRANCH   4  27
TORSDOF 10
ENDMDL
MODEL 2
REMARK VINA RESULT:      -9.5      3.373      7.436
REMARK  10 active torsions:
REMARK  status: ('A' for Active; 'I' for Inactive)
REMARK    1  A    between atoms: C_3  and  C_4 
REMARK       I    between atoms: C_4  and  N_5 
REMARK    2  A    between atoms: N_5  and  N_6 
REMARK    3  A    between atoms: N_6  and  C_7 
REMARK    4  A    between atoms: C_7  and  C_8 
REMARK    5  A    between atoms: C_8  and  O_9 
REMARK    6  A    between atoms: O_9  and  C_10 
REMARK    7  A    between atoms: C_22  and  O_23 
REMARK    8  A    between atoms: O_23  and  C_24 
REMARK    9  A    between atoms: C_24  and  C_25 
REMARK   10  A    between atoms: N_27  and  C_28 
ROOT
HETATM    1  C   UNL     1       8.335  30.889  60.758  1.00  0.00     0.001 A 
HETATM    2  C   UNL     1       8.791  30.087  59.712  1.00  0.00     0.020 A 
HETATM    3  C   UNL     1       8.185  30.191  58.457  1.00  0.00     0.067 A 
HETATM    4  C   UNL     1       7.110  31.061  58.252  1.00  0.00     0.085 A 
HETATM    5  C   UNL     1       6.671  31.875  59.296  1.00  0.00     0.038 A 
HETATM    6  C   UNL     1       7.281  31.782  60.548  1.00  0.00     0.003 A 
ENDROOT
BRANCH   3   7
HETATM    7  C   UNL     1       8.646  29.339  57.350  1.00  0.00     0.272 C 
HETATM    8  N   UNL     1       7.853  28.293  56.902  1.00  0.00    -0.264 N 
HETATM    9  H   UNL     1       8.068  28.045  55.934  1.00  0.00     0.190 HD
HETATM   10  O   UNL     1       9.706  29.604  56.792  1.00  0.00    -0.266 OA
BRANCH   8  11
HETATM   11  N   UNL     1       6.659  27.957  57.390  1.00  0.00    -0.285 N 
HETATM   12  H   UNL     1       6.201  28.614  58.026  1.00  0.00     0.188 HD
BRANCH  11  13
HETATM   13  C   UNL     1       5.933  26.899  57.013  1.00  0.00     0.114 C 
HETATM   14  N   UNL     1       4.692  26.941  56.560  1.00  0.00    -0.386 N 
HETATM   15  H   UNL     1       4.236  26.076  56.278  1.00  0.00     0.157 HD
HETATM   16  H   UNL     1       4.165  27.802  56.445  1.00  0.00     0.157 HD
BRANCH  13  17
HETATM   17  C   UNL     1       6.558  25.537  57.169  1.00  0.00     0.253 C 
BRANCH  17  18
HETATM   18  O   UNL     1       7.798  25.509  56.440  1.00  0.00    -0.342 OA
BRANCH  18  19
HETATM   19  C   UNL     1       7.838  24.420  55.609  1.00  0.00     0.091 A 
HETATM   20  C   UNL     1       7.861  24.558  54.213  1.00  0.00     0.069 A 
HETATM   21 CL   UNL     1       7.887  26.119  53.477  1.00  0.00    -0.081 Cl
HETATM   22  C   UNL     1       7.864  23.426  53.400  1.00  0.00     0.050 A 
HETATM   23  C   UNL     1       7.824  22.161  53.985  1.00  0.00     0.035 A 
HETATM   24 CL   UNL     1       7.828  20.759  52.989  1.00  0.00    -0.084 Cl
HETATM   25  C   UNL     1       7.772  22.020  55.374  1.00  0.00     0.026 A 
HETATM   26  C   UNL     1       7.772  23.152  56.189  1.00  0.00     0.040 A 
ENDBRANCH  18  19
ENDBRANCH  17  18
ENDBRANCH  13  17
ENDBRANCH  11  13
ENDBRANCH   8  11
ENDBRANCH   3   7
BRANCH   4  27
HETATM   27  O   UNL     1       6.620  31.213  56.981  1.00  0.00    -0.343 OA
BRANCH  27  28
HETATM   28  C   UNL     1       5.173  31.150  56.941  1.00  0.00     0.258 C 
BRANCH  28  29
HETATM   29  C   UNL     1       4.655  30.551  55.670  1.00  0.00     0.172 A 
HETATM   30  N   UNL     1       5.262  29.542  55.023  1.00  0.00    -0.147 NA
HETATM   31  N   UNL     1       4.468  29.394  53.924  1.00  0.00    -0.207 N 
HETATM   32  C   UNL     1       3.433  30.291  53.979  1.00  0.00     0.239 A 
HETATM   33  N   UNL     1       3.524  31.027  55.064  1.00  0.00    -0.223 NA
BRANCH  31  34
HETATM   34  C   UNL     1       4.714  28.443  52.900  1.00  0.00     0.153 A 
HETATM   35  N   UNL     1       4.565  27.129  53.205  1.00  0.00    -0.217 NA
HETATM   36  C   UNL     1       4.797  26.246  52.213  1.00  0.00     0.128 A 
HETATM   37 CL   UNL     1       4.588  24.605  52.659  1.00  0.00    -0.062 Cl
HETATM   38  C   UNL     1       5.176  26.591  50.928  1.00  0.00     0.044 A 
HETATM   39  C   UNL     1       5.327  27.943  50.636  1.00  0.00     0.007 A 
HETATM   40  C   UNL     1       5.093  28.889  51.633  1.00  0.00     0.052 A 
ENDBRANCH  31  34
ENDBRANCH  28  29
ENDBRANCH  27  28
ENDBRANCH   4  27
TORSDOF 10
ENDMDL
MODEL 3
REMARK VINA RESULT:      -9.4      4.233      8.991
REMARK  10 active torsions:
REMARK  status: ('A' for Active; 'I' for Inactive)
REMARK    1  A    between atoms: C_3  and  C_4 
REMARK       I    between atoms: C_4  and  N_5 
REMARK    2  A    between atoms: N_5  and  N_6 
REMARK    3  A    between atoms: N_6  and  C_7 
REMARK    4  A    between atoms: C_7  and  C_8 
REMARK    5  A    between atoms: C_8  and  O_9 
REMARK    6  A    between atoms: O_9  and  C_10 
REMARK    7  A    between atoms: C_22  and  O_23 
REMARK    8  A    between atoms: O_23  and  C_24 
REMARK    9  A    between atoms: C_24  and  C_25 
REMARK   10  A    between atoms: N_27  and  C_28 
ROOT
HETATM    1  C   UNL     1       2.751  25.676  46.974  1.00  0.00     0.001 A 
HETATM    2  C   UNL     1       3.893  26.108  47.649  1.00  0.00     0.020 A 
HETATM    3  C   UNL     1       3.866  27.331  48.325  1.00  0.00     0.067 A 
HETATM    4  C   UNL     1       2.722  28.136  48.301  1.00  0.00     0.085 A 
HETATM    5  C   UNL     1       1.577  27.689  47.642  1.00  0.00     0.038 A 
HETATM    6  C   UNL     1       1.597  26.463  46.975  1.00  0.00     0.003 A 
ENDROOT
BRANCH   3   7
HETATM    7  C   UNL     1       5.069  27.806  49.026  1.00  0.00     0.272 C 
HETATM    8  N   UNL     1       5.375  27.322  50.289  1.00  0.00    -0.264 N 
HETATM    9  H   UNL     1       6.373  27.401  50.492  1.00  0.00     0.190 HD
HETATM   10  O   UNL     1       5.825  28.584  48.454  1.00  0.00    -0.266 OA
BRANCH   8  11
HETATM   11  N   UNL     1       4.660  26.428  50.973  1.00  0.00    -0.285 N 
HETATM   12  H   UNL     1       3.833  26.031  50.522  1.00  0.00     0.188 HD
BRANCH  11  13
HETATM   13  C   UNL     1       5.004  25.892  52.149  1.00  0.00     0.114 C 
HETATM   14  N   UNL     1       4.298  25.968  53.264  1.00  0.00    -0.386 N 
HETATM   15  H   UNL     1       4.641  25.503  54.102  1.00  0.00     0.157 HD
HETATM   16  H   UNL     1       3.404  26.445  53.331  1.00  0.00     0.157 HD
BRANCH  13  17
HETATM   17  C   UNL     1       6.333  25.187  52.228  1.00  0.00     0.253 C 
BRANCH  17  18
HETATM   18  O   UNL     1       6.775  25.178  53.597  1.00  0.00    -0.342 OA
BRANCH  18  19
HETATM   19  C   UNL     1       7.196  23.923  53.955  1.00  0.00     0.091 A 
HETATM   20  C   UNL     1       7.199  23.500  55.291  1.00  0.00     0.069 A 
HETATM   21 CL   UNL     1       6.624  24.531  56.551  1.00  0.00    -0.081 Cl
HETATM   22  C   UNL     1       7.669  22.229  55.620  1.00  0.00     0.050 A 
HETATM   23  C   UNL     1       8.154  21.396  54.613  1.00  0.00     0.035 A 
HETATM   24 CL   UNL     1       8.735  19.827  55.009  1.00  0.00    -0.084 Cl
HETATM   25  C   UNL     1       8.179  21.825  53.284  1.00  0.00     0.026 A 
HETATM   26  C   UNL     1       7.706  23.096  52.953  1.00  0.00     0.040 A 
ENDBRANCH  18  19
ENDBRANCH  17  18
ENDBRANCH  13  17
ENDBRANCH  11  13
ENDBRANCH   8  11
ENDBRANCH   3   7
BRANCH   4  27
HETATM   27  O   UNL     1       2.702  29.272  49.068  1.00  0.00    -0.343 OA
BRANCH  27  28
HETATM   28  C   UNL     1       2.002  29.073  50.321  1.00  0.00     0.258 C 
BRANCH  28  29
HETATM   29  C   UNL     1       2.763  29.600  51.498  1.00  0.00     0.172 A 
HETATM   30  N   UNL     1       3.288  28.817  52.454  1.00  0.00    -0.147 NA
HETATM   31  N   UNL     1       3.815  29.735  53.314  1.00  0.00    -0.207 N 
HETATM   32  C   UNL     1       3.601  30.998  52.826  1.00  0.00     0.239 A 
HETATM   33  N   UNL     1       2.947  30.944  51.688  1.00  0.00    -0.223 NA
BRANCH  31  34
HETATM   34  C   UNL     1       4.474  29.391  54.523  1.00  0.00     0.153 A 
HETATM   35  N   UNL     1       5.671  28.757  54.434  1.00  0.00    -0.217 NA
HETATM   36  C   UNL     1       6.281  28.449  55.596  1.00  0.00     0.128 A 
HETATM   37 CL   UNL     1       7.789  27.655  55.418  1.00  0.00    -0.062 Cl
HETATM   38  C   UNL     1       5.768  28.729  56.850  1.00  0.00     0.044 A 
HETATM   39  C   UNL     1       4.539  29.376  56.920  1.00  0.00     0.007 A 
HETATM   40  C   UNL     1       3.877  29.716  55.741  1.00  0.00     0.052 A 
ENDBRANCH  31  34
ENDBRANCH  28  29
ENDBRANCH  27  28
ENDBRANCH   4  27
TORSDOF 10
ENDMDL
MODEL 4
REMARK VINA RESULT:      -9.4      3.891     10.552
REMARK  10 active torsions:
REMARK  status: ('A' for Active; 'I' for Inactive)
REMARK    1  A    between atoms: C_3  and  C_4 
REMARK       I    between atoms: C_4  and  N_5 
REMARK    2  A    between atoms: N_5  and  N_6 
REMARK    3  A    between atoms: N_6  and  C_7 
REMARK    4  A    between atoms: C_7  and  C_8 
REMARK    5  A    between atoms: C_8  and  O_9 
REMARK    6  A    between atoms: O_9  and  C_10 
REMARK    7  A    between atoms: C_22  and  O_23 
REMARK    8  A    between atoms: O_23  and  C_24 
REMARK    9  A    between atoms: C_24  and  C_25 
REMARK   10  A    between atoms: N_27  and  C_28 
ROOT
HETATM    1  C   UNL     1      10.649  29.770  56.570  1.00  0.00     0.001 A 
HETATM    2  C   UNL     1       9.599  28.857  56.674  1.00  0.00     0.020 A 
HETATM    3  C   UNL     1       8.637  29.033  57.673  1.00  0.00     0.067 A 
HETATM    4  C   UNL     1       8.738  30.088  58.585  1.00  0.00     0.085 A 
HETATM    5  C   UNL     1       9.778  31.009  58.463  1.00  0.00     0.038 A 
HETATM    6  C   UNL     1      10.735  30.844  57.460  1.00  0.00     0.003 A 
ENDROOT
BRANCH   3   7
HETATM    7  C   UNL     1       7.535  28.067  57.803  1.00  0.00     0.272 C 
HETATM    8  N   UNL     1       6.266  28.395  57.349  1.00  0.00    -0.264 N 
HETATM    9  H   UNL     1       5.717  27.562  57.130  1.00  0.00     0.190 HD
HETATM   10  O   UNL     1       7.767  26.953  58.259  1.00  0.00    -0.266 OA
BRANCH   8  11
HETATM   11  N   UNL     1       5.918  29.549  56.779  1.00  0.00    -0.285 N 
HETATM   12  H   UNL     1       6.120  30.413  57.288  1.00  0.00     0.188 HD
BRANCH  11  13
HETATM   13  C   UNL     1       5.454  29.694  55.533  1.00  0.00     0.114 C 
HETATM   14  N   UNL     1       5.165  30.844  54.950  1.00  0.00    -0.386 N 
HETATM   15  H   UNL     1       4.839  30.845  53.986  1.00  0.00     0.157 HD
HETATM   16  H   UNL     1       5.279  31.747  55.401  1.00  0.00     0.157 HD
BRANCH  13  17
HETATM   17  C   UNL     1       5.185  28.440  54.743  1.00  0.00     0.253 C 
BRANCH  17  18
HETATM   18  O   UNL     1       6.060  28.412  53.602  1.00  0.00    -0.342 OA
BRANCH  18  19
HETATM   19  C   UNL     1       6.539  27.144  53.398  1.00  0.00     0.091 A 
HETATM   20  C   UNL     1       6.351  26.471  52.182  1.00  0.00     0.069 A 
HETATM   21 CL   UNL     1       5.543  27.235  50.861  1.00  0.00    -0.081 Cl
HETATM   22  C   UNL     1       6.820  25.168  52.025  1.00  0.00     0.050 A 
HETATM   23  C   UNL     1       7.457  24.536  53.093  1.00  0.00     0.035 A 
HETATM   24 CL   UNL     1       8.039  22.928  52.908  1.00  0.00    -0.084 Cl
HETATM   25  C   UNL     1       7.621  25.192  54.315  1.00  0.00     0.026 A 
HETATM   26  C   UNL     1       7.154  26.497  54.472  1.00  0.00     0.040 A 
ENDBRANCH  18  19
ENDBRANCH  17  18
ENDBRANCH  13  17
ENDBRANCH  11  13
ENDBRANCH   8  11
ENDBRANCH   3   7
BRANCH   4  27
HETATM   27  O   UNL     1       7.715  30.287  59.475  1.00  0.00    -0.343 OA
BRANCH  27  28
HETATM   28  C   UNL     1       7.492  31.692  59.748  1.00  0.00     0.258 C 
BRANCH  28  29
HETATM   29  C   UNL     1       7.467  31.999  61.214  1.00  0.00     0.172 A 
HETATM   30  N   UNL     1       6.416  32.557  61.837  1.00  0.00    -0.147 NA
HETATM   31  N   UNL     1       6.882  32.690  63.112  1.00  0.00    -0.207 N 
HETATM   32  C   UNL     1       8.158  32.194  63.190  1.00  0.00     0.239 A 
HETATM   33  N   UNL     1       8.549  31.753  62.016  1.00  0.00    -0.223 NA
BRANCH  31  34
HETATM   34  C   UNL     1       6.127  33.263  64.168  1.00  0.00     0.153 A 
HETATM   35  N   UNL     1       6.770  33.533  65.332  1.00  0.00    -0.217 NA
HETATM   36  C   UNL     1       6.034  34.085  66.318  1.00  0.00     0.128 A 
HETATM   37 CL   UNL     1       6.902  34.406  67.759  1.00  0.00    -0.062 Cl
HETATM   38  C   UNL     1       4.686  34.382  66.218  1.00  0.00     0.044 A 
HETATM   39  C   UNL     1       4.044  34.094  65.018  1.00  0.00     0.007 A 
HETATM   40  C   UNL     1       4.771  33.527  63.972  1.00  0.00     0.052 A 
ENDBRANCH  31  34
ENDBRANCH  28  29
ENDBRANCH  27  28
ENDBRANCH   4  27
TORSDOF 10
ENDMDL
MODEL 5
REMARK VINA RESULT:      -9.4      4.057      9.545
REMARK  10 active torsions:
REMARK  status: ('A' for Active; 'I' for Inactive)
REMARK    1  A    between atoms: C_3  and  C_4 
REMARK       I    between atoms: C_4  and  N_5 
REMARK    2  A    between atoms: N_5  and  N_6 
REMARK    3  A    between atoms: N_6  and  C_7 
REMARK    4  A    between atoms: C_7  and  C_8 
REMARK    5  A    between atoms: C_8  and  O_9 
REMARK    6  A    between atoms: O_9  and  C_10 
REMARK    7  A    between atoms: C_22  and  O_23 
REMARK    8  A    between atoms: O_23  and  C_24 
REMARK    9  A    between atoms: C_24  and  C_25 
REMARK   10  A    between atoms: N_27  and  C_28 
ROOT
HETATM    1  C   UNL     1       6.815  23.982  53.133  1.00  0.00     0.001 A 
HETATM    2  C   UNL     1       5.977  24.589  54.068  1.00  0.00     0.020 A 
HETATM    3  C   UNL     1       6.138  25.949  54.349  1.00  0.00     0.067 A 
HETATM    4  C   UNL     1       7.150  26.691  53.731  1.00  0.00     0.085 A 
HETATM    5  C   UNL     1       7.972  26.083  52.783  1.00  0.00     0.038 A 
HETATM    6  C   UNL     1       7.806  24.728  52.491  1.00  0.00     0.003 A 
ENDROOT
BRANCH   3   7
HETATM    7  C   UNL     1       5.272  26.598  55.345  1.00  0.00     0.272 C 
HETATM    8  N   UNL     1       4.269  27.464  54.935  1.00  0.00    -0.264 N 
HETATM    9  H   UNL     1       3.521  27.530  55.628  1.00  0.00     0.190 HD
HETATM   10  O   UNL     1       5.408  26.314  56.530  1.00  0.00    -0.266 OA
BRANCH   8  11
HETATM   11  N   UNL     1       3.991  27.791  53.673  1.00  0.00    -0.285 N 
HETATM   12  H   UNL     1       3.645  27.054  53.054  1.00  0.00     0.188 HD
BRANCH  11  13
HETATM   13  C   UNL     1       3.987  29.031  53.173  1.00  0.00     0.114 C 
HETATM   14  N   UNL     1       4.723  30.039  53.609  1.00  0.00    -0.386 N 
HETATM   15  H   UNL     1       4.660  30.940  53.141  1.00  0.00     0.157 HD
HETATM   16  H   UNL     1       5.383  29.960  54.377  1.00  0.00     0.157 HD
BRANCH  13  17
HETATM   17  C   UNL     1       3.023  29.324  52.053  1.00  0.00     0.253 C 
BRANCH  17  18
HETATM   18  O   UNL     1       3.767  29.526  50.839  1.00  0.00    -0.342 OA
BRANCH  18  19
HETATM   19  C   UNL     1       3.589  28.465  49.988  1.00  0.00     0.091 A 
HETATM   20  C   UNL     1       2.474  28.378  49.142  1.00  0.00     0.069 A 
HETATM   21 CL   UNL     1       1.292  29.636  49.100  1.00  0.00    -0.081 Cl
HETATM   22  C   UNL     1       2.308  27.267  48.318  1.00  0.00     0.050 A 
HETATM   23  C   UNL     1       3.247  26.237  48.358  1.00  0.00     0.035 A 
HETATM   24 CL   UNL     1       3.050  24.862  47.344  1.00  0.00    -0.084 Cl
HETATM   25  C   UNL     1       4.344  26.307  49.220  1.00  0.00     0.026 A 
HETATM   26  C   UNL     1       4.512  27.420  50.045  1.00  0.00     0.040 A 
ENDBRANCH  18  19
ENDBRANCH  17  18
ENDBRANCH  13  17
ENDBRANCH  11  13
ENDBRANCH   8  11
ENDBRANCH   3   7
BRANCH   4  27
HETATM   27  O   UNL     1       7.202  28.043  53.952  1.00  0.00    -0.343 OA
BRANCH  27  28
HETATM   28  C   UNL     1       8.193  28.398  54.946  1.00  0.00     0.258 C 
BRANCH  28  29
HETATM   29  C   UNL     1       7.636  29.256  56.039  1.00  0.00     0.172 A 
HETATM   30  N   UNL     1       8.322  29.589  57.145  1.00  0.00    -0.147 NA
HETATM   31  N   UNL     1       7.397  30.308  57.845  1.00  0.00    -0.207 N 
HETATM   32  C   UNL     1       6.233  30.385  57.125  1.00  0.00     0.239 A 
HETATM   33  N   UNL     1       6.355  29.737  55.989  1.00  0.00    -0.223 NA
BRANCH  31  34
HETATM   34  C   UNL     1       7.644  30.871  59.124  1.00  0.00     0.153 A 
HETATM   35  N   UNL     1       8.529  30.238  59.935  1.00  0.00    -0.217 NA
HETATM   36  C   UNL     1       8.753  30.797  61.142  1.00  0.00     0.128 A 
HETATM   37 CL   UNL     1       9.882  29.954  62.116  1.00  0.00    -0.062 Cl
HETATM   38  C   UNL     1       8.142  31.951  61.596  1.00  0.00     0.044 A 
HETATM   39  C   UNL     1       7.235  32.584  60.752  1.00  0.00     0.007 A 
HETATM   40  C   UNL     1       6.979  32.040  59.494  1.00  0.00     0.052 A 
ENDBRANCH  31  34
ENDBRANCH  28  29
ENDBRANCH  27  28
ENDBRANCH   4  27
TORSDOF 10
ENDMDL
MODEL 6
REMARK VINA RESULT:      -9.3      3.660     10.785
REMARK  10 active torsions:
REMARK  status: ('A' for Active; 'I' for Inactive)
REMARK    1  A    between atoms: C_3  and  C_4 
REMARK       I    between atoms: C_4  and  N_5 
REMARK    2  A    between atoms: N_5  and  N_6 
REMARK    3  A    between atoms: N_6  and  C_7 
REMARK    4  A    between atoms: C_7  and  C_8 
REMARK    5  A    between atoms: C_8  and  O_9 
REMARK    6  A    between atoms: O_9  and  C_10 
REMARK    7  A    between atoms: C_22  and  O_23 
REMARK    8  A    between atoms: O_23  and  C_24 
REMARK    9  A    between atoms: C_24  and  C_25 
REMARK   10  A    between atoms: N_27  and  C_28 
ROOT
HETATM    1  C   UNL     1       9.455  29.364  55.862  1.00  0.00     0.001 A 
HETATM    2  C   UNL     1       8.061  29.352  55.925  1.00  0.00     0.020 A 
HETATM    3  C   UNL     1       7.428  29.747  57.107  1.00  0.00     0.067 A 
HETATM    4  C   UNL     1       8.175  30.117  58.230  1.00  0.00     0.085 A 
HETATM    5  C   UNL     1       9.567  30.146  58.154  1.00  0.00     0.038 A 
HETATM    6  C   UNL     1      10.204  29.764  56.971  1.00  0.00     0.003 A 
ENDROOT
BRANCH   3   7
HETATM    7  C   UNL     1       5.959  29.722  57.193  1.00  0.00     0.272 C 
HETATM    8  N   UNL     1       5.289  28.512  57.291  1.00  0.00    -0.264 N 
HETATM    9  H   UNL     1       4.372  28.623  57.727  1.00  0.00     0.190 HD
HETATM   10  O   UNL     1       5.346  30.782  57.240  1.00  0.00    -0.266 OA
BRANCH   8  11
HETATM   11  N   UNL     1       5.859  27.307  57.315  1.00  0.00    -0.285 N 
HETATM   12  H   UNL     1       6.549  27.119  58.046  1.00  0.00     0.188 HD
BRANCH  11  13
HETATM   13  C   UNL     1       5.507  26.263  56.556  1.00  0.00     0.114 C 
HETATM   14  N   UNL     1       4.740  25.257  56.940  1.00  0.00    -0.386 N 
HETATM   15  H   UNL     1       4.514  24.522  56.274  1.00  0.00     0.157 HD
HETATM   16  H   UNL     1       4.329  25.186  57.866  1.00  0.00     0.157 HD
BRANCH  13  17
HETATM   17  C   UNL     1       6.076  26.196  55.163  1.00  0.00     0.253 C 
BRANCH  17  18
HETATM   18  O   UNL     1       7.472  25.859  55.246  1.00  0.00    -0.342 OA
BRANCH  18  19
HETATM   19  C   UNL     1       7.691  24.604  54.740  1.00  0.00     0.091 A 
HETATM   20  C   UNL     1       8.263  23.586  55.517  1.00  0.00     0.069 A 
HETATM   21 CL   UNL     1       8.675  23.857  57.171  1.00  0.00    -0.081 Cl
HETATM   22  C   UNL     1       8.504  22.332  54.957  1.00  0.00     0.050 A 
HETATM   23  C   UNL     1       8.192  22.109  53.616  1.00  0.00     0.035 A 
HETATM   24 CL   UNL     1       8.486  20.566  52.917  1.00  0.00    -0.084 Cl
HETATM   25  C   UNL     1       7.649  23.129  52.831  1.00  0.00     0.026 A 
HETATM   26  C   UNL     1       7.405  24.384  53.391  1.00  0.00     0.040 A 
ENDBRANCH  18  19
ENDBRANCH  17  18
ENDBRANCH  13  17
ENDBRANCH  11  13
ENDBRANCH   8  11
ENDBRANCH   3   7
BRANCH   4  27
HETATM   27  O   UNL     1       7.515  30.602  59.329  1.00  0.00    -0.343 OA
BRANCH  27  28
HETATM   28  C   UNL     1       7.987  31.916  59.715  1.00  0.00     0.258 C 
BRANCH  28  29
HETATM   29  C   UNL     1       7.781  32.199  61.171  1.00  0.00     0.172 A 
HETATM   30  N   UNL     1       6.638  32.690  61.677  1.00  0.00    -0.147 NA
HETATM   31  N   UNL     1       6.950  32.829  62.997  1.00  0.00    -0.207 N 
HETATM   32  C   UNL     1       8.234  32.401  63.214  1.00  0.00     0.239 A 
HETATM   33  N   UNL     1       8.778  31.999  62.087  1.00  0.00    -0.223 NA
BRANCH  31  34
HETATM   34  C   UNL     1       6.052  33.345  63.967  1.00  0.00     0.153 A 
HETATM   35  N   UNL     1       6.530  33.571  65.217  1.00  0.00    -0.217 NA
HETATM   36  C   UNL     1       5.659  34.070  66.118  1.00  0.00     0.128 A 
HETATM   37 CL   UNL     1       6.323  34.337  67.674  1.00  0.00    -0.062 Cl
HETATM   38  C   UNL     1       4.331  34.353  65.852  1.00  0.00     0.044 A 
HETATM   39  C   UNL     1       3.860  34.112  64.566  1.00  0.00     0.007 A 
HETATM   40  C   UNL     1       4.729  33.600  63.603  1.00  0.00     0.052 A 
ENDBRANCH  31  34
ENDBRANCH  28  29
ENDBRANCH  27  28
ENDBRANCH   4  27
TORSDOF 10
ENDMDL
MODEL 7
REMARK VINA RESULT:      -9.3      4.580     10.213
REMARK  10 active torsions:
REMARK  status: ('A' for Active; 'I' for Inactive)
REMARK    1  A    between atoms: C_3  and  C_4 
REMARK       I    between atoms: C_4  and  N_5 
REMARK    2  A    between atoms: N_5  and  N_6 
REMARK    3  A    between atoms: N_6  and  C_7 
REMARK    4  A    between atoms: C_7  and  C_8 
REMARK    5  A    between atoms: C_8  and  O_9 
REMARK    6  A    between atoms: O_9  and  C_10 
REMARK    7  A    between atoms: C_22  and  O_23 
REMARK    8  A    between atoms: O_23  and  C_24 
REMARK    9  A    between atoms: C_24  and  C_25 
REMARK   10  A    between atoms: N_27  and  C_28 
ROOT
HETATM    1  C   UNL     1       8.123  23.948  52.698  1.00  0.00     0.001 A 
HETATM    2  C   UNL     1       8.031  25.339  52.643  1.00  0.00     0.020 A 
HETATM    3  C   UNL     1       7.255  26.011  53.593  1.00  0.00     0.067 A 
HETATM    4  C   UNL     1       6.547  25.302  54.568  1.00  0.00     0.085 A 
HETATM    5  C   UNL     1       6.659  23.913  54.630  1.00  0.00     0.038 A 
HETATM    6  C   UNL     1       7.442  23.239  53.691  1.00  0.00     0.003 A 
ENDROOT
BRANCH   3   7
HETATM    7  C   UNL     1       7.136  27.476  53.535  1.00  0.00     0.272 C 
HETATM    8  N   UNL     1       5.980  28.060  53.040  1.00  0.00    -0.264 N 
HETATM    9  H   UNL     1       5.851  29.006  53.402  1.00  0.00     0.190 HD
HETATM   10  O   UNL     1       8.042  28.167  53.987  1.00  0.00    -0.266 OA
BRANCH   8  11
HETATM   11  N   UNL     1       4.911  27.406  52.585  1.00  0.00    -0.285 N 
HETATM   12  H   UNL     1       4.039  27.491  53.114  1.00  0.00     0.188 HD
BRANCH  11  13
HETATM   13  C   UNL     1       4.831  26.760  51.417  1.00  0.00     0.114 C 
HETATM   14  N   UNL     1       4.610  25.465  51.269  1.00  0.00    -0.386 N 
HETATM   15  H   UNL     1       4.545  25.076  50.331  1.00  0.00     0.157 HD
HETATM   16  H   UNL     1       4.469  24.827  52.047  1.00  0.00     0.157 HD
BRANCH  13  17
HETATM   17  C   UNL     1       5.067  27.561  50.163  1.00  0.00     0.253 C 
BRANCH  17  18
HETATM   18  O   UNL     1       4.806  26.726  49.022  1.00  0.00    -0.342 OA
BRANCH  18  19
HETATM   19  C   UNL     1       3.692  27.166  48.354  1.00  0.00     0.091 A 
HETATM   20  C   UNL     1       2.746  26.273  47.829  1.00  0.00     0.069 A 
HETATM   21 CL   UNL     1       2.921  24.569  48.044  1.00  0.00    -0.081 Cl
HETATM   22  C   UNL     1       1.645  26.756  47.124  1.00  0.00     0.050 A 
HETATM   23  C   UNL     1       1.506  28.129  46.928  1.00  0.00     0.035 A 
HETATM   24 CL   UNL     1       0.151  28.735  46.060  1.00  0.00    -0.084 Cl
HETATM   25  C   UNL     1       2.461  29.021  47.425  1.00  0.00     0.026 A 
HETATM   26  C   UNL     1       3.562  28.538  48.133  1.00  0.00     0.040 A 
ENDBRANCH  18  19
ENDBRANCH  17  18
ENDBRANCH  13  17
ENDBRANCH  11  13
ENDBRANCH   8  11
ENDBRANCH   3   7
BRANCH   4  27
HETATM   27  O   UNL     1       5.890  26.004  55.544  1.00  0.00    -0.343 OA
BRANCH  27  28
HETATM   28  C   UNL     1       6.679  26.130  56.753  1.00  0.00     0.258 C 
BRANCH  28  29
HETATM   29  C   UNL     1       6.788  27.546  57.228  1.00  0.00     0.172 A 
HETATM   30  N   UNL     1       7.868  28.036  57.859  1.00  0.00    -0.147 NA
HETATM   31  N   UNL     1       7.477  29.313  58.135  1.00  0.00    -0.207 N 
HETATM   32  C   UNL     1       6.214  29.525  57.645  1.00  0.00     0.239 A 
HETATM   33  N   UNL     1       5.759  28.435  57.070  1.00  0.00    -0.223 NA
BRANCH  31  34
HETATM   34  C   UNL     1       8.286  30.249  58.831  1.00  0.00     0.153 A 
HETATM   35  N   UNL     1       7.941  30.561  60.106  1.00  0.00    -0.217 NA
HETATM   36  C   UNL     1       8.730  31.446  60.748  1.00  0.00     0.128 A 
HETATM   37 CL   UNL     1       8.245  31.796  62.354  1.00  0.00    -0.062 Cl
HETATM   38  C   UNL     1       9.845  32.048  60.195  1.00  0.00     0.044 A 
HETATM   39  C   UNL     1      10.181  31.718  58.886  1.00  0.00     0.007 A 
HETATM   40  C   UNL     1       9.393  30.804  58.188  1.00  0.00     0.052 A 
ENDBRANCH  31  34
ENDBRANCH  28  29
ENDBRANCH  27  28
ENDBRANCH   4  27
TORSDOF 10
ENDMDL
MODEL 8
REMARK VINA RESULT:      -9.3      4.064      6.190
REMARK  10 active torsions:
REMARK  status: ('A' for Active; 'I' for Inactive)
REMARK    1  A    between atoms: C_3  and  C_4 
REMARK       I    between atoms: C_4  and  N_5 
REMARK    2  A    between atoms: N_5  and  N_6 
REMARK    3  A    between atoms: N_6  and  C_7 
REMARK    4  A    between atoms: C_7  and  C_8 
REMARK    5  A    between atoms: C_8  and  O_9 
REMARK    6  A    between atoms: O_9  and  C_10 
REMARK    7  A    between atoms: C_22  and  O_23 
REMARK    8  A    between atoms: O_23  and  C_24 
REMARK    9  A    between atoms: C_24  and  C_25 
REMARK   10  A    between atoms: N_27  and  C_28 
ROOT
HETATM    1  C   UNL     1       9.046  32.336  61.466  1.00  0.00     0.001 A 
HETATM    2  C   UNL     1       7.826  32.685  60.887  1.00  0.00     0.020 A 
HETATM    3  C   UNL     1       7.282  31.866  59.893  1.00  0.00     0.067 A 
HETATM    4  C   UNL     1       7.964  30.727  59.453  1.00  0.00     0.085 A 
HETATM    5  C   UNL     1       9.173  30.372  60.051  1.00  0.00     0.038 A 
HETATM    6  C   UNL     1       9.714  31.181  61.051  1.00  0.00     0.003 A 
ENDROOT
BRANCH   3   7
HETATM    7  C   UNL     1       6.005  32.232  59.261  1.00  0.00     0.272 C 
HETATM    8  N   UNL     1       4.837  32.236  60.008  1.00  0.00    -0.264 N 
HETATM    9  H   UNL     1       4.133  32.857  59.605  1.00  0.00     0.190 HD
HETATM   10  O   UNL     1       6.000  32.593  58.090  1.00  0.00    -0.266 OA
BRANCH   8  11
HETATM   11  N   UNL     1       4.739  31.926  61.301  1.00  0.00    -0.285 N 
HETATM   12  H   UNL     1       5.309  31.152  61.652  1.00  0.00     0.188 HD
BRANCH  11  13
HETATM   13  C   UNL     1       4.067  32.626  62.221  1.00  0.00     0.114 C 
HETATM   14  N   UNL     1       2.751  32.678  62.338  1.00  0.00    -0.386 N 
HETATM   15  H   UNL     1       2.340  33.225  63.091  1.00  0.00     0.157 HD
HETATM   16  H   UNL     1       2.113  32.171  61.732  1.00  0.00     0.157 HD
BRANCH  13  17
HETATM   17  C   UNL     1       4.872  33.473  63.172  1.00  0.00     0.253 C 
BRANCH  17  18
HETATM   18  O   UNL     1       4.070  33.760  64.332  1.00  0.00    -0.342 OA
BRANCH  18  19
HETATM   19  C   UNL     1       4.871  33.985  65.422  1.00  0.00     0.091 A 
HETATM   20  C   UNL     1       4.390  34.635  66.568  1.00  0.00     0.069 A 
HETATM   21 CL   UNL     1       2.743  35.140  66.676  1.00  0.00    -0.081 Cl
HETATM   22  C   UNL     1       5.244  34.879  67.642  1.00  0.00     0.050 A 
HETATM   23  C   UNL     1       6.581  34.491  67.556  1.00  0.00     0.035 A 
HETATM   24 CL   UNL     1       7.642  34.788  68.877  1.00  0.00    -0.084 Cl
HETATM   25  C   UNL     1       7.071  33.870  66.405  1.00  0.00     0.026 A 
HETATM   26  C   UNL     1       6.216  33.623  65.330  1.00  0.00     0.040 A 
ENDBRANCH  18  19
ENDBRANCH  17  18
ENDBRANCH  13  17
ENDBRANCH  11  13
ENDBRANCH   8  11
ENDBRANCH   3   7
BRANCH   4  27
HETATM   27  O   UNL     1       7.344  29.894  58.558  1.00  0.00    -0.343 OA
BRANCH  27  28
HETATM   28  C   UNL     1       8.264  29.370  57.570  1.00  0.00     0.258 C 
BRANCH  28  29
HETATM   29  C   UNL     1       8.000  27.934  57.238  1.00  0.00     0.172 A 
HETATM   30  N   UNL     1       7.950  27.458  55.983  1.00  0.00    -0.147 NA
HETATM   31  N   UNL     1       7.633  26.148  56.190  1.00  0.00    -0.207 N 
HETATM   32  C   UNL     1       7.533  25.905  57.535  1.00  0.00     0.239 A 
HETATM   33  N   UNL     1       7.761  27.006  58.216  1.00  0.00    -0.223 NA
BRANCH  31  34
HETATM   34  C   UNL     1       7.442  25.211  55.141  1.00  0.00     0.153 A 
HETATM   35  N   UNL     1       6.355  25.366  54.343  1.00  0.00    -0.217 NA
HETATM   36  C   UNL     1       6.200  24.468  53.349  1.00  0.00     0.128 A 
HETATM   37 CL   UNL     1       4.813  24.720  52.375  1.00  0.00    -0.062 Cl
HETATM   38  C   UNL     1       7.062  23.415  53.102  1.00  0.00     0.044 A 
HETATM   39  C   UNL     1       8.168  23.271  53.933  1.00  0.00     0.007 A 
HETATM   40  C   UNL     1       8.367  24.181  54.970  1.00  0.00     0.052 A 
ENDBRANCH  31  34
ENDBRANCH  28  29
ENDBRANCH  27  28
ENDBRANCH   4  27
TORSDOF 10
ENDMDL
MODEL 9
REMARK VINA RESULT:      -9.2      3.287      4.688
REMARK  10 active torsions:
REMARK  status: ('A' for Active; 'I' for Inactive)
REMARK    1  A    between atoms: C_3  and  C_4 
REMARK       I    between atoms: C_4  and  N_5 
REMARK    2  A    between atoms: N_5  and  N_6 
REMARK    3  A    between atoms: N_6  and  C_7 
REMARK    4  A    between atoms: C_7  and  C_8 
REMARK    5  A    between atoms: C_8  and  O_9 
REMARK    6  A    between atoms: O_9  and  C_10 
REMARK    7  A    between atoms: C_22  and  O_23 
REMARK    8  A    between atoms: O_23  and  C_24 
REMARK    9  A    between atoms: C_24  and  C_25 
REMARK   10  A    between atoms: N_27  and  C_28 
ROOT
HETATM    1  C   UNL     1       8.168  31.473  59.584  1.00  0.00     0.001 A 
HETATM    2  C   UNL     1       6.946  31.929  59.088  1.00  0.00     0.020 A 
HETATM    3  C   UNL     1       6.214  31.114  58.219  1.00  0.00     0.067 A 
HETATM    4  C   UNL     1       6.710  29.870  57.819  1.00  0.00     0.085 A 
HETATM    5  C   UNL     1       7.922  29.411  58.334  1.00  0.00     0.038 A 
HETATM    6  C   UNL     1       8.651  30.217  59.211  1.00  0.00     0.003 A 
ENDROOT
BRANCH   3   7
HETATM    7  C   UNL     1       4.933  31.590  57.676  1.00  0.00     0.272 C 
HETATM    8  N   UNL     1       3.810  31.643  58.487  1.00  0.00    -0.264 N 
HETATM    9  H   UNL     1       3.130  32.326  58.147  1.00  0.00     0.190 HD
HETATM   10  O   UNL     1       4.889  31.997  56.519  1.00  0.00    -0.266 OA
BRANCH   8  11
HETATM   11  N   UNL     1       3.761  31.290  59.772  1.00  0.00    -0.285 N 
HETATM   12  H   UNL     1       4.059  30.343  60.019  1.00  0.00     0.188 HD
BRANCH  11  13
HETATM   13  C   UNL     1       3.492  32.108  60.795  1.00  0.00     0.114 C 
HETATM   14  N   UNL     1       2.663  33.137  60.759  1.00  0.00    -0.386 N 
HETATM   15  H   UNL     1       2.512  33.684  61.603  1.00  0.00     0.157 HD
HETATM   16  H   UNL     1       2.134  33.403  59.933  1.00  0.00     0.157 HD
BRANCH  13  17
HETATM   17  C   UNL     1       4.235  31.874  62.084  1.00  0.00     0.253 C 
BRANCH  17  18
HETATM   18  O   UNL     1       5.397  32.721  62.112  1.00  0.00    -0.342 OA
BRANCH  18  19
HETATM   19  C   UNL     1       5.633  33.166  63.387  1.00  0.00     0.091 A 
HETATM   20  C   UNL     1       6.901  33.066  63.979  1.00  0.00     0.069 A 
HETATM   21 CL   UNL     1       8.241  32.419  63.104  1.00  0.00    -0.081 Cl
HETATM   22  C   UNL     1       7.095  33.495  65.292  1.00  0.00     0.050 A 
HETATM   23  C   UNL     1       6.014  34.002  66.013  1.00  0.00     0.035 A 
HETATM   24 CL   UNL     1       6.243  34.533  67.632  1.00  0.00    -0.084 Cl
HETATM   25  C   UNL     1       4.744  34.075  65.437  1.00  0.00     0.026 A 
HETATM   26  C   UNL     1       4.550  33.649  64.122  1.00  0.00     0.040 A 
ENDBRANCH  18  19
ENDBRANCH  17  18
ENDBRANCH  13  17
ENDBRANCH  11  13
ENDBRANCH   8  11
ENDBRANCH   3   7
BRANCH   4  27
HETATM   27  O   UNL     1       5.911  29.058  57.057  1.00  0.00    -0.343 OA
BRANCH  27  28
HETATM   28  C   UNL     1       6.627  28.478  55.939  1.00  0.00     0.258 C 
BRANCH  28  29
HETATM   29  C   UNL     1       6.417  27.000  55.821  1.00  0.00     0.172 A 
HETATM   30  N   UNL     1       7.312  26.164  55.268  1.00  0.00    -0.147 NA
HETATM   31  N   UNL     1       6.660  24.968  55.337  1.00  0.00    -0.207 N 
HETATM   32  C   UNL     1       5.440  25.142  55.937  1.00  0.00     0.239 A 
HETATM   33  N   UNL     1       5.262  26.405  56.253  1.00  0.00    -0.223 NA
BRANCH  31  34
HETATM   34  C   UNL     1       7.200  23.750  54.847  1.00  0.00     0.153 A 
HETATM   35  N   UNL     1       7.600  22.824  55.754  1.00  0.00    -0.217 NA
HETATM   36  C   UNL     1       8.102  21.672  55.264  1.00  0.00     0.128 A 
HETATM   37 CL   UNL     1       8.583  20.542  56.457  1.00  0.00    -0.062 Cl
HETATM   38  C   UNL     1       8.237  21.386  53.917  1.00  0.00     0.044 A 
HETATM   39  C   UNL     1       7.825  22.351  53.003  1.00  0.00     0.007 A 
HETATM   40  C   UNL     1       7.297  23.553  53.469  1.00  0.00     0.052 A 
ENDBRANCH  31  34
ENDBRANCH  28  29
ENDBRANCH  27  28
ENDBRANCH   4  27
TORSDOF 10
ENDMDL
MODEL 10
REMARK VINA RESULT:      -9.1      2.563      9.383
REMARK  10 active torsions:
REMARK  status: ('A' for Active; 'I' for Inactive)
REMARK    1  A    between atoms: C_3  and  C_4 
REMARK       I    between atoms: C_4  and  N_5 
REMARK    2  A    between atoms: N_5  and  N_6 
REMARK    3  A    between atoms: N_6  and  C_7 
REMARK    4  A    between atoms: C_7  and  C_8 
REMARK    5  A    between atoms: C_8  and  O_9 
REMARK    6  A    between atoms: O_9  and  C_10 
REMARK    7  A    between atoms: C_22  and  O_23 
REMARK    8  A    between atoms: O_23  and  C_24 
REMARK    9  A    between atoms: C_24  and  C_25 
REMARK   10  A    between atoms: N_27  and  C_28 
ROOT
HETATM    1  C   UNL     1       5.719  25.218  57.190  1.00  0.00     0.001 A 
HETATM    2  C   UNL     1       4.943  26.128  56.471  1.00  0.00     0.020 A 
HETATM    3  C   UNL     1       5.368  27.456  56.366  1.00  0.00     0.067 A 
HETATM    4  C   UNL     1       6.538  27.884  57.002  1.00  0.00     0.085 A 
HETATM    5  C   UNL     1       7.320  26.966  57.702  1.00  0.00     0.038 A 
HETATM    6  C   UNL     1       6.905  25.636  57.799  1.00  0.00     0.003 A 
ENDROOT
BRANCH   3   7
HETATM    7  C   UNL     1       4.550  28.429  55.626  1.00  0.00     0.272 C 
HETATM    8  N   UNL     1       4.590  28.458  54.240  1.00  0.00    -0.264 N 
HETATM    9  H   UNL     1       3.738  28.862  53.846  1.00  0.00     0.190 HD
HETATM   10  O   UNL     1       3.791  29.165  56.245  1.00  0.00    -0.266 OA
BRANCH   8  11
HETATM   11  N   UNL     1       5.327  27.661  53.465  1.00  0.00    -0.285 N 
HETATM   12  H   UNL     1       4.855  27.158  52.711  1.00  0.00     0.188 HD
BRANCH  11  13
HETATM   13  C   UNL     1       6.661  27.566  53.491  1.00  0.00     0.114 C 
HETATM   14  N   UNL     1       7.498  28.564  53.719  1.00  0.00    -0.386 N 
HETATM   15  H   UNL     1       8.499  28.379  53.739  1.00  0.00     0.157 HD
HETATM   16  H   UNL     1       7.199  29.516  53.908  1.00  0.00     0.157 HD
BRANCH  13  17
HETATM   17  C   UNL     1       7.267  26.222  53.182  1.00  0.00     0.253 C 
BRANCH  17  18
HETATM   18  O   UNL     1       7.744  25.634  54.405  1.00  0.00    -0.342 OA
BRANCH  18  19
HETATM   19  C   UNL     1       7.977  24.294  54.230  1.00  0.00     0.091 A 
HETATM   20  C   UNL     1       8.717  23.548  55.159  1.00  0.00     0.069 A 
HETATM   21 CL   UNL     1       9.330  24.279  56.598  1.00  0.00    -0.081 Cl
HETATM   22  C   UNL     1       8.966  22.196  54.929  1.00  0.00     0.050 A 
HETATM   23  C   UNL     1       8.491  21.601  53.761  1.00  0.00     0.035 A 
HETATM   24 CL   UNL     1       8.792  19.933  53.468  1.00  0.00    -0.084 Cl
HETATM   25  C   UNL     1       7.779  22.348  52.819  1.00  0.00     0.026 A 
HETATM   26  C   UNL     1       7.527  23.701  53.050  1.00  0.00     0.040 A 
ENDBRANCH  18  19
ENDBRANCH  17  18
ENDBRANCH  13  17
ENDBRANCH  11  13
ENDBRANCH   8  11
ENDBRANCH   3   7
BRANCH   4  27
HETATM   27  O   UNL     1       6.975  29.164  56.781  1.00  0.00    -0.343 OA
BRANCH  27  28
HETATM   28  C   UNL     1       8.377  29.328  57.106  1.00  0.00     0.258 C 
BRANCH  28  29
HETATM   29  C   UNL     1       8.599  30.251  58.263  1.00  0.00     0.172 A 
HETATM   30  N   UNL     1       7.740  30.377  59.288  1.00  0.00    -0.147 NA
HETATM   31  N   UNL     1       8.334  31.350  60.036  1.00  0.00    -0.207 N 
HETATM   32  C   UNL     1       9.509  31.734  59.443  1.00  0.00     0.239 A 
HETATM   33  N   UNL     1       9.701  31.060  58.332  1.00  0.00    -0.223 NA
BRANCH  31  34
HETATM   34  C   UNL     1       7.783  31.861  61.241  1.00  0.00     0.153 A 
HETATM   35  N   UNL     1       6.444  32.074  61.285  1.00  0.00    -0.217 NA
HETATM   36  C   UNL     1       5.944  32.552  62.442  1.00  0.00     0.128 A 
HETATM   37 CL   UNL     1       4.248  32.794  62.437  1.00  0.00    -0.062 Cl
HETATM   38  C   UNL     1       6.700  32.840  63.564  1.00  0.00     0.044 A 
HETATM   39  C   UNL     1       8.072  32.618  63.498  1.00  0.00     0.007 A 
HETATM   40  C   UNL     1       8.628  32.121  62.320  1.00  0.00     0.052 A 
ENDBRANCH  31  34
ENDBRANCH  28  29
ENDBRANCH  27  28
ENDBRANCH   4  27
TORSDOF 10
ENDMDL
