MODEL 1
REMARK VINA RESULT:      -9.0      0.000      0.000
REMARK  5 active torsions:
REMARK  status: ('A' for Active; 'I' for Inactive)
REMARK    1  A    between atoms: C_4  and  N_5 
REMARK    2  A    between atoms: C_8  and  N_9 
REMARK    3  A    between atoms: C_14  and  N_15 
REMARK    4  A    between atoms: N_15  and  C_16 
REMARK    5  A    between atoms: C_19  and  C_20 
REMARK       I    between atoms: C_20  and  N_21 
ROOT
HETATM    1  C   UNL     1       4.014  29.404  54.772  1.00  0.00     0.071 C 
HETATM    2  C   UNL     1       5.416  28.883  54.885  1.00  0.00     0.053 A 
HETATM    3  N   UNL     1       6.228  29.480  55.773  1.00  0.00    -0.066 NA
HETATM    4  C   UNL     1       7.494  29.022  55.851  1.00  0.00     0.751 A 
HETATM    5  N   UNL     1       7.992  28.022  55.091  1.00  0.00    -0.043 NA
HETATM    6  C   UNL     1       7.156  27.433  54.221  1.00  0.00     0.149 A 
HETATM    7  C   UNL     1       5.839  27.837  54.094  1.00  0.00     0.078 A 
ENDROOT
BRANCH   6   8
HETATM    8  N   UNL     1       7.597  26.376  53.393  1.00  0.00    -0.340 N 
HETATM    9  H   UNL     1       7.426  26.597  52.418  1.00  0.00     0.167 HD
BRANCH   8  10
HETATM   10  C   UNL     1       7.594  24.991  53.655  1.00  0.00     0.033 A 
HETATM   11  C   UNL     1       7.906  24.097  52.619  1.00  0.00     0.030 A 
HETATM   12  C   UNL     1       8.015  22.720  52.854  1.00  0.00     0.019 A 
HETATM   13  C   UNL     1       7.829  22.215  54.144  1.00  0.00     0.032 A 
HETATM   14  C   UNL     1       7.545  23.098  55.190  1.00  0.00     0.019 A 
HETATM   15  C   UNL     1       7.432  24.471  54.944  1.00  0.00     0.030 A 
BRANCH  13  16
HETATM   16  C   UNL     1       7.972  20.769  54.460  1.00  0.00     0.249 C 
HETATM   17  N   UNL     1       7.739  20.376  55.749  1.00  0.00    -0.366 N 
HETATM   18  H   UNL     1       7.708  21.027  56.520  1.00  0.00     0.159 HD
HETATM   19  H   UNL     1       7.946  19.408  55.961  1.00  0.00     0.159 HD
HETATM   20  O   UNL     1       8.312  19.954  53.611  1.00  0.00    -0.268 OA
ENDBRANCH  13  16
ENDBRANCH   8  10
ENDBRANCH   6   8
BRANCH   4  21
HETATM   21  N   UNL     1       8.376  29.616  56.820  1.00  0.00    -0.069 N 
HETATM   22  N   UNL     1       9.739  29.569  56.707  1.00  0.00    -0.163 NA
HETATM   23  C   UNL     1      10.188  30.243  57.769  1.00  0.00     0.177 A 
HETATM   24  C   UNL     1       9.148  30.729  58.571  1.00  0.00     0.140 A 
HETATM   25  C   UNL     1       7.991  30.309  57.952  1.00  0.00     0.175 A 
BRANCH  24  26
HETATM   26  N   UNL     1       9.258  31.500  59.768  1.00  0.00    -0.113 N 
HETATM   27  O   UNL     1       9.457  30.875  60.816  1.00  0.00    -0.532 OA
HETATM   28  O   UNL     1       9.151  32.728  59.660  1.00  0.00    -0.532 OA
ENDBRANCH  24  26
ENDBRANCH   4  21
TORSDOF 5
ENDMDL
MODEL 2
REMARK VINA RESULT:      -9.0      4.951      6.770
REMARK  5 active torsions:
REMARK  status: ('A' for Active; 'I' for Inactive)
REMARK    1  A    between atoms: C_4  and  N_5 
REMARK    2  A    between atoms: C_8  and  N_9 
REMARK    3  A    between atoms: C_14  and  N_15 
REMARK    4  A    between atoms: N_15  and  C_16 
REMARK    5  A    between atoms: C_19  and  C_20 
REMARK       I    between atoms: C_20  and  N_21 
ROOT
HETATM    1  C   UNL     1       3.865  29.248  55.654  1.00  0.00     0.071 C 
HETATM    2  C   UNL     1       4.617  28.382  54.689  1.00  0.00     0.053 A 
HETATM    3  N   UNL     1       4.213  28.387  53.408  1.00  0.00    -0.066 NA
HETATM    4  C   UNL     1       4.879  27.586  52.551  1.00  0.00     0.751 A 
HETATM    5  N   UNL     1       5.906  26.781  52.901  1.00  0.00    -0.043 NA
HETATM    6  C   UNL     1       6.299  26.804  54.184  1.00  0.00     0.149 A 
HETATM    7  C   UNL     1       5.675  27.611  55.119  1.00  0.00     0.078 A 
ENDROOT
BRANCH   6   8
HETATM    8  N   UNL     1       7.369  25.995  54.630  1.00  0.00    -0.340 N 
HETATM    9  H   UNL     1       8.240  26.514  54.598  1.00  0.00     0.167 HD
BRANCH   8  10
HETATM   10  C   UNL     1       7.547  24.605  54.477  1.00  0.00     0.033 A 
HETATM   11  C   UNL     1       7.948  24.099  53.230  1.00  0.00     0.030 A 
HETATM   12  C   UNL     1       8.235  22.739  53.056  1.00  0.00     0.019 A 
HETATM   13  C   UNL     1       8.143  21.861  54.139  1.00  0.00     0.032 A 
HETATM   14  C   UNL     1       7.772  22.357  55.392  1.00  0.00     0.019 A 
HETATM   15  C   UNL     1       7.480  23.717  55.555  1.00  0.00     0.030 A 
BRANCH  13  16
HETATM   16  C   UNL     1       8.475  20.416  54.022  1.00  0.00     0.249 C 
HETATM   17  N   UNL     1       8.806  19.748  55.169  1.00  0.00    -0.366 N 
HETATM   18  H   UNL     1       9.058  20.223  56.023  1.00  0.00     0.159 HD
HETATM   19  H   UNL     1       9.130  18.796  55.048  1.00  0.00     0.159 HD
HETATM   20  O   UNL     1       8.481  19.842  52.941  1.00  0.00    -0.268 OA
ENDBRANCH  13  16
ENDBRANCH   8  10
ENDBRANCH   6   8
BRANCH   4  21
HETATM   21  N   UNL     1       4.494  27.600  51.165  1.00  0.00    -0.069 N 
HETATM   22  N   UNL     1       3.587  28.490  50.658  1.00  0.00    -0.163 NA
HETATM   23  C   UNL     1       3.524  28.201  49.356  1.00  0.00     0.177 A 
HETATM   24  C   UNL     1       4.370  27.142  49.002  1.00  0.00     0.140 A 
HETATM   25  C   UNL     1       4.979  26.761  50.178  1.00  0.00     0.175 A 
BRANCH  24  26
HETATM   26  N   UNL     1       4.568  26.580  47.704  1.00  0.00    -0.113 N 
HETATM   27  O   UNL     1       3.774  25.700  47.352  1.00  0.00    -0.532 OA
HETATM   28  O   UNL     1       5.512  27.021  47.036  1.00  0.00    -0.532 OA
ENDBRANCH  24  26
ENDBRANCH   4  21
TORSDOF 5
ENDMDL
MODEL 3
REMARK VINA RESULT:      -8.9      1.554      2.106
REMARK  5 active torsions:
REMARK  status: ('A' for Active; 'I' for Inactive)
REMARK    1  A    between atoms: C_4  and  N_5 
REMARK    2  A    between atoms: C_8  and  N_9 
REMARK    3  A    between atoms: C_14  and  N_15 
REMARK    4  A    between atoms: N_15  and  C_16 
REMARK    5  A    between atoms: C_19  and  C_20 
REMARK       I    between atoms: C_20  and  N_21 
ROOT
HETATM    1  C   UNL     1       3.496  29.047  53.442  1.00  0.00     0.071 C 
HETATM    2  C   UNL     1       4.789  28.373  53.790  1.00  0.00     0.053 A 
HETATM    3  N   UNL     1       5.586  28.986  54.681  1.00  0.00    -0.066 NA
HETATM    4  C   UNL     1       6.759  28.386  54.971  1.00  0.00     0.751 A 
HETATM    5  N   UNL     1       7.180  27.228  54.416  1.00  0.00    -0.043 NA
HETATM    6  C   UNL     1       6.360  26.629  53.539  1.00  0.00     0.149 A 
HETATM    7  C   UNL     1       5.134  27.175  53.202  1.00  0.00     0.078 A 
ENDROOT
BRANCH   6   8
HETATM    8  N   UNL     1       6.724  25.413  52.918  1.00  0.00    -0.340 N 
HETATM    9  H   UNL     1       6.091  25.204  52.154  1.00  0.00     0.167 HD
BRANCH   8  10
HETATM   10  C   UNL     1       7.288  24.260  53.501  1.00  0.00     0.033 A 
HETATM   11  C   UNL     1       6.944  23.920  54.818  1.00  0.00     0.030 A 
HETATM   12  C   UNL     1       7.398  22.731  55.405  1.00  0.00     0.019 A 
HETATM   13  C   UNL     1       8.194  21.849  54.670  1.00  0.00     0.032 A 
HETATM   14  C   UNL     1       8.520  22.162  53.347  1.00  0.00     0.019 A 
HETATM   15  C   UNL     1       8.068  23.355  52.772  1.00  0.00     0.030 A 
BRANCH  13  16
HETATM   16  C   UNL     1       8.670  20.554  55.228  1.00  0.00     0.249 C 
HETATM   17  N   UNL     1       9.040  20.530  56.544  1.00  0.00    -0.366 N 
HETATM   18  H   UNL     1       9.224  21.368  57.074  1.00  0.00     0.159 HD
HETATM   19  H   UNL     1       9.458  19.667  56.869  1.00  0.00     0.159 HD
HETATM   20  O   UNL     1       8.757  19.548  54.535  1.00  0.00    -0.268 OA
ENDBRANCH  13  16
ENDBRANCH   8  10
ENDBRANCH   6   8
BRANCH   4  21
HETATM   21  N   UNL     1       7.615  28.998  55.951  1.00  0.00    -0.069 N 
HETATM   22  N   UNL     1       7.190  29.307  57.215  1.00  0.00    -0.163 NA
HETATM   23  C   UNL     1       8.265  29.825  57.813  1.00  0.00     0.177 A 
HETATM   24  C   UNL     1       9.382  29.859  56.969  1.00  0.00     0.140 A 
HETATM   25  C   UNL     1       8.945  29.333  55.773  1.00  0.00     0.175 A 
BRANCH  24  26
HETATM   26  N   UNL     1      10.695  30.329  57.278  1.00  0.00    -0.113 N 
HETATM   27  O   UNL     1      10.773  31.404  57.884  1.00  0.00    -0.532 OA
HETATM   28  O   UNL     1      11.647  29.623  56.920  1.00  0.00    -0.532 OA
ENDBRANCH  24  26
ENDBRANCH   4  21
TORSDOF 5
ENDMDL
MODEL 4
REMARK VINA RESULT:      -8.7      3.422      5.138
REMARK  5 active torsions:
REMARK  status: ('A' for Active; 'I' for Inactive)
REMARK    1  A    between atoms: C_4  and  N_5 
REMARK    2  A    between atoms: C_8  and  N_9 
REMARK    3  A    between atoms: C_14  and  N_15 
REMARK    4  A    between atoms: N_15  and  C_16 
REMARK    5  A    between atoms: C_19  and  C_20 
REMARK       I    between atoms: C_20  and  N_21 
ROOT
HETATM    1  C   UNL     1       8.382  23.270  57.075  1.00  0.00     0.071 C 
HETATM    2  C   UNL     1       7.751  24.573  56.687  1.00  0.00     0.053 A 
HETATM    3  N   UNL     1       8.277  25.695  57.207  1.00  0.00    -0.066 NA
HETATM    4  C   UNL     1       7.688  26.861  56.873  1.00  0.00     0.751 A 
HETATM    5  N   UNL     1       6.608  26.967  56.067  1.00  0.00    -0.043 NA
HETATM    6  C   UNL     1       6.110  25.833  55.550  1.00  0.00     0.149 A 
HETATM    7  C   UNL     1       6.669  24.599  55.834  1.00  0.00     0.078 A 
ENDROOT
BRANCH   6   8
HETATM    8  N   UNL     1       4.985  25.858  54.695  1.00  0.00    -0.340 N 
HETATM    9  H   UNL     1       4.346  25.108  54.932  1.00  0.00     0.167 HD
BRANCH   8  10
HETATM   10  C   UNL     1       4.918  26.235  53.338  1.00  0.00     0.033 A 
HETATM   11  C   UNL     1       4.455  27.517  53.005  1.00  0.00     0.030 A 
HETATM   12  C   UNL     1       4.465  27.974  51.680  1.00  0.00     0.019 A 
HETATM   13  C   UNL     1       4.959  27.153  50.662  1.00  0.00     0.032 A 
HETATM   14  C   UNL     1       5.449  25.884  50.985  1.00  0.00     0.019 A 
HETATM   15  C   UNL     1       5.429  25.434  52.310  1.00  0.00     0.030 A 
BRANCH  13  16
HETATM   16  C   UNL     1       5.032  27.599  49.245  1.00  0.00     0.249 C 
HETATM   17  N   UNL     1       4.974  26.637  48.275  1.00  0.00    -0.366 N 
HETATM   18  H   UNL     1       5.117  25.658  48.470  1.00  0.00     0.159 HD
HETATM   19  H   UNL     1       5.131  26.956  47.328  1.00  0.00     0.159 HD
HETATM   20  O   UNL     1       5.166  28.779  48.948  1.00  0.00    -0.268 OA
ENDBRANCH  13  16
ENDBRANCH   8  10
ENDBRANCH   6   8
BRANCH   4  21
HETATM   21  N   UNL     1       8.252  28.081  57.383  1.00  0.00    -0.069 N 
HETATM   22  N   UNL     1       7.665  28.807  58.384  1.00  0.00    -0.163 NA
HETATM   23  C   UNL     1       8.495  29.834  58.585  1.00  0.00     0.177 A 
HETATM   24  C   UNL     1       9.610  29.794  57.739  1.00  0.00     0.140 A 
HETATM   25  C   UNL     1       9.434  28.667  56.967  1.00  0.00     0.175 A 
BRANCH  24  26
HETATM   26  N   UNL     1      10.700  30.715  57.690  1.00  0.00    -0.113 N 
HETATM   27  O   UNL     1      10.490  31.850  58.133  1.00  0.00    -0.532 OA
HETATM   28  O   UNL     1      11.766  30.304  57.214  1.00  0.00    -0.532 OA
ENDBRANCH  24  26
ENDBRANCH   4  21
TORSDOF 5
ENDMDL
MODEL 5
REMARK VINA RESULT:      -8.6      1.601      8.327
REMARK  5 active torsions:
REMARK  status: ('A' for Active; 'I' for Inactive)
REMARK    1  A    between atoms: C_4  and  N_5 
REMARK    2  A    between atoms: C_8  and  N_9 
REMARK    3  A    between atoms: C_14  and  N_15 
REMARK    4  A    between atoms: N_15  and  C_16 
REMARK    5  A    between atoms: C_19  and  C_20 
REMARK       I    between atoms: C_20  and  N_21 
ROOT
HETATM    1  C   UNL     1       4.576  26.979  51.822  1.00  0.00     0.071 C 
HETATM    2  C   UNL     1       5.752  26.730  52.719  1.00  0.00     0.053 A 
HETATM    3  N   UNL     1       5.998  25.459  53.079  1.00  0.00    -0.066 NA
HETATM    4  C   UNL     1       7.042  25.246  53.906  1.00  0.00     0.751 A 
HETATM    5  N   UNL     1       7.836  26.222  54.398  1.00  0.00    -0.043 NA
HETATM    6  C   UNL     1       7.577  27.481  54.013  1.00  0.00     0.149 A 
HETATM    7  C   UNL     1       6.533  27.778  53.155  1.00  0.00     0.078 A 
ENDROOT
BRANCH   6   8
HETATM    8  N   UNL     1       8.365  28.559  54.480  1.00  0.00    -0.340 N 
HETATM    9  H   UNL     1       9.274  28.550  54.031  1.00  0.00     0.167 HD
BRANCH   8  10
HETATM   10  C   UNL     1       8.386  29.145  55.761  1.00  0.00     0.033 A 
HETATM   11  C   UNL     1       9.617  29.506  56.330  1.00  0.00     0.030 A 
HETATM   12  C   UNL     1       9.683  30.184  57.554  1.00  0.00     0.019 A 
HETATM   13  C   UNL     1       8.506  30.529  58.226  1.00  0.00     0.032 A 
HETATM   14  C   UNL     1       7.272  30.200  57.656  1.00  0.00     0.019 A 
HETATM   15  C   UNL     1       7.217  29.518  56.435  1.00  0.00     0.030 A 
BRANCH  13  16
HETATM   16  C   UNL     1       8.514  31.283  59.508  1.00  0.00     0.249 C 
HETATM   17  N   UNL     1       7.997  30.662  60.611  1.00  0.00    -0.366 N 
HETATM   18  H   UNL     1       7.416  29.840  60.550  1.00  0.00     0.159 HD
HETATM   19  H   UNL     1       7.918  31.234  61.442  1.00  0.00     0.159 HD
HETATM   20  O   UNL     1       8.941  32.429  59.578  1.00  0.00    -0.268 OA
ENDBRANCH  13  16
ENDBRANCH   8  10
ENDBRANCH   6   8
BRANCH   4  21
HETATM   21  N   UNL     1       7.353  23.892  54.276  1.00  0.00    -0.069 N 
HETATM   22  N   UNL     1       7.234  23.429  55.558  1.00  0.00    -0.163 NA
HETATM   23  C   UNL     1       7.584  22.143  55.485  1.00  0.00     0.177 A 
HETATM   24  C   UNL     1       7.929  21.756  54.184  1.00  0.00     0.140 A 
HETATM   25  C   UNL     1       7.784  22.893  53.421  1.00  0.00     0.175 A 
BRANCH  24  26
HETATM   26  N   UNL     1       8.334  20.461  53.738  1.00  0.00    -0.113 N 
HETATM   27  O   UNL     1       8.281  20.250  52.520  1.00  0.00    -0.532 OA
HETATM   28  O   UNL     1       8.710  19.658  54.601  1.00  0.00    -0.532 OA
ENDBRANCH  24  26
ENDBRANCH   4  21
TORSDOF 5
ENDMDL
MODEL 6
REMARK VINA RESULT:      -8.2      2.441      3.810
REMARK  5 active torsions:
REMARK  status: ('A' for Active; 'I' for Inactive)
REMARK    1  A    between atoms: C_4  and  N_5 
REMARK    2  A    between atoms: C_8  and  N_9 
REMARK    3  A    between atoms: C_14  and  N_15 
REMARK    4  A    between atoms: N_15  and  C_16 
REMARK    5  A    between atoms: C_19  and  C_20 
REMARK       I    between atoms: C_20  and  N_21 
ROOT
HETATM    1  C   UNL     1      11.362  29.762  57.024  1.00  0.00     0.071 C 
HETATM    2  C   UNL     1       9.924  29.596  57.414  1.00  0.00     0.053 A 
HETATM    3  N   UNL     1       9.442  30.419  58.360  1.00  0.00    -0.066 NA
HETATM    4  C   UNL     1       8.154  30.247  58.724  1.00  0.00     0.751 A 
HETATM    5  N   UNL     1       7.336  29.303  58.210  1.00  0.00    -0.043 NA
HETATM    6  C   UNL     1       7.839  28.502  57.257  1.00  0.00     0.149 A 
HETATM    7  C   UNL     1       9.146  28.626  56.820  1.00  0.00     0.078 A 
ENDROOT
BRANCH   6   8
HETATM    8  N   UNL     1       7.046  27.492  56.666  1.00  0.00    -0.340 N 
HETATM    9  H   UNL     1       6.072  27.617  56.916  1.00  0.00     0.167 HD
BRANCH   8  10
HETATM   10  C   UNL     1       7.382  26.148  56.404  1.00  0.00     0.033 A 
HETATM   11  C   UNL     1       7.219  25.642  55.105  1.00  0.00     0.030 A 
HETATM   12  C   UNL     1       7.633  24.345  54.772  1.00  0.00     0.019 A 
HETATM   13  C   UNL     1       8.238  23.536  55.738  1.00  0.00     0.032 A 
HETATM   14  C   UNL     1       8.432  24.039  57.027  1.00  0.00     0.019 A 
HETATM   15  C   UNL     1       8.010  25.333  57.352  1.00  0.00     0.030 A 
BRANCH  13  16
HETATM   16  C   UNL     1       8.734  22.167  55.431  1.00  0.00     0.249 C 
HETATM   17  N   UNL     1       8.728  21.250  56.445  1.00  0.00    -0.366 N 
HETATM   18  H   UNL     1       8.630  21.511  57.415  1.00  0.00     0.159 HD
HETATM   19  H   UNL     1       9.167  20.361  56.239  1.00  0.00     0.159 HD
HETATM   20  O   UNL     1       9.159  21.870  54.322  1.00  0.00    -0.268 OA
ENDBRANCH  13  16
ENDBRANCH   8  10
ENDBRANCH   6   8
BRANCH   4  21
HETATM   21  N   UNL     1       7.598  31.138  59.706  1.00  0.00    -0.069 N 
HETATM   22  N   UNL     1       6.703  32.124  59.389  1.00  0.00    -0.163 NA
HETATM   23  C   UNL     1       6.412  32.702  60.556  1.00  0.00     0.177 A 
HETATM   24  C   UNL     1       7.097  32.116  61.628  1.00  0.00     0.140 A 
HETATM   25  C   UNL     1       7.861  31.119  61.064  1.00  0.00     0.175 A 
BRANCH  24  26
HETATM   26  N   UNL     1       7.016  32.467  63.011  1.00  0.00    -0.113 N 
HETATM   27  O   UNL     1       8.084  32.708  63.586  1.00  0.00    -0.532 OA
HETATM   28  O   UNL     1       5.888  32.505  63.519  1.00  0.00    -0.532 OA
ENDBRANCH  24  26
ENDBRANCH   4  21
TORSDOF 5
ENDMDL
MODEL 7
REMARK VINA RESULT:      -8.2      5.210      8.690
REMARK  5 active torsions:
REMARK  status: ('A' for Active; 'I' for Inactive)
REMARK    1  A    between atoms: C_4  and  N_5 
REMARK    2  A    between atoms: C_8  and  N_9 
REMARK    3  A    between atoms: C_14  and  N_15 
REMARK    4  A    between atoms: N_15  and  C_16 
REMARK    5  A    between atoms: C_19  and  C_20 
REMARK       I    between atoms: C_20  and  N_21 
ROOT
HETATM    1  C   UNL     1       4.617  27.847  54.832  1.00  0.00     0.071 C 
HETATM    2  C   UNL     1       5.204  26.875  53.852  1.00  0.00     0.053 A 
HETATM    3  N   UNL     1       5.790  25.774  54.349  1.00  0.00    -0.066 NA
HETATM    4  C   UNL     1       6.337  24.917  53.462  1.00  0.00     0.751 A 
HETATM    5  N   UNL     1       6.341  25.103  52.124  1.00  0.00    -0.043 NA
HETATM    6  C   UNL     1       5.737  26.205  51.653  1.00  0.00     0.149 A 
HETATM    7  C   UNL     1       5.141  27.124  52.498  1.00  0.00     0.078 A 
ENDROOT
BRANCH   6   8
HETATM    8  N   UNL     1       5.694  26.472  50.265  1.00  0.00    -0.340 N 
HETATM    9  H   UNL     1       6.556  26.912  49.964  1.00  0.00     0.167 HD
BRANCH   8  10
HETATM   10  C   UNL     1       4.585  26.824  49.470  1.00  0.00     0.033 A 
HETATM   11  C   UNL     1       4.330  28.180  49.211  1.00  0.00     0.030 A 
HETATM   12  C   UNL     1       3.302  28.575  48.345  1.00  0.00     0.019 A 
HETATM   13  C   UNL     1       2.519  27.610  47.705  1.00  0.00     0.032 A 
HETATM   14  C   UNL     1       2.781  26.256  47.931  1.00  0.00     0.019 A 
HETATM   15  C   UNL     1       3.806  25.871  48.803  1.00  0.00     0.030 A 
BRANCH  13  16
HETATM   16  C   UNL     1       1.442  27.970  46.744  1.00  0.00     0.249 C 
HETATM   17  N   UNL     1       0.758  26.947  46.147  1.00  0.00    -0.366 N 
HETATM   18  H   UNL     1       1.094  25.996  46.146  1.00  0.00     0.159 HD
HETATM   19  H   UNL     1       0.106  27.216  45.422  1.00  0.00     0.159 HD
HETATM   20  O   UNL     1       1.186  29.136  46.470  1.00  0.00    -0.268 OA
ENDBRANCH  13  16
ENDBRANCH   8  10
ENDBRANCH   6   8
BRANCH   4  21
HETATM   21  N   UNL     1       6.937  23.709  53.962  1.00  0.00    -0.069 N 
HETATM   22  N   UNL     1       7.108  23.465  55.298  1.00  0.00    -0.163 NA
HETATM   23  C   UNL     1       7.663  22.252  55.350  1.00  0.00     0.177 A 
HETATM   24  C   UNL     1       7.857  21.698  54.078  1.00  0.00     0.140 A 
HETATM   25  C   UNL     1       7.393  22.651  53.198  1.00  0.00     0.175 A 
BRANCH  24  26
HETATM   26  N   UNL     1       8.407  20.419  53.759  1.00  0.00    -0.113 N 
HETATM   27  O   UNL     1       8.690  19.682  54.711  1.00  0.00    -0.532 OA
HETATM   28  O   UNL     1       8.550  20.150  52.560  1.00  0.00    -0.532 OA
ENDBRANCH  24  26
ENDBRANCH   4  21
TORSDOF 5
ENDMDL
MODEL 8
REMARK VINA RESULT:      -8.1      2.101      8.161
REMARK  5 active torsions:
REMARK  status: ('A' for Active; 'I' for Inactive)
REMARK    1  A    between atoms: C_4  and  N_5 
REMARK    2  A    between atoms: C_8  and  N_9 
REMARK    3  A    between atoms: C_14  and  N_15 
REMARK    4  A    between atoms: N_15  and  C_16 
REMARK    5  A    between atoms: C_19  and  C_20 
REMARK       I    between atoms: C_20  and  N_21 
ROOT
HETATM    1  C   UNL     1       4.951  26.674  50.973  1.00  0.00     0.071 C 
HETATM    2  C   UNL     1       5.345  26.189  52.337  1.00  0.00     0.053 A 
HETATM    3  N   UNL     1       6.031  25.037  52.410  1.00  0.00    -0.066 NA
HETATM    4  C   UNL     1       6.360  24.596  53.641  1.00  0.00     0.751 A 
HETATM    5  N   UNL     1       6.033  25.226  54.790  1.00  0.00    -0.043 NA
HETATM    6  C   UNL     1       5.358  26.382  54.689  1.00  0.00     0.149 A 
HETATM    7  C   UNL     1       4.998  26.908  53.461  1.00  0.00     0.078 A 
ENDROOT
BRANCH   6   8
HETATM    8  N   UNL     1       4.982  27.106  55.844  1.00  0.00    -0.340 N 
HETATM    9  H   UNL     1       3.990  27.315  55.821  1.00  0.00     0.167 HD
BRANCH   8  10
HETATM   10  C   UNL     1       5.730  28.052  56.573  1.00  0.00     0.033 A 
HETATM   11  C   UNL     1       5.160  29.301  56.862  1.00  0.00     0.030 A 
HETATM   12  C   UNL     1       5.823  30.235  57.670  1.00  0.00     0.019 A 
HETATM   13  C   UNL     1       7.070  29.922  58.219  1.00  0.00     0.032 A 
HETATM   14  C   UNL     1       7.636  28.670  57.963  1.00  0.00     0.019 A 
HETATM   15  C   UNL     1       6.968  27.746  57.150  1.00  0.00     0.030 A 
BRANCH  13  16
HETATM   16  C   UNL     1       7.801  30.857  59.116  1.00  0.00     0.249 C 
HETATM   17  N   UNL     1       8.137  30.405  60.362  1.00  0.00    -0.366 N 
HETATM   18  H   UNL     1       7.722  29.583  60.774  1.00  0.00     0.159 HD
HETATM   19  H   UNL     1       8.538  31.093  60.988  1.00  0.00     0.159 HD
HETATM   20  O   UNL     1       8.073  32.000  58.771  1.00  0.00    -0.268 OA
ENDBRANCH  13  16
ENDBRANCH   8  10
ENDBRANCH   6   8
BRANCH   4  21
HETATM   21  N   UNL     1       7.130  23.386  53.748  1.00  0.00    -0.069 N 
HETATM   22  N   UNL     1       7.770  22.818  52.680  1.00  0.00    -0.163 NA
HETATM   23  C   UNL     1       8.383  21.746  53.187  1.00  0.00     0.177 A 
HETATM   24  C   UNL     1       8.158  21.601  54.561  1.00  0.00     0.140 A 
HETATM   25  C   UNL     1       7.343  22.657  54.905  1.00  0.00     0.175 A 
BRANCH  24  26
HETATM   26  N   UNL     1       8.667  20.585  55.426  1.00  0.00    -0.113 N 
HETATM   27  O   UNL     1       8.829  19.463  54.931  1.00  0.00    -0.532 OA
HETATM   28  O   UNL     1       8.910  20.907  56.596  1.00  0.00    -0.532 OA
ENDBRANCH  24  26
ENDBRANCH   4  21
TORSDOF 5
ENDMDL
MODEL 9
REMARK VINA RESULT:      -8.1      3.799      8.846
REMARK  5 active torsions:
REMARK  status: ('A' for Active; 'I' for Inactive)
REMARK    1  A    between atoms: C_4  and  N_5 
REMARK    2  A    between atoms: C_8  and  N_9 
REMARK    3  A    between atoms: C_14  and  N_15 
REMARK    4  A    between atoms: N_15  and  C_16 
REMARK    5  A    between atoms: C_19  and  C_20 
REMARK       I    between atoms: C_20  and  N_21 
ROOT
HETATM    1  C   UNL     1       6.860  23.947  54.627  1.00  0.00     0.071 C 
HETATM    2  C   UNL     1       6.784  25.322  54.035  1.00  0.00     0.053 A 
HETATM    3  N   UNL     1       6.052  25.476  52.919  1.00  0.00    -0.066 NA
HETATM    4  C   UNL     1       6.009  26.712  52.379  1.00  0.00     0.751 A 
HETATM    5  N   UNL     1       6.660  27.785  52.878  1.00  0.00    -0.043 NA
HETATM    6  C   UNL     1       7.374  27.608  54.000  1.00  0.00     0.149 A 
HETATM    7  C   UNL     1       7.454  26.374  54.622  1.00  0.00     0.078 A 
ENDROOT
BRANCH   6   8
HETATM    8  N   UNL     1       8.080  28.682  54.588  1.00  0.00    -0.340 N 
HETATM    9  H   UNL     1       8.957  28.835  54.102  1.00  0.00     0.167 HD
BRANCH   8  10
HETATM   10  C   UNL     1       8.123  29.073  55.941  1.00  0.00     0.033 A 
HETATM   11  C   UNL     1       9.365  29.331  56.542  1.00  0.00     0.030 A 
HETATM   12  C   UNL     1       9.452  29.819  57.852  1.00  0.00     0.019 A 
HETATM   13  C   UNL     1       8.287  30.076  58.581  1.00  0.00     0.032 A 
HETATM   14  C   UNL     1       7.043  29.851  57.984  1.00  0.00     0.019 A 
HETATM   15  C   UNL     1       6.966  29.357  56.677  1.00  0.00     0.030 A 
BRANCH  13  16
HETATM   16  C   UNL     1       8.319  30.634  59.960  1.00  0.00     0.249 C 
HETATM   17  N   UNL     1       7.193  31.262  60.414  1.00  0.00    -0.366 N 
HETATM   18  H   UNL     1       6.451  31.563  59.800  1.00  0.00     0.159 HD
HETATM   19  H   UNL     1       7.275  31.723  61.312  1.00  0.00     0.159 HD
HETATM   20  O   UNL     1       9.320  30.562  60.661  1.00  0.00    -0.268 OA
ENDBRANCH  13  16
ENDBRANCH   8  10
ENDBRANCH   6   8
BRANCH   4  21
HETATM   21  N   UNL     1       5.200  26.916  51.207  1.00  0.00    -0.069 N 
HETATM   22  N   UNL     1       4.594  28.110  50.925  1.00  0.00    -0.163 NA
HETATM   23  C   UNL     1       3.972  27.904  49.762  1.00  0.00     0.177 A 
HETATM   24  C   UNL     1       4.160  26.603  49.278  1.00  0.00     0.140 A 
HETATM   25  C   UNL     1       4.944  25.979  50.222  1.00  0.00     0.175 A 
BRANCH  24  26
HETATM   26  N   UNL     1       3.657  26.044  48.064  1.00  0.00    -0.113 N 
HETATM   27  O   UNL     1       3.929  26.647  47.019  1.00  0.00    -0.532 OA
HETATM   28  O   UNL     1       2.996  25.001  48.153  1.00  0.00    -0.532 OA
ENDBRANCH  24  26
ENDBRANCH   4  21
TORSDOF 5
ENDMDL
MODEL 10
REMARK VINA RESULT:      -7.9      3.736      9.711
REMARK  5 active torsions:
REMARK  status: ('A' for Active; 'I' for Inactive)
REMARK    1  A    between atoms: C_4  and  N_5 
REMARK    2  A    between atoms: C_8  and  N_9 
REMARK    3  A    between atoms: C_14  and  N_15 
REMARK    4  A    between atoms: N_15  and  C_16 
REMARK    5  A    between atoms: C_19  and  C_20 
REMARK       I    between atoms: C_20  and  N_21 
ROOT
HETATM    1  C   UNL     1       5.155  31.202  56.396  1.00  0.00     0.071 C 
HETATM    2  C   UNL     1       6.198  30.461  57.177  1.00  0.00     0.053 A 
HETATM    3  N   UNL     1       6.395  29.167  56.874  1.00  0.00    -0.066 NA
HETATM    4  C   UNL     1       7.318  28.501  57.597  1.00  0.00     0.751 A 
HETATM    5  N   UNL     1       8.037  29.045  58.603  1.00  0.00    -0.043 NA
HETATM    6  C   UNL     1       7.831  30.343  58.877  1.00  0.00     0.149 A 
HETATM    7  C   UNL     1       6.912  31.097  58.169  1.00  0.00     0.078 A 
ENDROOT
BRANCH   6   8
HETATM    8  N   UNL     1       8.546  30.988  59.911  1.00  0.00    -0.340 N 
HETATM    9  H   UNL     1       9.417  30.502  60.094  1.00  0.00     0.167 HD
BRANCH   8  10
HETATM   10  C   UNL     1       8.045  31.667  61.040  1.00  0.00     0.033 A 
HETATM   11  C   UNL     1       8.491  31.297  62.318  1.00  0.00     0.030 A 
HETATM   12  C   UNL     1       8.100  32.007  63.460  1.00  0.00     0.019 A 
HETATM   13  C   UNL     1       7.262  33.119  63.338  1.00  0.00     0.032 A 
HETATM   14  C   UNL     1       6.833  33.516  62.069  1.00  0.00     0.019 A 
HETATM   15  C   UNL     1       7.224  32.796  60.934  1.00  0.00     0.030 A 
BRANCH  13  16
HETATM   16  C   UNL     1       6.848  33.935  64.511  1.00  0.00     0.249 C 
HETATM   17  N   UNL     1       6.203  35.115  64.265  1.00  0.00    -0.366 N 
HETATM   18  H   UNL     1       6.204  35.558  63.358  1.00  0.00     0.159 HD
HETATM   19  H   UNL     1       6.026  35.699  65.073  1.00  0.00     0.159 HD
HETATM   20  O   UNL     1       7.094  33.585  65.659  1.00  0.00    -0.268 OA
ENDBRANCH  13  16
ENDBRANCH   8  10
ENDBRANCH   6   8
BRANCH   4  21
HETATM   21  N   UNL     1       7.578  27.125  57.269  1.00  0.00    -0.069 N 
HETATM   22  N   UNL     1       8.023  26.216  58.191  1.00  0.00    -0.163 NA
HETATM   23  C   UNL     1       8.115  25.069  57.514  1.00  0.00     0.177 A 
HETATM   24  C   UNL     1       7.739  25.209  56.172  1.00  0.00     0.140 A 
HETATM   25  C   UNL     1       7.406  26.537  56.029  1.00  0.00     0.175 A 
BRANCH  24  26
HETATM   26  N   UNL     1       7.700  24.194  55.167  1.00  0.00    -0.113 N 
HETATM   27  O   UNL     1       7.866  24.562  53.998  1.00  0.00    -0.532 OA
HETATM   28  O   UNL     1       7.508  23.032  55.545  1.00  0.00    -0.532 OA
ENDBRANCH  24  26
ENDBRANCH   4  21
TORSDOF 5
ENDMDL
