MODEL 1
REMARK VINA RESULT:     -10.2      0.000      0.000
REMARK  3 active torsions:
REMARK  status: ('A' for Active; 'I' for Inactive)
REMARK    1  A    between atoms: C_2  and  C_3 
REMARK    2  A    between atoms: C_7  and  C_8 
REMARK       I    between atoms: C_8  and  N_9 
REMARK    3  A    between atoms: N_9  and  N_10 
ROOT
HETATM    1  C   UNL     1       7.314  24.853  52.694  1.00  0.00     0.272 C 
HETATM    2  N   UNL     1       6.029  25.338  52.519  1.00  0.00    -0.242 N 
HETATM    3  O   UNL     1       8.191  24.862  51.833  1.00  0.00    -0.266 OA
HETATM    4  H   UNL     1       5.329  25.298  53.261  1.00  0.00     0.192 HD
ENDROOT
BRANCH   1   5
HETATM    5  C   UNL     1       7.621  24.224  54.006  1.00  0.00     0.048 A 
HETATM    6  C   UNL     1       7.875  22.843  54.204  1.00  0.00     0.008 A 
HETATM    7  C   UNL     1       8.185  22.459  55.527  1.00  0.00     0.068 A 
HETATM    8  C   UNL     1       7.812  21.830  53.210  1.00  0.00     0.015 A 
HETATM    9  N   UNL     1       8.192  23.313  56.563  1.00  0.00    -0.253 NA
HETATM   10  C   UNL     1       8.478  21.129  55.795  1.00  0.00     0.032 A 
HETATM   11  C   UNL     1       7.878  24.609  56.355  1.00  0.00     0.036 A 
HETATM   12  C   UNL     1       7.607  25.103  55.094  1.00  0.00     0.045 A 
HETATM   13  C   UNL     1       8.455  20.150  54.802  1.00  0.00     0.002 A 
HETATM   14  C   UNL     1       8.112  20.500  53.506  1.00  0.00     0.001 A 
BRANCH  11  15
HETATM   15  C   UNL     1       7.823  25.505  57.564  1.00  0.00     0.055 C 
HETATM   16  C   UNL     1       8.037  26.966  57.200  1.00  0.00     0.011 C 
ENDBRANCH  11  15
ENDBRANCH   1   5
BRANCH   2  17
HETATM   17  N   UNL     1       5.684  25.878  51.312  1.00  0.00    -0.166 NA
HETATM   18  C   UNL     1       5.568  27.165  51.244  1.00  0.00     0.157 A 
HETATM   19  C   UNL     1       5.831  28.211  52.328  1.00  0.00     0.277 A 
HETATM   20  C   UNL     1       5.207  27.913  50.046  1.00  0.00     0.027 A 
HETATM   21  O   UNL     1       6.124  27.960  53.478  1.00  0.00    -0.266 OA
HETATM   22  N   UNL     1       5.666  29.433  51.711  1.00  0.00    -0.321 N 
HETATM   23  C   UNL     1       5.298  29.264  50.378  1.00  0.00     0.048 A 
HETATM   24  H   UNL     1       5.788  30.316  52.183  1.00  0.00     0.169 HD
HETATM   25  C   UNL     1       5.037  30.246  49.447  1.00  0.00     0.030 A 
HETATM   26  C   UNL     1       4.667  29.831  48.160  1.00  0.00     0.002 A 
HETATM   27  C   UNL     1       4.568  28.461  47.836  1.00  0.00     0.001 A 
HETATM   28  C   UNL     1       4.846  27.478  48.789  1.00  0.00     0.016 A 
ENDBRANCH   2  17
TORSDOF 3
ENDMDL
MODEL 2
REMARK VINA RESULT:     -10.0      3.789      7.160
REMARK  3 active torsions:
REMARK  status: ('A' for Active; 'I' for Inactive)
REMARK    1  A    between atoms: C_2  and  C_3 
REMARK    2  A    between atoms: C_7  and  C_8 
REMARK       I    between atoms: C_8  and  N_9 
REMARK    3  A    between atoms: N_9  and  N_10 
ROOT
HETATM    1  C   UNL     1       7.675  26.539  57.041  1.00  0.00     0.272 C 
HETATM    2  N   UNL     1       8.107  27.833  56.799  1.00  0.00    -0.242 N 
HETATM    3  O   UNL     1       7.681  25.991  58.141  1.00  0.00    -0.266 OA
HETATM    4  H   UNL     1       8.095  28.242  55.864  1.00  0.00     0.192 HD
ENDROOT
BRANCH   1   5
HETATM    5  C   UNL     1       7.232  25.748  55.862  1.00  0.00     0.048 A 
HETATM    6  C   UNL     1       7.742  24.477  55.499  1.00  0.00     0.008 A 
HETATM    7  C   UNL     1       7.155  23.880  54.362  1.00  0.00     0.068 A 
HETATM    8  C   UNL     1       8.798  23.783  56.148  1.00  0.00     0.015 A 
HETATM    9  N   UNL     1       6.208  24.476  53.619  1.00  0.00    -0.253 NA
HETATM   10  C   UNL     1       7.579  22.620  53.963  1.00  0.00     0.032 A 
HETATM   11  C   UNL     1       5.791  25.717  53.949  1.00  0.00     0.036 A 
HETATM   12  C   UNL     1       6.263  26.374  55.069  1.00  0.00     0.045 A 
HETATM   13  C   UNL     1       8.586  21.929  54.635  1.00  0.00     0.002 A 
HETATM   14  C   UNL     1       9.205  22.516  55.727  1.00  0.00     0.001 A 
BRANCH  11  15
HETATM   15  C   UNL     1       4.788  26.371  53.036  1.00  0.00     0.055 C 
HETATM   16  C   UNL     1       5.122  26.146  51.570  1.00  0.00     0.011 C 
ENDBRANCH  11  15
ENDBRANCH   1   5
BRANCH   2  17
HETATM   17  N   UNL     1       8.573  28.580  57.843  1.00  0.00    -0.166 NA
HETATM   18  C   UNL     1       7.851  29.581  58.233  1.00  0.00     0.157 A 
HETATM   19  C   UNL     1       6.478  30.026  57.727  1.00  0.00     0.277 A 
HETATM   20  C   UNL     1       8.188  30.486  59.323  1.00  0.00     0.027 A 
HETATM   21  O   UNL     1       5.885  29.525  56.795  1.00  0.00    -0.266 OA
HETATM   22  N   UNL     1       6.103  31.071  58.545  1.00  0.00    -0.321 N 
HETATM   23  C   UNL     1       7.102  31.346  59.477  1.00  0.00     0.048 A 
HETATM   24  H   UNL     1       5.227  31.563  58.455  1.00  0.00     0.169 HD
HETATM   25  C   UNL     1       7.096  32.320  60.453  1.00  0.00     0.030 A 
HETATM   26  C   UNL     1       8.229  32.417  61.272  1.00  0.00     0.002 A 
HETATM   27  C   UNL     1       9.329  31.548  61.102  1.00  0.00     0.001 A 
HETATM   28  C   UNL     1       9.314  30.560  60.116  1.00  0.00     0.016 A 
ENDBRANCH   2  17
TORSDOF 3
ENDMDL
MODEL 3
REMARK VINA RESULT:      -9.7      4.193      8.278
REMARK  3 active torsions:
REMARK  status: ('A' for Active; 'I' for Inactive)
REMARK    1  A    between atoms: C_2  and  C_3 
REMARK    2  A    between atoms: C_7  and  C_8 
REMARK       I    between atoms: C_8  and  N_9 
REMARK    3  A    between atoms: N_9  and  N_10 
ROOT
HETATM    1  C   UNL     1       7.562  28.803  56.438  1.00  0.00     0.272 C 
HETATM    2  N   UNL     1       6.796  27.651  56.518  1.00  0.00    -0.242 N 
HETATM    3  O   UNL     1       8.407  29.027  55.574  1.00  0.00    -0.266 OA
HETATM    4  H   UNL     1       6.114  27.504  57.262  1.00  0.00     0.192 HD
ENDROOT
BRANCH   1   5
HETATM    5  C   UNL     1       7.378  29.806  57.520  1.00  0.00     0.048 A 
HETATM    6  C   UNL     1       6.407  30.839  57.514  1.00  0.00     0.008 A 
HETATM    7  C   UNL     1       6.376  31.662  58.661  1.00  0.00     0.068 A 
HETATM    8  C   UNL     1       5.505  31.132  56.456  1.00  0.00     0.015 A 
HETATM    9  N   UNL     1       7.234  31.534  59.686  1.00  0.00    -0.253 NA
HETATM   10  C   UNL     1       5.431  32.675  58.742  1.00  0.00     0.032 A 
HETATM   11  C   UNL     1       8.192  30.585  59.633  1.00  0.00     0.036 A 
HETATM   12  C   UNL     1       8.283  29.694  58.581  1.00  0.00     0.045 A 
HETATM   13  C   UNL     1       4.521  32.925  57.716  1.00  0.00     0.002 A 
HETATM   14  C   UNL     1       4.564  32.157  56.564  1.00  0.00     0.001 A 
BRANCH  11  15
HETATM   15  C   UNL     1       9.176  30.538  60.772  1.00  0.00     0.055 C 
HETATM   16  C   UNL     1       9.417  31.913  61.372  1.00  0.00     0.011 C 
ENDBRANCH  11  15
ENDBRANCH   1   5
BRANCH   2  17
HETATM   17  N   UNL     1       6.968  26.677  55.575  1.00  0.00    -0.166 NA
HETATM   18  C   UNL     1       7.519  25.569  55.953  1.00  0.00     0.157 A 
HETATM   19  C   UNL     1       7.960  25.147  57.355  1.00  0.00     0.277 A 
HETATM   20  C   UNL     1       7.782  24.425  55.090  1.00  0.00     0.027 A 
HETATM   21  O   UNL     1       7.923  25.857  58.338  1.00  0.00    -0.266 OA
HETATM   22  N   UNL     1       8.380  23.839  57.233  1.00  0.00    -0.321 N 
HETATM   23  C   UNL     1       8.282  23.414  55.910  1.00  0.00     0.048 A 
HETATM   24  H   UNL     1       8.720  23.289  58.007  1.00  0.00     0.169 HD
HETATM   25  C   UNL     1       8.614  22.179  55.396  1.00  0.00     0.030 A 
HETATM   26  C   UNL     1       8.441  21.986  54.019  1.00  0.00     0.002 A 
HETATM   27  C   UNL     1       7.944  23.019  53.195  1.00  0.00     0.001 A 
HETATM   28  C   UNL     1       7.602  24.262  53.732  1.00  0.00     0.016 A 
ENDBRANCH   2  17
TORSDOF 3
ENDMDL
MODEL 4
REMARK VINA RESULT:      -9.7      3.929      7.677
REMARK  3 active torsions:
REMARK  status: ('A' for Active; 'I' for Inactive)
REMARK    1  A    between atoms: C_2  and  C_3 
REMARK    2  A    between atoms: C_7  and  C_8 
REMARK       I    between atoms: C_8  and  N_9 
REMARK    3  A    between atoms: N_9  and  N_10 
ROOT
HETATM    1  C   UNL     1       7.341  27.599  55.285  1.00  0.00     0.272 C 
HETATM    2  N   UNL     1       6.928  26.348  55.713  1.00  0.00    -0.242 N 
HETATM    3  O   UNL     1       7.839  27.837  54.187  1.00  0.00    -0.266 OA
HETATM    4  H   UNL     1       6.532  26.196  56.640  1.00  0.00     0.192 HD
ENDROOT
BRANCH   1   5
HETATM    5  C   UNL     1       7.222  28.714  56.262  1.00  0.00     0.048 A 
HETATM    6  C   UNL     1       8.316  29.377  56.874  1.00  0.00     0.008 A 
HETATM    7  C   UNL     1       7.983  30.438  57.744  1.00  0.00     0.068 A 
HETATM    8  C   UNL     1       9.688  29.048  56.715  1.00  0.00     0.015 A 
HETATM    9  N   UNL     1       6.720  30.786  58.037  1.00  0.00    -0.253 NA
HETATM   10  C   UNL     1       9.000  31.157  58.356  1.00  0.00     0.032 A 
HETATM   11  C   UNL     1       5.698  30.091  57.493  1.00  0.00     0.036 A 
HETATM   12  C   UNL     1       5.908  29.067  56.590  1.00  0.00     0.045 A 
HETATM   13  C   UNL     1      10.347  30.852  58.158  1.00  0.00     0.002 A 
HETATM   14  C   UNL     1      10.692  29.788  57.341  1.00  0.00     0.001 A 
BRANCH  11  15
HETATM   15  C   UNL     1       4.304  30.472  57.918  1.00  0.00     0.055 C 
HETATM   16  C   UNL     1       3.409  30.772  56.727  1.00  0.00     0.011 C 
ENDBRANCH  11  15
ENDBRANCH   1   5
BRANCH   2  17
HETATM   17  N   UNL     1       7.066  25.282  54.869  1.00  0.00    -0.166 NA
HETATM   18  C   UNL     1       7.633  24.217  55.337  1.00  0.00     0.157 A 
HETATM   19  C   UNL     1       8.128  23.940  56.758  1.00  0.00     0.277 A 
HETATM   20  C   UNL     1       7.867  22.991  54.586  1.00  0.00     0.027 A 
HETATM   21  O   UNL     1       8.126  24.748  57.663  1.00  0.00    -0.266 OA
HETATM   22  N   UNL     1       8.546  22.627  56.755  1.00  0.00    -0.321 N 
HETATM   23  C   UNL     1       8.399  22.068  55.486  1.00  0.00     0.048 A 
HETATM   24  H   UNL     1       8.916  22.157  57.567  1.00  0.00     0.169 HD
HETATM   25  C   UNL     1       8.714  20.786  55.090  1.00  0.00     0.030 A 
HETATM   26  C   UNL     1       8.490  20.455  53.747  1.00  0.00     0.002 A 
HETATM   27  C   UNL     1       7.960  21.398  52.840  1.00  0.00     0.001 A 
HETATM   28  C   UNL     1       7.636  22.690  53.260  1.00  0.00     0.016 A 
ENDBRANCH   2  17
TORSDOF 3
ENDMDL
MODEL 5
REMARK VINA RESULT:      -9.6      4.493      8.663
REMARK  3 active torsions:
REMARK  status: ('A' for Active; 'I' for Inactive)
REMARK    1  A    between atoms: C_2  and  C_3 
REMARK    2  A    between atoms: C_7  and  C_8 
REMARK       I    between atoms: C_8  and  N_9 
REMARK    3  A    between atoms: N_9  and  N_10 
ROOT
HETATM    1  C   UNL     1       8.233  28.943  57.841  1.00  0.00     0.272 C 
HETATM    2  N   UNL     1       7.465  27.794  57.927  1.00  0.00    -0.242 N 
HETATM    3  O   UNL     1       9.379  28.990  57.397  1.00  0.00    -0.266 OA
HETATM    4  H   UNL     1       6.522  27.801  58.316  1.00  0.00     0.192 HD
ENDROOT
BRANCH   1   5
HETATM    5  C   UNL     1       7.637  30.191  58.387  1.00  0.00     0.048 A 
HETATM    6  C   UNL     1       8.039  30.824  59.590  1.00  0.00     0.008 A 
HETATM    7  C   UNL     1       7.367  32.025  59.908  1.00  0.00     0.068 A 
HETATM    8  C   UNL     1       9.016  30.342  60.503  1.00  0.00     0.015 A 
HETATM    9  N   UNL     1       6.370  32.533  59.166  1.00  0.00    -0.253 NA
HETATM   10  C   UNL     1       7.727  32.720  61.054  1.00  0.00     0.032 A 
HETATM   11  C   UNL     1       5.962  31.871  58.062  1.00  0.00     0.036 A 
HETATM   12  C   UNL     1       6.581  30.714  57.632  1.00  0.00     0.045 A 
HETATM   13  C   UNL     1       8.719  32.259  61.920  1.00  0.00     0.002 A 
HETATM   14  C   UNL     1       9.360  31.061  61.648  1.00  0.00     0.001 A 
BRANCH  11  15
HETATM   15  C   UNL     1       4.788  32.443  57.313  1.00  0.00     0.055 C 
HETATM   16  C   UNL     1       4.662  33.944  57.513  1.00  0.00     0.011 C 
ENDBRANCH  11  15
ENDBRANCH   1   5
BRANCH   2  17
HETATM   17  N   UNL     1       7.990  26.612  57.487  1.00  0.00    -0.166 NA
HETATM   18  C   UNL     1       7.405  26.032  56.489  1.00  0.00     0.157 A 
HETATM   19  C   UNL     1       6.216  26.519  55.660  1.00  0.00     0.277 A 
HETATM   20  C   UNL     1       7.822  24.771  55.889  1.00  0.00     0.027 A 
HETATM   21  O   UNL     1       5.580  27.527  55.884  1.00  0.00    -0.266 OA
HETATM   22  N   UNL     1       6.060  25.587  54.655  1.00  0.00    -0.321 N 
HETATM   23  C   UNL     1       6.994  24.562  54.788  1.00  0.00     0.048 A 
HETATM   24  H   UNL     1       5.351  25.652  53.940  1.00  0.00     0.169 HD
HETATM   25  C   UNL     1       7.145  23.453  53.983  1.00  0.00     0.030 A 
HETATM   26  C   UNL     1       8.154  22.542  54.324  1.00  0.00     0.002 A 
HETATM   27  C   UNL     1       8.981  22.757  55.447  1.00  0.00     0.001 A 
HETATM   28  C   UNL     1       8.822  23.891  56.247  1.00  0.00     0.016 A 
ENDBRANCH   2  17
TORSDOF 3
ENDMDL
MODEL 6
REMARK VINA RESULT:      -9.4      3.827      7.481
REMARK  3 active torsions:
REMARK  status: ('A' for Active; 'I' for Inactive)
REMARK    1  A    between atoms: C_2  and  C_3 
REMARK    2  A    between atoms: C_7  and  C_8 
REMARK       I    between atoms: C_8  and  N_9 
REMARK    3  A    between atoms: N_9  and  N_10 
ROOT
HETATM    1  C   UNL     1       7.896  26.427  57.135  1.00  0.00     0.272 C 
HETATM    2  N   UNL     1       8.250  27.723  56.794  1.00  0.00    -0.242 N 
HETATM    3  O   UNL     1       7.986  25.949  58.264  1.00  0.00    -0.266 OA
HETATM    4  H   UNL     1       8.170  28.072  55.839  1.00  0.00     0.192 HD
ENDROOT
BRANCH   1   5
HETATM    5  C   UNL     1       7.435  25.545  56.031  1.00  0.00     0.048 A 
HETATM    6  C   UNL     1       6.471  25.903  55.055  1.00  0.00     0.008 A 
HETATM    7  C   UNL     1       6.204  24.929  54.068  1.00  0.00     0.068 A 
HETATM    8  C   UNL     1       5.741  27.121  55.008  1.00  0.00     0.015 A 
HETATM    9  N   UNL     1       6.771  23.712  54.058  1.00  0.00    -0.253 NA
HETATM   10  C   UNL     1       5.296  25.218  53.059  1.00  0.00     0.032 A 
HETATM   11  C   UNL     1       7.633  23.374  55.041  1.00  0.00     0.036 A 
HETATM   12  C   UNL     1       8.003  24.266  56.028  1.00  0.00     0.045 A 
HETATM   13  C   UNL     1       4.618  26.435  52.998  1.00  0.00     0.002 A 
HETATM   14  C   UNL     1       4.833  27.387  53.982  1.00  0.00     0.001 A 
BRANCH  11  15
HETATM   15  C   UNL     1       8.176  21.970  55.026  1.00  0.00     0.055 C 
HETATM   16  C   UNL     1       8.677  21.568  53.648  1.00  0.00     0.011 C 
ENDBRANCH  11  15
ENDBRANCH   1   5
BRANCH   2  17
HETATM   17  N   UNL     1       8.730  28.555  57.766  1.00  0.00    -0.166 NA
HETATM   18  C   UNL     1       7.964  29.522  58.158  1.00  0.00     0.157 A 
HETATM   19  C   UNL     1       6.532  29.844  57.730  1.00  0.00     0.277 A 
HETATM   20  C   UNL     1       8.308  30.505  59.177  1.00  0.00     0.027 A 
HETATM   21  O   UNL     1       5.916  29.255  56.867  1.00  0.00    -0.266 OA
HETATM   22  N   UNL     1       6.138  30.902  58.521  1.00  0.00    -0.321 N 
HETATM   23  C   UNL     1       7.174  31.295  59.366  1.00  0.00     0.048 A 
HETATM   24  H   UNL     1       5.225  31.327  58.470  1.00  0.00     0.169 HD
HETATM   25  C   UNL     1       7.164  32.316  60.292  1.00  0.00     0.030 A 
HETATM   26  C   UNL     1       8.340  32.534  61.023  1.00  0.00     0.002 A 
HETATM   27  C   UNL     1       9.485  31.736  60.818  1.00  0.00     0.001 A 
HETATM   28  C   UNL     1       9.476  30.698  59.883  1.00  0.00     0.016 A 
ENDBRANCH   2  17
TORSDOF 3
ENDMDL
MODEL 7
REMARK VINA RESULT:      -9.4      7.850     11.735
REMARK  3 active torsions:
REMARK  status: ('A' for Active; 'I' for Inactive)
REMARK    1  A    between atoms: C_2  and  C_3 
REMARK    2  A    between atoms: C_7  and  C_8 
REMARK       I    between atoms: C_8  and  N_9 
REMARK    3  A    between atoms: N_9  and  N_10 
ROOT
HETATM    1  C   UNL     1       7.875  31.725  60.161  1.00  0.00     0.272 C 
HETATM    2  N   UNL     1       7.208  31.210  61.260  1.00  0.00    -0.242 N 
HETATM    3  O   UNL     1       8.591  32.724  60.178  1.00  0.00    -0.266 OA
HETATM    4  H   UNL     1       6.613  30.384  61.195  1.00  0.00     0.192 HD
ENDROOT
BRANCH   1   5
HETATM    5  C   UNL     1       7.649  31.043  58.859  1.00  0.00     0.048 A 
HETATM    6  C   UNL     1       8.672  30.529  58.023  1.00  0.00     0.008 A 
HETATM    7  C   UNL     1       8.237  29.882  56.846  1.00  0.00     0.068 A 
HETATM    8  C   UNL     1      10.070  30.640  58.248  1.00  0.00     0.015 A 
HETATM    9  N   UNL     1       6.947  29.790  56.486  1.00  0.00    -0.253 NA
HETATM   10  C   UNL     1       9.179  29.324  55.992  1.00  0.00     0.032 A 
HETATM   11  C   UNL     1       5.999  30.349  57.268  1.00  0.00     0.036 A 
HETATM   12  C   UNL     1       6.308  30.964  58.466  1.00  0.00     0.045 A 
HETATM   13  C   UNL     1      10.548  29.401  56.246  1.00  0.00     0.002 A 
HETATM   14  C   UNL     1      10.996  30.069  57.374  1.00  0.00     0.001 A 
BRANCH  11  15
HETATM   15  C   UNL     1       4.578  30.286  56.777  1.00  0.00     0.055 C 
HETATM   16  C   UNL     1       3.598  30.841  57.798  1.00  0.00     0.011 C 
ENDBRANCH  11  15
ENDBRANCH   1   5
BRANCH   2  17
HETATM   17  N   UNL     1       7.343  31.835  62.468  1.00  0.00    -0.166 NA
HETATM   18  C   UNL     1       6.284  32.365  62.989  1.00  0.00     0.157 A 
HETATM   19  C   UNL     1       4.845  32.340  62.472  1.00  0.00     0.277 A 
HETATM   20  C   UNL     1       6.239  33.071  64.263  1.00  0.00     0.027 A 
HETATM   21  O   UNL     1       4.497  31.863  61.413  1.00  0.00    -0.266 OA
HETATM   22  N   UNL     1       4.090  32.953  63.449  1.00  0.00    -0.321 N 
HETATM   23  C   UNL     1       4.901  33.386  64.497  1.00  0.00     0.048 A 
HETATM   24  H   UNL     1       3.090  33.073  63.388  1.00  0.00     0.169 HD
HETATM   25  C   UNL     1       4.513  34.045  65.643  1.00  0.00     0.030 A 
HETATM   26  C   UNL     1       5.518  34.394  66.556  1.00  0.00     0.002 A 
HETATM   27  C   UNL     1       6.871  34.081  66.307  1.00  0.00     0.001 A 
HETATM   28  C   UNL     1       7.246  33.403  65.144  1.00  0.00     0.016 A 
ENDBRANCH   2  17
TORSDOF 3
ENDMDL
MODEL 8
REMARK VINA RESULT:      -9.3      4.658      8.260
REMARK  3 active torsions:
REMARK  status: ('A' for Active; 'I' for Inactive)
REMARK    1  A    between atoms: C_2  and  C_3 
REMARK    2  A    between atoms: C_7  and  C_8 
REMARK       I    between atoms: C_8  and  N_9 
REMARK    3  A    between atoms: N_9  and  N_10 
ROOT
HETATM    1  C   UNL     1       8.206  29.037  57.867  1.00  0.00     0.272 C 
HETATM    2  N   UNL     1       7.375  27.930  57.816  1.00  0.00    -0.242 N 
HETATM    3  O   UNL     1       9.293  29.125  57.300  1.00  0.00    -0.266 OA
HETATM    4  H   UNL     1       6.486  27.897  58.315  1.00  0.00     0.192 HD
ENDROOT
BRANCH   1   5
HETATM    5  C   UNL     1       7.765  30.168  58.725  1.00  0.00     0.048 A 
HETATM    6  C   UNL     1       6.717  31.069  58.406  1.00  0.00     0.008 A 
HETATM    7  C   UNL     1       6.433  32.051  59.380  1.00  0.00     0.068 A 
HETATM    8  C   UNL     1       5.969  31.087  57.198  1.00  0.00     0.015 A 
HETATM    9  N   UNL     1       7.127  32.184  60.521  1.00  0.00    -0.253 NA
HETATM   10  C   UNL     1       5.399  32.949  59.154  1.00  0.00     0.032 A 
HETATM   11  C   UNL     1       8.165  31.356  60.766  1.00  0.00     0.036 A 
HETATM   12  C   UNL     1       8.500  30.328  59.905  1.00  0.00     0.045 A 
HETATM   13  C   UNL     1       4.642  32.929  57.983  1.00  0.00     0.002 A 
HETATM   14  C   UNL     1       4.934  32.001  56.997  1.00  0.00     0.001 A 
BRANCH  11  15
HETATM   15  C   UNL     1       8.958  31.601  62.022  1.00  0.00     0.055 C 
HETATM   16  C   UNL     1       8.151  32.352  63.068  1.00  0.00     0.011 C 
ENDBRANCH  11  15
ENDBRANCH   1   5
BRANCH   2  17
HETATM   17  N   UNL     1       7.763  26.844  57.083  1.00  0.00    -0.166 NA
HETATM   18  C   UNL     1       6.956  26.425  56.162  1.00  0.00     0.157 A 
HETATM   19  C   UNL     1       5.621  27.020  55.713  1.00  0.00     0.277 A 
HETATM   20  C   UNL     1       7.201  25.285  55.288  1.00  0.00     0.027 A 
HETATM   21  O   UNL     1       5.073  27.968  56.235  1.00  0.00    -0.266 OA
HETATM   22  N   UNL     1       5.223  26.262  54.632  1.00  0.00    -0.321 N 
HETATM   23  C   UNL     1       6.141  25.244  54.382  1.00  0.00     0.048 A 
HETATM   24  H   UNL     1       4.373  26.430  54.116  1.00  0.00     0.169 HD
HETATM   25  C   UNL     1       6.084  24.283  53.396  1.00  0.00     0.030 A 
HETATM   26  C   UNL     1       7.126  23.346  53.348  1.00  0.00     0.002 A 
HETATM   27  C   UNL     1       8.189  23.390  54.275  1.00  0.00     0.001 A 
HETATM   28  C   UNL     1       8.237  24.376  55.263  1.00  0.00     0.016 A 
ENDBRANCH   2  17
TORSDOF 3
ENDMDL
MODEL 9
REMARK VINA RESULT:      -9.3      0.965      3.250
REMARK  3 active torsions:
REMARK  status: ('A' for Active; 'I' for Inactive)
REMARK    1  A    between atoms: C_2  and  C_3 
REMARK    2  A    between atoms: C_7  and  C_8 
REMARK       I    between atoms: C_8  and  N_9 
REMARK    3  A    between atoms: N_9  and  N_10 
ROOT
HETATM    1  C   UNL     1       6.932  24.818  52.670  1.00  0.00     0.272 C 
HETATM    2  N   UNL     1       5.612  25.130  52.388  1.00  0.00    -0.242 N 
HETATM    3  O   UNL     1       7.846  24.825  51.848  1.00  0.00    -0.266 OA
HETATM    4  H   UNL     1       4.884  25.098  53.101  1.00  0.00     0.192 HD
ENDROOT
BRANCH   1   5
HETATM    5  C   UNL     1       7.237  24.386  54.059  1.00  0.00     0.048 A 
HETATM    6  C   UNL     1       7.475  25.262  55.148  1.00  0.00     0.008 A 
HETATM    7  C   UNL     1       7.708  24.643  56.396  1.00  0.00     0.068 A 
HETATM    8  C   UNL     1       7.533  26.680  55.084  1.00  0.00     0.015 A 
HETATM    9  N   UNL     1       7.761  23.311  56.563  1.00  0.00    -0.253 NA
HETATM   10  C   UNL     1       7.917  25.435  57.516  1.00  0.00     0.032 A 
HETATM   11  C   UNL     1       7.599  22.503  55.494  1.00  0.00     0.036 A 
HETATM   12  C   UNL     1       7.317  23.000  54.236  1.00  0.00     0.045 A 
HETATM   13  C   UNL     1       7.927  26.827  57.449  1.00  0.00     0.002 A 
HETATM   14  C   UNL     1       7.744  27.453  56.226  1.00  0.00     0.001 A 
BRANCH  11  15
HETATM   15  C   UNL     1       7.748  21.022  55.723  1.00  0.00     0.055 C 
HETATM   16  C   UNL     1       8.498  20.343  54.589  1.00  0.00     0.011 C 
ENDBRANCH  11  15
ENDBRANCH   1   5
BRANCH   2  17
HETATM   17  N   UNL     1       5.274  25.482  51.111  1.00  0.00    -0.166 NA
HETATM   18  C   UNL     1       4.813  26.676  50.922  1.00  0.00     0.157 A 
HETATM   19  C   UNL     1       4.647  27.811  51.933  1.00  0.00     0.277 A 
HETATM   20  C   UNL     1       4.401  27.223  49.636  1.00  0.00     0.027 A 
HETATM   21  O   UNL     1       4.862  27.718  53.123  1.00  0.00    -0.266 OA
HETATM   22  N   UNL     1       4.222  28.900  51.201  1.00  0.00    -0.321 N 
HETATM   23  C   UNL     1       4.073  28.559  49.858  1.00  0.00     0.048 A 
HETATM   24  H   UNL     1       4.037  29.806  51.605  1.00  0.00     0.169 HD
HETATM   25  C   UNL     1       3.659  29.374  48.826  1.00  0.00     0.030 A 
HETATM   26  C   UNL     1       3.572  28.800  47.550  1.00  0.00     0.002 A 
HETATM   27  C   UNL     1       3.897  27.443  47.336  1.00  0.00     0.001 A 
HETATM   28  C   UNL     1       4.324  26.635  48.391  1.00  0.00     0.016 A 
ENDBRANCH   2  17
TORSDOF 3
ENDMDL
MODEL 10
REMARK VINA RESULT:      -9.2      1.649      7.960
REMARK  3 active torsions:
REMARK  status: ('A' for Active; 'I' for Inactive)
REMARK    1  A    between atoms: C_2  and  C_3 
REMARK    2  A    between atoms: C_7  and  C_8 
REMARK       I    between atoms: C_8  and  N_9 
REMARK    3  A    between atoms: N_9  and  N_10 
ROOT
HETATM    1  C   UNL     1       5.558  25.645  51.788  1.00  0.00     0.272 C 
HETATM    2  N   UNL     1       6.894  25.371  52.034  1.00  0.00    -0.242 N 
HETATM    3  O   UNL     1       4.661  24.805  51.766  1.00  0.00    -0.266 OA
HETATM    4  H   UNL     1       7.607  26.100  52.029  1.00  0.00     0.192 HD
ENDROOT
BRANCH   1   5
HETATM    5  C   UNL     1       5.211  27.055  51.469  1.00  0.00     0.048 A 
HETATM    6  C   UNL     1       4.773  28.017  52.414  1.00  0.00     0.008 A 
HETATM    7  C   UNL     1       4.533  29.313  51.907  1.00  0.00     0.068 A 
HETATM    8  C   UNL     1       4.525  27.782  53.793  1.00  0.00     0.015 A 
HETATM    9  N   UNL     1       4.651  29.632  50.608  1.00  0.00    -0.253 NA
HETATM   10  C   UNL     1       4.132  30.317  52.777  1.00  0.00     0.032 A 
HETATM   11  C   UNL     1       5.004  28.678  49.721  1.00  0.00     0.036 A 
HETATM   12  C   UNL     1       5.309  27.390  50.114  1.00  0.00     0.045 A 
HETATM   13  C   UNL     1       3.935  30.085  54.138  1.00  0.00     0.002 A 
HETATM   14  C   UNL     1       4.124  28.811  54.647  1.00  0.00     0.001 A 
BRANCH  11  15
HETATM   15  C   UNL     1       5.043  29.071  48.268  1.00  0.00     0.055 C 
HETATM   16  C   UNL     1       5.403  27.898  47.370  1.00  0.00     0.011 C 
ENDBRANCH  11  15
ENDBRANCH   1   5
BRANCH   2  17
HETATM   17  N   UNL     1       7.269  24.080  52.279  1.00  0.00    -0.166 NA
HETATM   18  C   UNL     1       7.607  23.775  53.491  1.00  0.00     0.157 A 
HETATM   19  C   UNL     1       7.585  24.654  54.742  1.00  0.00     0.277 A 
HETATM   20  C   UNL     1       8.035  22.456  53.936  1.00  0.00     0.027 A 
HETATM   21  O   UNL     1       7.308  25.835  54.756  1.00  0.00    -0.266 OA
HETATM   22  N   UNL     1       7.932  23.822  55.785  1.00  0.00    -0.321 N 
HETATM   23  C   UNL     1       8.200  22.536  55.318  1.00  0.00     0.048 A 
HETATM   24  H   UNL     1       7.990  24.126  56.745  1.00  0.00     0.169 HD
HETATM   25  C   UNL     1       8.584  21.437  56.056  1.00  0.00     0.030 A 
HETATM   26  C   UNL     1       8.812  20.243  55.359  1.00  0.00     0.002 A 
HETATM   27  C   UNL     1       8.653  20.173  53.959  1.00  0.00     0.001 A 
HETATM   28  C   UNL     1       8.253  21.293  53.227  1.00  0.00     0.016 A 
ENDBRANCH   2  17
TORSDOF 3
ENDMDL
