MODEL 1
REMARK VINA RESULT:      -8.6      0.000      0.000
REMARK  8 active torsions:
REMARK  status: ('A' for Active; 'I' for Inactive)
REMARK    1  A    between atoms: C_7  and  C_8 
REMARK    2  A    between atoms: C_11  and  N_12 
REMARK       I    between atoms: N_12  and  C_13 
REMARK    3  A    between atoms: C_13  and  C_14 
REMARK    4  A    between atoms: C_14  and  N_15 
REMARK    5  A    between atoms: N_15  and  C_18 
REMARK    6  A    between atoms: C_18  and  C_19 
REMARK    7  A    between atoms: C_19  and  C_20 
REMARK    8  A    between atoms: C_20  and  O_21 
ROOT
HETATM    1  C   UNL     1       7.056  26.761  56.445  1.00  0.00    -0.000 A 
HETATM    2  C   UNL     1       8.054  27.392  57.200  1.00  0.00     0.016 A 
HETATM    3  C   UNL     1       7.805  28.599  57.869  1.00  0.00     0.030 A 
HETATM    4  C   UNL     1       6.552  29.207  57.801  1.00  0.00     0.034 A 
HETATM    5  C   UNL     1       5.556  28.599  57.029  1.00  0.00     0.030 A 
HETATM    6  C   UNL     1       5.804  27.389  56.367  1.00  0.00     0.016 A 
ENDROOT
BRANCH   4   7
HETATM    7  N   UNL     1       6.207  30.392  58.491  1.00  0.00    -0.326 N 
HETATM    8  C   UNL     1       7.060  31.418  58.834  1.00  0.00     0.247 C 
HETATM    9  O   UNL     1       8.255  31.526  58.561  1.00  0.00    -0.271 OA
HETATM   10  H   UNL     1       5.237  30.440  58.786  1.00  0.00     0.169 HD
BRANCH   8  11
HETATM   11  C   UNL     1       6.430  32.520  59.690  1.00  0.00     0.334 C 
BRANCH  11  12
HETATM   12  N   UNL     1       6.353  32.047  61.122  1.00  0.00    -0.067 N 
HETATM   13  H   UNL     1       5.358  32.013  61.392  1.00  0.00     0.277 HD
HETATM   14  H   UNL     1       6.627  31.050  61.117  1.00  0.00     0.277 HD
BRANCH  12  15
HETATM   15  C   UNL     1       7.161  32.813  62.107  1.00  0.00     0.235 C 
BRANCH  15  16
HETATM   16  C   UNL     1       8.549  32.191  62.194  1.00  0.00     0.053 C 
BRANCH  16  17
HETATM   17  C   UNL     1       8.469  30.691  62.436  1.00  0.00     0.165 C 
BRANCH  17  18
HETATM   18  O   UNL     1       8.829  30.022  61.239  1.00  0.00    -0.401 OA
HETATM   19  H   UNL     1       9.746  29.701  61.350  1.00  0.00     0.209 HD
ENDBRANCH  17  18
ENDBRANCH  16  17
ENDBRANCH  15  16
ENDBRANCH  12  15
ENDBRANCH  11  12
ENDBRANCH   8  11
ENDBRANCH   4   7
BRANCH   1  20
HETATM   20  C   UNL     1       7.248  25.455  55.786  1.00  0.00     0.109 A 
HETATM   21  N   UNL     1       7.280  24.310  56.438  1.00  0.00    -0.240 NA
HETATM   22  C   UNL     1       7.536  23.264  55.567  1.00  0.00     0.075 A 
HETATM   23  C   UNL     1       7.660  23.622  54.225  1.00  0.00     0.036 A 
HETATM   24  C   UNL     1       7.683  21.909  55.921  1.00  0.00     0.033 A 
HETATM   25  C   UNL     1       7.928  22.675  53.222  1.00  0.00     0.028 A 
HETATM   26  S   UNL     1       7.441  25.321  54.081  1.00  0.00    -0.067 SA
HETATM   27  C   UNL     1       8.081  21.330  53.591  1.00  0.00    -0.061 A 
HETATM   28  C   UNL     1       8.390  20.287  52.555  1.00  0.00     0.048 C 
HETATM   29  C   UNL     1       7.959  20.957  54.932  1.00  0.00     0.009 A 
ENDBRANCH   1  20
TORSDOF 8
ENDMDL
MODEL 2
REMARK VINA RESULT:      -8.4      1.074      1.466
REMARK  8 active torsions:
REMARK  status: ('A' for Active; 'I' for Inactive)
REMARK    1  A    between atoms: C_7  and  C_8 
REMARK    2  A    between atoms: C_11  and  N_12 
REMARK       I    between atoms: N_12  and  C_13 
REMARK    3  A    between atoms: C_13  and  C_14 
REMARK    4  A    between atoms: C_14  and  N_15 
REMARK    5  A    between atoms: N_15  and  C_18 
REMARK    6  A    between atoms: C_18  and  C_19 
REMARK    7  A    between atoms: C_19  and  C_20 
REMARK    8  A    between atoms: C_20  and  O_21 
ROOT
HETATM    1  C   UNL     1       7.265  27.220  56.528  1.00  0.00    -0.000 A 
HETATM    2  C   UNL     1       8.161  27.834  57.412  1.00  0.00     0.016 A 
HETATM    3  C   UNL     1       7.802  28.986  58.127  1.00  0.00     0.030 A 
HETATM    4  C   UNL     1       6.537  29.553  57.978  1.00  0.00     0.034 A 
HETATM    5  C   UNL     1       5.643  28.962  57.078  1.00  0.00     0.030 A 
HETATM    6  C   UNL     1       6.000  27.807  56.370  1.00  0.00     0.016 A 
ENDROOT
BRANCH   4   7
HETATM    7  N   UNL     1       6.080  30.678  58.703  1.00  0.00    -0.326 N 
HETATM    8  C   UNL     1       6.824  31.783  59.055  1.00  0.00     0.247 C 
HETATM    9  O   UNL     1       7.994  32.027  58.761  1.00  0.00    -0.271 OA
HETATM   10  H   UNL     1       5.118  30.613  59.018  1.00  0.00     0.169 HD
BRANCH   8  11
HETATM   11  C   UNL     1       6.097  32.790  59.949  1.00  0.00     0.334 C 
BRANCH  11  12
HETATM   12  N   UNL     1       6.885  32.972  61.226  1.00  0.00    -0.067 N 
HETATM   13  H   UNL     1       7.860  33.183  60.968  1.00  0.00     0.277 HD
HETATM   14  H   UNL     1       6.558  33.858  61.647  1.00  0.00     0.277 HD
BRANCH  12  15
HETATM   15  C   UNL     1       6.807  31.857  62.206  1.00  0.00     0.235 C 
BRANCH  15  16
HETATM   16  C   UNL     1       8.201  31.595  62.762  1.00  0.00     0.053 C 
BRANCH  16  17
HETATM   17  C   UNL     1       9.002  30.684  61.844  1.00  0.00     0.165 C 
BRANCH  17  18
HETATM   18  O   UNL     1       9.176  29.435  62.491  1.00  0.00    -0.401 OA
HETATM   19  H   UNL     1       8.327  28.954  62.427  1.00  0.00     0.209 HD
ENDBRANCH  17  18
ENDBRANCH  16  17
ENDBRANCH  15  16
ENDBRANCH  12  15
ENDBRANCH  11  12
ENDBRANCH   8  11
ENDBRANCH   4   7
BRANCH   1  20
HETATM   20  C   UNL     1       7.571  25.967  55.812  1.00  0.00     0.109 A 
HETATM   21  N   UNL     1       7.456  25.830  54.505  1.00  0.00    -0.240 NA
HETATM   22  C   UNL     1       7.751  24.531  54.127  1.00  0.00     0.075 A 
HETATM   23  C   UNL     1       8.135  23.681  55.163  1.00  0.00     0.036 A 
HETATM   24  C   UNL     1       7.689  24.016  52.818  1.00  0.00     0.033 A 
HETATM   25  C   UNL     1       8.459  22.332  54.940  1.00  0.00     0.028 A 
HETATM   26  S   UNL     1       8.121  24.562  56.639  1.00  0.00    -0.067 SA
HETATM   27  C   UNL     1       8.383  21.830  53.631  1.00  0.00    -0.061 A 
HETATM   28  C   UNL     1       8.698  20.389  53.349  1.00  0.00     0.048 C 
HETATM   29  C   UNL     1       8.000  22.671  52.583  1.00  0.00     0.009 A 
ENDBRANCH   1  20
TORSDOF 8
ENDMDL
MODEL 3
REMARK VINA RESULT:      -8.3      1.851      2.348
REMARK  8 active torsions:
REMARK  status: ('A' for Active; 'I' for Inactive)
REMARK    1  A    between atoms: C_7  and  C_8 
REMARK    2  A    between atoms: C_11  and  N_12 
REMARK       I    between atoms: N_12  and  C_13 
REMARK    3  A    between atoms: C_13  and  C_14 
REMARK    4  A    between atoms: C_14  and  N_15 
REMARK    5  A    between atoms: N_15  and  C_18 
REMARK    6  A    between atoms: C_18  and  C_19 
REMARK    7  A    between atoms: C_19  and  C_20 
REMARK    8  A    between atoms: C_20  and  O_21 
ROOT
HETATM    1  C   UNL     1       7.780  27.518  56.675  1.00  0.00    -0.000 A 
HETATM    2  C   UNL     1       8.911  28.238  57.083  1.00  0.00     0.016 A 
HETATM    3  C   UNL     1       8.791  29.404  57.853  1.00  0.00     0.030 A 
HETATM    4  C   UNL     1       7.537  29.879  58.236  1.00  0.00     0.034 A 
HETATM    5  C   UNL     1       6.401  29.182  57.813  1.00  0.00     0.030 A 
HETATM    6  C   UNL     1       6.522  28.014  57.050  1.00  0.00     0.016 A 
ENDROOT
BRANCH   4   7
HETATM    7  N   UNL     1       7.336  31.013  59.058  1.00  0.00    -0.326 N 
HETATM    8  C   UNL     1       7.861  31.216  60.315  1.00  0.00     0.247 C 
HETATM    9  O   UNL     1       8.639  30.489  60.933  1.00  0.00    -0.271 OA
HETATM   10  H   UNL     1       6.704  31.706  58.671  1.00  0.00     0.169 HD
BRANCH   8  11
HETATM   11  C   UNL     1       7.370  32.483  61.019  1.00  0.00     0.334 C 
BRANCH  11  12
HETATM   12  N   UNL     1       7.035  32.150  62.454  1.00  0.00    -0.067 N 
HETATM   13  H   UNL     1       6.079  32.488  62.643  1.00  0.00     0.277 HD
HETATM   14  H   UNL     1       6.931  31.122  62.500  1.00  0.00     0.277 HD
BRANCH  12  15
HETATM   15  C   UNL     1       7.998  32.632  63.479  1.00  0.00     0.235 C 
BRANCH  15  16
HETATM   16  C   UNL     1       7.217  33.159  64.677  1.00  0.00     0.053 C 
BRANCH  16  17
HETATM   17  C   UNL     1       5.831  33.637  64.268  1.00  0.00     0.165 C 
BRANCH  17  18
HETATM   18  O   UNL     1       4.933  32.544  64.362  1.00  0.00    -0.401 OA
HETATM   19  H   UNL     1       4.496  32.451  63.493  1.00  0.00     0.209 HD
ENDBRANCH  17  18
ENDBRANCH  16  17
ENDBRANCH  15  16
ENDBRANCH  12  15
ENDBRANCH  11  12
ENDBRANCH   8  11
ENDBRANCH   4   7
BRANCH   1  20
HETATM   20  C   UNL     1       7.859  26.248  55.929  1.00  0.00     0.109 A 
HETATM   21  N   UNL     1       7.684  26.159  54.625  1.00  0.00    -0.240 NA
HETATM   22  C   UNL     1       7.756  24.837  54.216  1.00  0.00     0.075 A 
HETATM   23  C   UNL     1       8.029  23.915  55.225  1.00  0.00     0.036 A 
HETATM   24  C   UNL     1       7.572  24.367  52.901  1.00  0.00     0.033 A 
HETATM   25  C   UNL     1       8.124  22.536  54.969  1.00  0.00     0.028 A 
HETATM   26  S   UNL     1       8.201  24.755  56.715  1.00  0.00    -0.067 SA
HETATM   27  C   UNL     1       7.930  22.081  53.656  1.00  0.00    -0.061 A 
HETATM   28  C   UNL     1       8.000  20.614  53.341  1.00  0.00     0.048 C 
HETATM   29  C   UNL     1       7.655  22.995  52.635  1.00  0.00     0.009 A 
ENDBRANCH   1  20
TORSDOF 8
ENDMDL
MODEL 4
REMARK VINA RESULT:      -7.7      1.633      1.873
REMARK  8 active torsions:
REMARK  status: ('A' for Active; 'I' for Inactive)
REMARK    1  A    between atoms: C_7  and  C_8 
REMARK    2  A    between atoms: C_11  and  N_12 
REMARK       I    between atoms: N_12  and  C_13 
REMARK    3  A    between atoms: C_13  and  C_14 
REMARK    4  A    between atoms: C_14  and  N_15 
REMARK    5  A    between atoms: N_15  and  C_18 
REMARK    6  A    between atoms: C_18  and  C_19 
REMARK    7  A    between atoms: C_19  and  C_20 
REMARK    8  A    between atoms: C_20  and  O_21 
ROOT
HETATM    1  C   UNL     1       7.049  26.768  56.403  1.00  0.00    -0.000 A 
HETATM    2  C   UNL     1       7.958  27.305  57.324  1.00  0.00     0.016 A 
HETATM    3  C   UNL     1       7.701  28.519  57.977  1.00  0.00     0.030 A 
HETATM    4  C   UNL     1       6.527  29.228  57.725  1.00  0.00     0.034 A 
HETATM    5  C   UNL     1       5.624  28.715  56.788  1.00  0.00     0.030 A 
HETATM    6  C   UNL     1       5.879  27.498  56.143  1.00  0.00     0.016 A 
ENDROOT
BRANCH   4   7
HETATM    7  N   UNL     1       6.168  30.428  58.383  1.00  0.00    -0.326 N 
HETATM    8  C   UNL     1       7.017  31.457  58.728  1.00  0.00     0.247 C 
HETATM    9  O   UNL     1       8.220  31.556  58.484  1.00  0.00    -0.271 OA
HETATM   10  H   UNL     1       5.192  30.485  58.651  1.00  0.00     0.169 HD
BRANCH   8  11
HETATM   11  C   UNL     1       6.369  32.578  59.545  1.00  0.00     0.334 C 
BRANCH  11  12
HETATM   12  N   UNL     1       7.042  32.654  60.896  1.00  0.00    -0.067 N 
HETATM   13  H   UNL     1       7.975  32.223  60.809  1.00  0.00     0.277 HD
HETATM   14  H   UNL     1       7.262  33.652  61.057  1.00  0.00     0.277 HD
BRANCH  12  15
HETATM   15  C   UNL     1       6.280  32.086  62.038  1.00  0.00     0.235 C 
BRANCH  15  16
HETATM   16  C   UNL     1       5.067  32.969  62.306  1.00  0.00     0.053 C 
BRANCH  16  17
HETATM   17  C   UNL     1       3.768  32.222  62.040  1.00  0.00     0.165 C 
BRANCH  17  18
HETATM   18  O   UNL     1       2.712  32.916  62.681  1.00  0.00    -0.401 OA
HETATM   19  H   UNL     1       2.809  33.863  62.458  1.00  0.00     0.209 HD
ENDBRANCH  17  18
ENDBRANCH  16  17
ENDBRANCH  15  16
ENDBRANCH  12  15
ENDBRANCH  11  12
ENDBRANCH   8  11
ENDBRANCH   4   7
BRANCH   1  20
HETATM   20  C   UNL     1       7.242  25.460  55.748  1.00  0.00     0.109 A 
HETATM   21  N   UNL     1       7.274  24.317  56.404  1.00  0.00    -0.240 NA
HETATM   22  C   UNL     1       7.531  23.269  55.537  1.00  0.00     0.075 A 
HETATM   23  C   UNL     1       7.656  23.622  54.194  1.00  0.00     0.036 A 
HETATM   24  C   UNL     1       7.678  21.915  55.896  1.00  0.00     0.033 A 
HETATM   25  C   UNL     1       7.924  22.672  53.194  1.00  0.00     0.028 A 
HETATM   26  S   UNL     1       7.436  25.321  54.044  1.00  0.00    -0.067 SA
HETATM   27  C   UNL     1       8.077  21.328  53.568  1.00  0.00    -0.061 A 
HETATM   28  C   UNL     1       8.388  20.281  52.536  1.00  0.00     0.048 C 
HETATM   29  C   UNL     1       7.955  20.959  54.910  1.00  0.00     0.009 A 
ENDBRANCH   1  20
TORSDOF 8
ENDMDL
MODEL 5
REMARK VINA RESULT:      -7.7      2.054      2.407
REMARK  8 active torsions:
REMARK  status: ('A' for Active; 'I' for Inactive)
REMARK    1  A    between atoms: C_7  and  C_8 
REMARK    2  A    between atoms: C_11  and  N_12 
REMARK       I    between atoms: N_12  and  C_13 
REMARK    3  A    between atoms: C_13  and  C_14 
REMARK    4  A    between atoms: C_14  and  N_15 
REMARK    5  A    between atoms: N_15  and  C_18 
REMARK    6  A    between atoms: C_18  and  C_19 
REMARK    7  A    between atoms: C_19  and  C_20 
REMARK    8  A    between atoms: C_20  and  O_21 
ROOT
HETATM    1  C   UNL     1       7.385  27.540  56.334  1.00  0.00    -0.000 A 
HETATM    2  C   UNL     1       7.896  27.852  57.601  1.00  0.00     0.016 A 
HETATM    3  C   UNL     1       7.637  29.092  58.203  1.00  0.00     0.030 A 
HETATM    4  C   UNL     1       6.861  30.051  57.555  1.00  0.00     0.034 A 
HETATM    5  C   UNL     1       6.368  29.760  56.279  1.00  0.00     0.030 A 
HETATM    6  C   UNL     1       6.621  28.518  55.681  1.00  0.00     0.016 A 
ENDROOT
BRANCH   4   7
HETATM    7  N   UNL     1       6.509  31.300  58.118  1.00  0.00    -0.326 N 
HETATM    8  C   UNL     1       5.251  31.691  58.520  1.00  0.00     0.247 C 
HETATM    9  O   UNL     1       4.218  31.021  58.520  1.00  0.00    -0.271 OA
HETATM   10  H   UNL     1       7.273  31.965  58.178  1.00  0.00     0.169 HD
BRANCH   8  11
HETATM   11  C   UNL     1       5.146  33.148  58.978  1.00  0.00     0.334 C 
BRANCH  11  12
HETATM   12  N   UNL     1       5.477  33.226  60.450  1.00  0.00    -0.067 N 
HETATM   13  H   UNL     1       5.805  32.296  60.751  1.00  0.00     0.277 HD
HETATM   14  H   UNL     1       6.328  33.809  60.529  1.00  0.00     0.277 HD
BRANCH  12  15
HETATM   15  C   UNL     1       4.399  33.739  61.336  1.00  0.00     0.235 C 
BRANCH  15  16
HETATM   16  C   UNL     1       3.993  32.634  62.304  1.00  0.00     0.053 C 
BRANCH  16  17
HETATM   17  C   UNL     1       5.189  31.786  62.710  1.00  0.00     0.165 C 
BRANCH  17  18
HETATM   18  O   UNL     1       4.713  30.549  63.212  1.00  0.00    -0.401 OA
HETATM   19  H   UNL     1       5.458  29.917  63.182  1.00  0.00     0.209 HD
ENDBRANCH  17  18
ENDBRANCH  16  17
ENDBRANCH  15  16
ENDBRANCH  12  15
ENDBRANCH  11  12
ENDBRANCH   8  11
ENDBRANCH   4   7
BRANCH   1  20
HETATM   20  C   UNL     1       7.569  26.224  55.693  1.00  0.00     0.109 A 
HETATM   21  N   UNL     1       7.525  26.038  54.388  1.00  0.00    -0.240 NA
HETATM   22  C   UNL     1       7.669  24.694  54.086  1.00  0.00     0.075 A 
HETATM   23  C   UNL     1       7.864  23.854  55.181  1.00  0.00     0.036 A 
HETATM   24  C   UNL     1       7.626  24.127  52.798  1.00  0.00     0.033 A 
HETATM   25  C   UNL     1       8.018  22.464  55.037  1.00  0.00     0.028 A 
HETATM   26  S   UNL     1       7.868  24.802  56.615  1.00  0.00    -0.067 SA
HETATM   27  C   UNL     1       7.964  21.912  53.748  1.00  0.00    -0.061 A 
HETATM   28  C   UNL     1       8.101  20.429  53.549  1.00  0.00     0.048 C 
HETATM   29  C   UNL     1       7.769  22.743  52.642  1.00  0.00     0.009 A 
ENDBRANCH   1  20
TORSDOF 8
ENDMDL
MODEL 6
REMARK VINA RESULT:      -7.5      1.426      2.537
REMARK  8 active torsions:
REMARK  status: ('A' for Active; 'I' for Inactive)
REMARK    1  A    between atoms: C_7  and  C_8 
REMARK    2  A    between atoms: C_11  and  N_12 
REMARK       I    between atoms: N_12  and  C_13 
REMARK    3  A    between atoms: C_13  and  C_14 
REMARK    4  A    between atoms: C_14  and  N_15 
REMARK    5  A    between atoms: N_15  and  C_18 
REMARK    6  A    between atoms: C_18  and  C_19 
REMARK    7  A    between atoms: C_19  and  C_20 
REMARK    8  A    between atoms: C_20  and  O_21 
ROOT
HETATM    1  C   UNL     1       7.025  26.757  56.443  1.00  0.00    -0.000 A 
HETATM    2  C   UNL     1       8.003  27.375  57.234  1.00  0.00     0.016 A 
HETATM    3  C   UNL     1       7.743  28.584  57.897  1.00  0.00     0.030 A 
HETATM    4  C   UNL     1       6.499  29.204  57.787  1.00  0.00     0.034 A 
HETATM    5  C   UNL     1       5.525  28.608  56.980  1.00  0.00     0.030 A 
HETATM    6  C   UNL     1       5.783  27.397  56.324  1.00  0.00     0.016 A 
ENDROOT
BRANCH   4   7
HETATM    7  N   UNL     1       6.142  30.391  58.469  1.00  0.00    -0.326 N 
HETATM    8  C   UNL     1       6.983  31.431  58.798  1.00  0.00     0.247 C 
HETATM    9  O   UNL     1       8.176  31.552  58.518  1.00  0.00    -0.271 OA
HETATM   10  H   UNL     1       5.173  30.429  58.767  1.00  0.00     0.169 HD
BRANCH   8  11
HETATM   11  C   UNL     1       6.344  32.532  59.646  1.00  0.00     0.334 C 
BRANCH  11  12
HETATM   12  N   UNL     1       4.949  32.104  60.038  1.00  0.00    -0.067 N 
HETATM   13  H   UNL     1       4.847  31.105  59.803  1.00  0.00     0.277 HD
HETATM   14  H   UNL     1       4.922  32.103  61.072  1.00  0.00     0.277 HD
BRANCH  12  15
HETATM   15  C   UNL     1       3.835  32.915  59.479  1.00  0.00     0.235 C 
BRANCH  15  16
HETATM   16  C   UNL     1       4.403  34.223  58.942  1.00  0.00     0.053 C 
BRANCH  16  17
HETATM   17  C   UNL     1       4.082  34.401  57.466  1.00  0.00     0.165 C 
BRANCH  17  18
HETATM   18  O   UNL     1       5.251  34.121  56.715  1.00  0.00    -0.401 OA
HETATM   19  H   UNL     1       5.991  34.597  57.140  1.00  0.00     0.209 HD
ENDBRANCH  17  18
ENDBRANCH  16  17
ENDBRANCH  15  16
ENDBRANCH  12  15
ENDBRANCH  11  12
ENDBRANCH   8  11
ENDBRANCH   4   7
BRANCH   1  20
HETATM   20  C   UNL     1       7.227  25.450  55.788  1.00  0.00     0.109 A 
HETATM   21  N   UNL     1       7.270  24.307  56.444  1.00  0.00    -0.240 NA
HETATM   22  C   UNL     1       7.533  23.261  55.575  1.00  0.00     0.075 A 
HETATM   23  C   UNL     1       7.652  23.616  54.232  1.00  0.00     0.036 A 
HETATM   24  C   UNL     1       7.692  21.908  55.933  1.00  0.00     0.033 A 
HETATM   25  C   UNL     1       7.926  22.668  53.231  1.00  0.00     0.028 A 
HETATM   26  S   UNL     1       7.419  25.313  54.083  1.00  0.00    -0.067 SA
HETATM   27  C   UNL     1       8.091  21.326  53.604  1.00  0.00    -0.061 A 
HETATM   28  C   UNL     1       8.407  20.282  52.571  1.00  0.00     0.048 C 
HETATM   29  C   UNL     1       7.974  20.955  54.947  1.00  0.00     0.009 A 
ENDBRANCH   1  20
TORSDOF 8
ENDMDL
MODEL 7
REMARK VINA RESULT:      -7.1      3.876      4.670
REMARK  8 active torsions:
REMARK  status: ('A' for Active; 'I' for Inactive)
REMARK    1  A    between atoms: C_7  and  C_8 
REMARK    2  A    between atoms: C_11  and  N_12 
REMARK       I    between atoms: N_12  and  C_13 
REMARK    3  A    between atoms: C_13  and  C_14 
REMARK    4  A    between atoms: C_14  and  N_15 
REMARK    5  A    between atoms: N_15  and  C_18 
REMARK    6  A    between atoms: C_18  and  C_19 
REMARK    7  A    between atoms: C_19  and  C_20 
REMARK    8  A    between atoms: C_20  and  O_21 
ROOT
HETATM    1  C   UNL     1       6.701  28.508  54.794  1.00  0.00    -0.000 A 
HETATM    2  C   UNL     1       7.959  28.168  55.308  1.00  0.00     0.016 A 
HETATM    3  C   UNL     1       8.332  28.527  56.611  1.00  0.00     0.030 A 
HETATM    4  C   UNL     1       7.457  29.234  57.435  1.00  0.00     0.034 A 
HETATM    5  C   UNL     1       6.208  29.600  56.922  1.00  0.00     0.030 A 
HETATM    6  C   UNL     1       5.833  29.235  55.623  1.00  0.00     0.016 A 
ENDROOT
BRANCH   4   7
HETATM    7  N   UNL     1       7.737  29.583  58.777  1.00  0.00    -0.326 N 
HETATM    8  C   UNL     1       8.440  30.687  59.206  1.00  0.00     0.247 C 
HETATM    9  O   UNL     1       8.903  31.598  58.520  1.00  0.00    -0.271 OA
HETATM   10  H   UNL     1       7.410  28.910  59.462  1.00  0.00     0.169 HD
BRANCH   8  11
HETATM   11  C   UNL     1       8.694  30.740  60.714  1.00  0.00     0.334 C 
BRANCH  11  12
HETATM   12  N   UNL     1       7.374  30.897  61.431  1.00  0.00    -0.067 N 
HETATM   13  H   UNL     1       6.711  31.343  60.780  1.00  0.00     0.277 HD
HETATM   14  H   UNL     1       6.986  29.944  61.542  1.00  0.00     0.277 HD
BRANCH  12  15
HETATM   15  C   UNL     1       7.420  31.606  62.737  1.00  0.00     0.235 C 
BRANCH  15  16
HETATM   16  C   UNL     1       6.326  32.667  62.757  1.00  0.00     0.053 C 
BRANCH  16  17
HETATM   17  C   UNL     1       4.947  32.043  62.595  1.00  0.00     0.165 C 
BRANCH  17  18
HETATM   18  O   UNL     1       4.952  30.772  63.222  1.00  0.00    -0.401 OA
HETATM   19  H   UNL     1       5.074  30.103  62.521  1.00  0.00     0.209 HD
ENDBRANCH  17  18
ENDBRANCH  16  17
ENDBRANCH  15  16
ENDBRANCH  12  15
ENDBRANCH  11  12
ENDBRANCH   8  11
ENDBRANCH   4   7
BRANCH   1  20
HETATM   20  C   UNL     1       6.236  28.089  53.458  1.00  0.00     0.109 A 
HETATM   21  N   UNL     1       6.115  28.916  52.438  1.00  0.00    -0.240 NA
HETATM   22  C   UNL     1       5.602  28.253  51.336  1.00  0.00     0.075 A 
HETATM   23  C   UNL     1       5.367  26.890  51.515  1.00  0.00     0.036 A 
HETATM   24  C   UNL     1       5.299  28.832  50.088  1.00  0.00     0.033 A 
HETATM   25  C   UNL     1       4.839  26.083  50.493  1.00  0.00     0.028 A 
HETATM   26  S   UNL     1       5.816  26.455  53.116  1.00  0.00    -0.067 SA
HETATM   27  C   UNL     1       4.535  26.676  49.258  1.00  0.00    -0.061 A 
HETATM   28  C   UNL     1       3.948  25.857  48.144  1.00  0.00     0.048 C 
HETATM   29  C   UNL     1       4.765  28.041  49.064  1.00  0.00     0.009 A 
ENDBRANCH   1  20
TORSDOF 8
ENDMDL
MODEL 8
REMARK VINA RESULT:      -6.8      3.189      4.058
REMARK  8 active torsions:
REMARK  status: ('A' for Active; 'I' for Inactive)
REMARK    1  A    between atoms: C_7  and  C_8 
REMARK    2  A    between atoms: C_11  and  N_12 
REMARK       I    between atoms: N_12  and  C_13 
REMARK    3  A    between atoms: C_13  and  C_14 
REMARK    4  A    between atoms: C_14  and  N_15 
REMARK    5  A    between atoms: N_15  and  C_18 
REMARK    6  A    between atoms: C_18  and  C_19 
REMARK    7  A    between atoms: C_19  and  C_20 
REMARK    8  A    between atoms: C_20  and  O_21 
ROOT
HETATM    1  C   UNL     1       6.908  28.897  56.057  1.00  0.00    -0.000 A 
HETATM    2  C   UNL     1       8.063  28.467  56.724  1.00  0.00     0.016 A 
HETATM    3  C   UNL     1       8.436  29.017  57.959  1.00  0.00     0.030 A 
HETATM    4  C   UNL     1       7.662  30.009  58.560  1.00  0.00     0.034 A 
HETATM    5  C   UNL     1       6.521  30.463  57.891  1.00  0.00     0.030 A 
HETATM    6  C   UNL     1       6.146  29.909  56.660  1.00  0.00     0.016 A 
ENDROOT
BRANCH   4   7
HETATM    7  N   UNL     1       7.939  30.572  59.828  1.00  0.00    -0.326 N 
HETATM    8  C   UNL     1       8.724  31.676  60.080  1.00  0.00     0.247 C 
HETATM    9  O   UNL     1       9.279  32.408  59.260  1.00  0.00    -0.271 OA
HETATM   10  H   UNL     1       7.541  30.063  60.610  1.00  0.00     0.169 HD
BRANCH   8  11
HETATM   11  C   UNL     1       8.947  31.982  61.562  1.00  0.00     0.334 C 
BRANCH  11  12
HETATM   12  N   UNL     1       7.960  31.186  62.383  1.00  0.00    -0.067 N 
HETATM   13  H   UNL     1       7.564  30.452  61.777  1.00  0.00     0.277 HD
HETATM   14  H   UNL     1       8.516  30.647  63.069  1.00  0.00     0.277 HD
BRANCH  12  15
HETATM   15  C   UNL     1       6.894  31.969  63.063  1.00  0.00     0.235 C 
BRANCH  15  16
HETATM   16  C   UNL     1       7.547  32.966  64.012  1.00  0.00     0.053 C 
BRANCH  16  17
HETATM   17  C   UNL     1       6.699  34.219  64.169  1.00  0.00     0.165 C 
BRANCH  17  18
HETATM   18  O   UNL     1       6.226  34.604  62.889  1.00  0.00    -0.401 OA
HETATM   19  H   UNL     1       6.929  35.138  62.468  1.00  0.00     0.209 HD
ENDBRANCH  17  18
ENDBRANCH  16  17
ENDBRANCH  15  16
ENDBRANCH  12  15
ENDBRANCH  11  12
ENDBRANCH   8  11
ENDBRANCH   4   7
BRANCH   1  20
HETATM   20  C   UNL     1       6.437  28.297  54.794  1.00  0.00     0.109 A 
HETATM   21  N   UNL     1       6.945  27.195  54.278  1.00  0.00    -0.240 NA
HETATM   22  C   UNL     1       6.347  26.910  53.062  1.00  0.00     0.075 A 
HETATM   23  C   UNL     1       5.341  27.791  52.671  1.00  0.00     0.036 A 
HETATM   24  C   UNL     1       6.673  25.835  52.212  1.00  0.00     0.033 A 
HETATM   25  C   UNL     1       4.646  27.640  51.458  1.00  0.00     0.028 A 
HETATM   26  S   UNL     1       5.157  28.998  53.881  1.00  0.00    -0.067 SA
HETATM   27  C   UNL     1       4.987  26.569  50.618  1.00  0.00    -0.061 A 
HETATM   28  C   UNL     1       4.287  26.381  49.302  1.00  0.00     0.048 C 
HETATM   29  C   UNL     1       5.995  25.678  50.997  1.00  0.00     0.009 A 
ENDBRANCH   1  20
TORSDOF 8
ENDMDL
MODEL 9
REMARK VINA RESULT:      -6.7      2.819      3.461
REMARK  8 active torsions:
REMARK  status: ('A' for Active; 'I' for Inactive)
REMARK    1  A    between atoms: C_7  and  C_8 
REMARK    2  A    between atoms: C_11  and  N_12 
REMARK       I    between atoms: N_12  and  C_13 
REMARK    3  A    between atoms: C_13  and  C_14 
REMARK    4  A    between atoms: C_14  and  N_15 
REMARK    5  A    between atoms: N_15  and  C_18 
REMARK    6  A    between atoms: C_18  and  C_19 
REMARK    7  A    between atoms: C_19  and  C_20 
REMARK    8  A    between atoms: C_20  and  O_21 
ROOT
HETATM    1  C   UNL     1       6.341  28.327  56.298  1.00  0.00    -0.000 A 
HETATM    2  C   UNL     1       7.169  28.978  57.222  1.00  0.00     0.016 A 
HETATM    3  C   UNL     1       6.731  30.115  57.915  1.00  0.00     0.030 A 
HETATM    4  C   UNL     1       5.452  30.630  57.704  1.00  0.00     0.034 A 
HETATM    5  C   UNL     1       4.626  30.003  56.765  1.00  0.00     0.030 A 
HETATM    6  C   UNL     1       5.063  28.863  56.078  1.00  0.00     0.016 A 
ENDROOT
BRANCH   4   7
HETATM    7  N   UNL     1       4.917  31.737  58.404  1.00  0.00    -0.326 N 
HETATM    8  C   UNL     1       4.942  33.053  57.997  1.00  0.00     0.247 C 
HETATM    9  O   UNL     1       5.378  33.506  56.938  1.00  0.00    -0.271 OA
HETATM   10  H   UNL     1       4.521  31.510  59.310  1.00  0.00     0.169 HD
BRANCH   8  11
HETATM   11  C   UNL     1       4.396  34.052  59.019  1.00  0.00     0.334 C 
BRANCH  11  12
HETATM   12  N   UNL     1       3.228  33.426  59.745  1.00  0.00    -0.067 N 
HETATM   13  H   UNL     1       2.365  33.699  59.252  1.00  0.00     0.277 HD
HETATM   14  H   UNL     1       3.285  32.408  59.568  1.00  0.00     0.277 HD
BRANCH  12  15
HETATM   15  C   UNL     1       3.138  33.707  61.202  1.00  0.00     0.235 C 
BRANCH  15  16
HETATM   16  C   UNL     1       4.226  34.706  61.577  1.00  0.00     0.053 C 
BRANCH  16  17
HETATM   17  C   UNL     1       4.011  35.261  62.977  1.00  0.00     0.165 C 
BRANCH  17  18
HETATM   18  O   UNL     1       2.625  35.497  63.158  1.00  0.00    -0.401 OA
HETATM   19  H   UNL     1       2.145  34.842  62.613  1.00  0.00     0.209 HD
ENDBRANCH  17  18
ENDBRANCH  16  17
ENDBRANCH  15  16
ENDBRANCH  12  15
ENDBRANCH  11  12
ENDBRANCH   8  11
ENDBRANCH   4   7
BRANCH   1  20
HETATM   20  C   UNL     1       6.731  27.087  55.600  1.00  0.00     0.109 A 
HETATM   21  N   UNL     1       7.176  27.060  54.359  1.00  0.00    -0.240 NA
HETATM   22  C   UNL     1       7.402  25.755  53.955  1.00  0.00     0.075 A 
HETATM   23  C   UNL     1       7.160  24.780  54.921  1.00  0.00     0.036 A 
HETATM   24  C   UNL     1       7.836  25.348  52.678  1.00  0.00     0.033 A 
HETATM   25  C   UNL     1       7.335  23.410  54.660  1.00  0.00     0.028 A 
HETATM   26  S   UNL     1       6.641  25.549  56.368  1.00  0.00    -0.067 SA
HETATM   27  C   UNL     1       7.760  23.019  53.381  1.00  0.00    -0.061 A 
HETATM   28  C   UNL     1       7.939  21.565  53.050  1.00  0.00     0.048 C 
HETATM   29  C   UNL     1       8.006  23.986  52.402  1.00  0.00     0.009 A 
ENDBRANCH   1  20
TORSDOF 8
ENDMDL
MODEL 10
REMARK VINA RESULT:      -6.7      5.732     10.300
REMARK  8 active torsions:
REMARK  status: ('A' for Active; 'I' for Inactive)
REMARK    1  A    between atoms: C_7  and  C_8 
REMARK    2  A    between atoms: C_11  and  N_12 
REMARK       I    between atoms: N_12  and  C_13 
REMARK    3  A    between atoms: C_13  and  C_14 
REMARK    4  A    between atoms: C_14  and  N_15 
REMARK    5  A    between atoms: N_15  and  C_18 
REMARK    6  A    between atoms: C_18  and  C_19 
REMARK    7  A    between atoms: C_19  and  C_20 
REMARK    8  A    between atoms: C_20  and  O_21 
ROOT
HETATM    1  C   UNL     1       4.910  29.671  55.564  1.00  0.00    -0.000 A 
HETATM    2  C   UNL     1       4.955  28.386  55.008  1.00  0.00     0.016 A 
HETATM    3  C   UNL     1       4.227  28.068  53.853  1.00  0.00     0.030 A 
HETATM    4  C   UNL     1       3.435  29.027  53.222  1.00  0.00     0.034 A 
HETATM    5  C   UNL     1       3.363  30.307  53.783  1.00  0.00     0.030 A 
HETATM    6  C   UNL     1       4.097  30.625  54.933  1.00  0.00     0.016 A 
ENDROOT
BRANCH   4   7
HETATM    7  N   UNL     1       2.717  28.801  52.024  1.00  0.00    -0.326 N 
HETATM    8  C   UNL     1       2.982  29.360  50.794  1.00  0.00     0.247 C 
HETATM    9  O   UNL     1       3.912  30.108  50.490  1.00  0.00    -0.271 OA
HETATM   10  H   UNL     1       1.909  28.197  52.127  1.00  0.00     0.169 HD
BRANCH   8  11
HETATM   11  C   UNL     1       1.960  29.029  49.704  1.00  0.00     0.334 C 
BRANCH  11  12
HETATM   12  N   UNL     1       2.191  27.615  49.225  1.00  0.00    -0.067 N 
HETATM   13  H   UNL     1       1.999  26.979  50.013  1.00  0.00     0.277 HD
HETATM   14  H   UNL     1       1.427  27.402  48.562  1.00  0.00     0.277 HD
BRANCH  12  15
HETATM   15  C   UNL     1       3.518  27.342  48.612  1.00  0.00     0.235 C 
BRANCH  15  16
HETATM   16  C   UNL     1       3.782  25.842  48.662  1.00  0.00     0.053 C 
BRANCH  16  17
HETATM   17  C   UNL     1       2.986  25.104  47.596  1.00  0.00     0.165 C 
BRANCH  17  18
HETATM   18  O   UNL     1       2.791  25.977  46.496  1.00  0.00    -0.401 OA
HETATM   19  H   UNL     1       2.541  26.850  46.859  1.00  0.00     0.209 HD
ENDBRANCH  17  18
ENDBRANCH  16  17
ENDBRANCH  15  16
ENDBRANCH  12  15
ENDBRANCH  11  12
ENDBRANCH   8  11
ENDBRANCH   4   7
BRANCH   1  20
HETATM   20  C   UNL     1       5.715  30.072  56.733  1.00  0.00     0.109 A 
HETATM   21  N   UNL     1       5.444  31.128  57.475  1.00  0.00    -0.240 NA
HETATM   22  C   UNL     1       6.404  31.287  58.460  1.00  0.00     0.075 A 
HETATM   23  C   UNL     1       7.399  30.311  58.486  1.00  0.00     0.036 A 
HETATM   24  C   UNL     1       6.458  32.332  59.403  1.00  0.00     0.033 A 
HETATM   25  C   UNL     1       8.448  30.339  59.421  1.00  0.00     0.028 A 
HETATM   26  S   UNL     1       7.093  29.172  57.235  1.00  0.00    -0.067 SA
HETATM   27  C   UNL     1       8.493  31.391  60.349  1.00  0.00    -0.061 A 
HETATM   28  C   UNL     1       9.608  31.475  61.352  1.00  0.00     0.048 C 
HETATM   29  C   UNL     1       7.502  32.377  60.334  1.00  0.00     0.009 A 
ENDBRANCH   1  20
TORSDOF 8
ENDMDL
