MODEL 1
REMARK VINA RESULT:      -9.7      0.000      0.000
REMARK  9 active torsions:
REMARK  status: ('A' for Active; 'I' for Inactive)
REMARK    1  A    between atoms: O_2  and  C_3 
REMARK    2  A    between atoms: C_4  and  C_5 
REMARK    3  A    between atoms: C_9  and  C_10 
REMARK       I    between atoms: C_10  and  N_11 
REMARK    4  A    between atoms: N_11  and  C_12 
REMARK    5  A    between atoms: C_12  and  C_13 
REMARK    6  A    between atoms: C_13  and  C_14 
REMARK    7  A    between atoms: C_14  and  C_15 
REMARK    8  A    between atoms: C_15  and  O_16 
REMARK    9  A    between atoms: O_16  and  C_17 
ROOT
HETATM    1  C   UNL     1       9.204  31.162  59.065  1.00  0.00     0.270 C 
HETATM    2  N   UNL     1       8.823  29.996  58.455  1.00  0.00    -0.345 N 
HETATM    3  O   UNL     1       9.909  31.999  58.512  1.00  0.00    -0.266 OA
HETATM    4  H   UNL     1       8.179  29.372  58.916  1.00  0.00     0.163 HD
ENDROOT
BRANCH   1   5
HETATM    5  C   UNL     1       8.725  31.328  60.411  1.00  0.00     0.120 A 
HETATM    6  N   UNL     1       8.947  30.385  61.377  1.00  0.00    -0.272 N 
HETATM    7  N   UNL     1       8.407  30.679  62.568  1.00  0.00    -0.174 NA
HETATM    8  H   UNL     1       9.451  29.511  61.269  1.00  0.00     0.189 HD
HETATM    9  C   UNL     1       7.818  31.870  62.391  1.00  0.00     0.092 A 
HETATM   10  C   UNL     1       7.998  32.313  61.050  1.00  0.00     0.071 A 
BRANCH   9  11
HETATM   11  C   UNL     1       7.072  32.553  63.450  1.00  0.00     0.028 A 
HETATM   12  C   UNL     1       5.675  32.487  63.589  1.00  0.00     0.080 A 
HETATM   13  C   UNL     1       5.028  33.220  64.594  1.00  0.00     0.037 A 
HETATM   14  C   UNL     1       5.761  33.986  65.496  1.00  0.00     0.003 A 
HETATM   15  C   UNL     1       7.147  34.040  65.390  1.00  0.00     0.001 A 
HETATM   16  C   UNL     1       7.796  33.334  64.373  1.00  0.00     0.017 A 
BRANCH  12  17
HETATM   17  O   UNL     1       4.837  31.771  62.773  1.00  0.00    -0.355 OA
HETATM   18  C   UNL     1       3.926  32.601  62.057  1.00  0.00     0.210 C 
ENDBRANCH  12  17
ENDBRANCH   9  11
ENDBRANCH   1   5
BRANCH   2  19
HETATM   19  C   UNL     1       9.221  29.683  57.107  1.00  0.00     0.217 C 
BRANCH  19  20
HETATM   20  C   UNL     1       8.502  28.412  56.684  1.00  0.00    -0.085 C 
BRANCH  20  21
HETATM   21  C   UNL     1       7.887  27.322  56.319  1.00  0.00    -0.078 C 
BRANCH  21  22
HETATM   22  C   UNL     1       7.172  26.050  55.896  1.00  0.00     0.269 C 
BRANCH  22  23
HETATM   23  O   UNL     1       7.695  25.605  54.649  1.00  0.00    -0.339 OA
BRANCH  23  24
HETATM   24  C   UNL     1       7.893  24.255  54.521  1.00  0.00     0.072 A 
HETATM   25  C   UNL     1       8.248  23.379  55.552  1.00  0.00     0.076 A 
HETATM   26  C   UNL     1       8.405  22.043  55.236  1.00  0.00     0.107 A 
HETATM   27  C   UNL     1       8.224  21.567  53.961  1.00  0.00     0.105 A 
HETATM   28  O   UNL     1       8.746  21.061  56.113  1.00  0.00    -0.323 OA
HETATM   29  O   UNL     1       8.428  20.226  53.873  1.00  0.00    -0.323 OA
HETATM   30  C   UNL     1       7.874  22.401  52.923  1.00  0.00     0.042 A 
HETATM   31  C   UNL     1       8.759  19.911  55.241  1.00  0.00     0.352 A 
HETATM   32  C   UNL     1       7.709  23.760  53.213  1.00  0.00     0.040 A 
ENDBRANCH  23  24
ENDBRANCH  22  23
ENDBRANCH  21  22
ENDBRANCH  20  21
ENDBRANCH  19  20
ENDBRANCH   2  19
TORSDOF 9
ENDMDL
MODEL 2
REMARK VINA RESULT:      -9.0      3.002     12.088
REMARK  9 active torsions:
REMARK  status: ('A' for Active; 'I' for Inactive)
REMARK    1  A    between atoms: O_2  and  C_3 
REMARK    2  A    between atoms: C_4  and  C_5 
REMARK    3  A    between atoms: C_9  and  C_10 
REMARK       I    between atoms: C_10  and  N_11 
REMARK    4  A    between atoms: N_11  and  C_12 
REMARK    5  A    between atoms: C_12  and  C_13 
REMARK    6  A    between atoms: C_13  and  C_14 
REMARK    7  A    between atoms: C_14  and  C_15 
REMARK    8  A    between atoms: C_15  and  O_16 
REMARK    9  A    between atoms: O_16  and  C_17 
ROOT
HETATM    1  C   UNL     1       4.476  28.877  56.225  1.00  0.00     0.270 C 
HETATM    2  N   UNL     1       4.426  29.308  57.525  1.00  0.00    -0.345 N 
HETATM    3  O   UNL     1       4.115  29.574  55.283  1.00  0.00    -0.266 OA
HETATM    4  H   UNL     1       4.805  28.732  58.261  1.00  0.00     0.163 HD
ENDROOT
BRANCH   1   5
HETATM    5  C   UNL     1       4.970  27.539  56.046  1.00  0.00     0.120 A 
HETATM    6  N   UNL     1       4.575  26.509  56.855  1.00  0.00    -0.272 N 
HETATM    7  N   UNL     1       5.155  25.333  56.574  1.00  0.00    -0.174 NA
HETATM    8  H   UNL     1       3.919  26.561  57.628  1.00  0.00     0.189 HD
HETATM    9  C   UNL     1       5.953  25.588  55.528  1.00  0.00     0.092 A 
HETATM   10  C   UNL     1       5.863  26.962  55.164  1.00  0.00     0.071 A 
BRANCH   9  11
HETATM   11  C   UNL     1       6.807  24.570  54.914  1.00  0.00     0.028 A 
HETATM   12  C   UNL     1       6.658  24.119  53.591  1.00  0.00     0.080 A 
HETATM   13  C   UNL     1       7.477  23.095  53.096  1.00  0.00     0.037 A 
HETATM   14  C   UNL     1       8.478  22.541  53.889  1.00  0.00     0.003 A 
HETATM   15  C   UNL     1       8.658  22.995  55.191  1.00  0.00     0.001 A 
HETATM   16  C   UNL     1       7.826  23.996  55.701  1.00  0.00     0.017 A 
BRANCH  12  17
HETATM   17  O   UNL     1       5.717  24.578  52.706  1.00  0.00    -0.355 OA
HETATM   18  C   UNL     1       6.253  25.510  51.769  1.00  0.00     0.210 C 
ENDBRANCH  12  17
ENDBRANCH   9  11
ENDBRANCH   1   5
BRANCH   2  19
HETATM   19  C   UNL     1       3.955  30.623  57.868  1.00  0.00     0.217 C 
BRANCH  19  20
HETATM   20  C   UNL     1       5.000  31.287  58.750  1.00  0.00    -0.085 C 
BRANCH  20  21
HETATM   21  C   UNL     1       5.898  31.855  59.505  1.00  0.00    -0.078 C 
BRANCH  21  22
HETATM   22  C   UNL     1       6.946  32.515  60.385  1.00  0.00     0.269 C 
BRANCH  22  23
HETATM   23  O   UNL     1       7.117  31.750  61.574  1.00  0.00    -0.339 OA
BRANCH  23  24
HETATM   24  C   UNL     1       6.749  32.359  62.745  1.00  0.00     0.072 A 
HETATM   25  C   UNL     1       5.439  32.517  63.209  1.00  0.00     0.076 A 
HETATM   26  C   UNL     1       5.257  33.158  64.419  1.00  0.00     0.107 A 
HETATM   27  C   UNL     1       6.311  33.633  65.161  1.00  0.00     0.105 A 
HETATM   28  O   UNL     1       4.056  33.394  65.013  1.00  0.00    -0.323 OA
HETATM   29  O   UNL     1       5.908  34.228  66.314  1.00  0.00    -0.323 OA
HETATM   30  C   UNL     1       7.613  33.494  64.734  1.00  0.00     0.042 A 
HETATM   31  C   UNL     1       4.478  34.074  66.215  1.00  0.00     0.352 A 
HETATM   32  C   UNL     1       7.827  32.849  63.511  1.00  0.00     0.040 A 
ENDBRANCH  23  24
ENDBRANCH  22  23
ENDBRANCH  21  22
ENDBRANCH  20  21
ENDBRANCH  19  20
ENDBRANCH   2  19
TORSDOF 9
ENDMDL
MODEL 3
REMARK VINA RESULT:      -8.9      2.646     11.936
REMARK  9 active torsions:
REMARK  status: ('A' for Active; 'I' for Inactive)
REMARK    1  A    between atoms: O_2  and  C_3 
REMARK    2  A    between atoms: C_4  and  C_5 
REMARK    3  A    between atoms: C_9  and  C_10 
REMARK       I    between atoms: C_10  and  N_11 
REMARK    4  A    between atoms: N_11  and  C_12 
REMARK    5  A    between atoms: C_12  and  C_13 
REMARK    6  A    between atoms: C_13  and  C_14 
REMARK    7  A    between atoms: C_14  and  C_15 
REMARK    8  A    between atoms: C_15  and  O_16 
REMARK    9  A    between atoms: O_16  and  C_17 
ROOT
HETATM    1  C   UNL     1       5.017  28.689  56.314  1.00  0.00     0.270 C 
HETATM    2  N   UNL     1       6.066  29.521  56.611  1.00  0.00    -0.345 N 
HETATM    3  O   UNL     1       3.855  29.077  56.276  1.00  0.00    -0.266 OA
HETATM    4  H   UNL     1       7.012  29.179  56.555  1.00  0.00     0.163 HD
ENDROOT
BRANCH   1   5
HETATM    5  C   UNL     1       5.380  27.321  56.063  1.00  0.00     0.120 A 
HETATM    6  N   UNL     1       4.797  26.283  56.737  1.00  0.00    -0.272 N 
HETATM    7  N   UNL     1       5.271  25.074  56.407  1.00  0.00    -0.174 NA
HETATM    8  H   UNL     1       4.075  26.350  57.449  1.00  0.00     0.189 HD
HETATM    9  C   UNL     1       6.194  25.316  55.465  1.00  0.00     0.092 A 
HETATM   10  C   UNL     1       6.290  26.715  55.218  1.00  0.00     0.071 A 
BRANCH   9  11
HETATM   11  C   UNL     1       6.990  24.256  54.843  1.00  0.00     0.028 A 
HETATM   12  C   UNL     1       7.921  23.466  55.541  1.00  0.00     0.080 A 
HETATM   13  C   UNL     1       8.690  22.513  54.860  1.00  0.00     0.037 A 
HETATM   14  C   UNL     1       8.514  22.302  53.495  1.00  0.00     0.003 A 
HETATM   15  C   UNL     1       7.578  23.056  52.795  1.00  0.00     0.001 A 
HETATM   16  C   UNL     1       6.827  24.028  53.462  1.00  0.00     0.017 A 
BRANCH  12  17
HETATM   17  O   UNL     1       8.190  23.569  56.881  1.00  0.00    -0.355 OA
HETATM   18  C   UNL     1       8.351  22.299  57.508  1.00  0.00     0.210 C 
ENDBRANCH  12  17
ENDBRANCH   9  11
ENDBRANCH   1   5
BRANCH   2  19
HETATM   19  C   UNL     1       5.866  30.919  56.887  1.00  0.00     0.217 C 
BRANCH  19  20
HETATM   20  C   UNL     1       6.610  31.260  58.168  1.00  0.00    -0.085 C 
BRANCH  20  21
HETATM   21  C   UNL     1       7.249  31.552  59.266  1.00  0.00    -0.078 C 
BRANCH  21  22
HETATM   22  C   UNL     1       7.994  31.893  60.546  1.00  0.00     0.269 C 
BRANCH  22  23
HETATM   23  O   UNL     1       7.410  31.188  61.636  1.00  0.00    -0.339 OA
BRANCH  23  24
HETATM   24  C   UNL     1       6.969  31.951  62.686  1.00  0.00     0.072 A 
HETATM   25  C   UNL     1       5.636  32.113  63.076  1.00  0.00     0.076 A 
HETATM   26  C   UNL     1       5.377  32.923  64.165  1.00  0.00     0.107 A 
HETATM   27  C   UNL     1       6.378  33.559  64.857  1.00  0.00     0.105 A 
HETATM   28  O   UNL     1       4.144  33.187  64.676  1.00  0.00    -0.323 OA
HETATM   29  O   UNL     1       5.904  34.304  65.890  1.00  0.00    -0.323 OA
HETATM   30  C   UNL     1       7.701  33.421  64.501  1.00  0.00     0.042 A 
HETATM   31  C   UNL     1       4.486  34.065  65.770  1.00  0.00     0.352 A 
HETATM   32  C   UNL     1       7.992  32.607  63.401  1.00  0.00     0.040 A 
ENDBRANCH  23  24
ENDBRANCH  22  23
ENDBRANCH  21  22
ENDBRANCH  20  21
ENDBRANCH  19  20
ENDBRANCH   2  19
TORSDOF 9
ENDMDL
MODEL 4
REMARK VINA RESULT:      -8.9      2.192      3.266
REMARK  9 active torsions:
REMARK  status: ('A' for Active; 'I' for Inactive)
REMARK    1  A    between atoms: O_2  and  C_3 
REMARK    2  A    between atoms: C_4  and  C_5 
REMARK    3  A    between atoms: C_9  and  C_10 
REMARK       I    between atoms: C_10  and  N_11 
REMARK    4  A    between atoms: N_11  and  C_12 
REMARK    5  A    between atoms: C_12  and  C_13 
REMARK    6  A    between atoms: C_13  and  C_14 
REMARK    7  A    between atoms: C_14  and  C_15 
REMARK    8  A    between atoms: C_15  and  O_16 
REMARK    9  A    between atoms: O_16  and  C_17 
ROOT
HETATM    1  C   UNL     1       8.978  31.162  59.288  1.00  0.00     0.270 C 
HETATM    2  N   UNL     1       8.684  29.936  58.749  1.00  0.00    -0.345 N 
HETATM    3  O   UNL     1       9.594  32.025  58.672  1.00  0.00    -0.266 OA
HETATM    4  H   UNL     1       8.109  29.285  59.261  1.00  0.00     0.163 HD
ENDROOT
BRANCH   1   5
HETATM    5  C   UNL     1       8.522  31.357  60.637  1.00  0.00     0.120 A 
HETATM    6  N   UNL     1       8.777  30.445  61.625  1.00  0.00    -0.272 N 
HETATM    7  N   UNL     1       8.254  30.763  62.818  1.00  0.00    -0.174 NA
HETATM    8  H   UNL     1       9.294  29.577  61.532  1.00  0.00     0.189 HD
HETATM    9  C   UNL     1       7.642  31.939  62.619  1.00  0.00     0.092 A 
HETATM   10  C   UNL     1       7.790  32.348  61.262  1.00  0.00     0.071 A 
BRANCH   9  11
HETATM   11  C   UNL     1       6.904  32.639  63.672  1.00  0.00     0.028 A 
HETATM   12  C   UNL     1       5.502  32.661  63.761  1.00  0.00     0.080 A 
HETATM   13  C   UNL     1       4.868  33.406  64.765  1.00  0.00     0.037 A 
HETATM   14  C   UNL     1       5.616  34.097  65.715  1.00  0.00     0.003 A 
HETATM   15  C   UNL     1       7.005  34.062  65.658  1.00  0.00     0.001 A 
HETATM   16  C   UNL     1       7.643  33.344  64.643  1.00  0.00     0.017 A 
BRANCH  12  17
HETATM   17  O   UNL     1       4.649  32.026  62.896  1.00  0.00    -0.355 OA
HETATM   18  C   UNL     1       3.773  32.928  62.225  1.00  0.00     0.210 C 
ENDBRANCH  12  17
ENDBRANCH   9  11
ENDBRANCH   1   5
BRANCH   2  19
HETATM   19  C   UNL     1       9.073  29.587  57.408  1.00  0.00     0.217 C 
BRANCH  19  20
HETATM   20  C   UNL     1       8.590  28.174  57.127  1.00  0.00    -0.085 C 
BRANCH  20  21
HETATM   21  C   UNL     1       8.177  26.961  56.887  1.00  0.00    -0.078 C 
BRANCH  21  22
HETATM   22  C   UNL     1       7.693  25.547  56.608  1.00  0.00     0.269 C 
BRANCH  22  23
HETATM   23  O   UNL     1       6.318  25.580  56.244  1.00  0.00    -0.339 OA
BRANCH  23  24
HETATM   24  C   UNL     1       6.047  25.683  54.904  1.00  0.00     0.072 A 
HETATM   25  C   UNL     1       5.488  26.794  54.266  1.00  0.00     0.076 A 
HETATM   26  C   UNL     1       5.286  26.719  52.901  1.00  0.00     0.107 A 
HETATM   27  C   UNL     1       5.615  25.601  52.174  1.00  0.00     0.105 A 
HETATM   28  O   UNL     1       4.756  27.704  52.127  1.00  0.00    -0.323 OA
HETATM   29  O   UNL     1       5.334  25.740  50.852  1.00  0.00    -0.323 OA
HETATM   30  C   UNL     1       6.167  24.490  52.770  1.00  0.00     0.042 A 
HETATM   31  C   UNL     1       4.789  27.076  50.828  1.00  0.00     0.352 A 
HETATM   32  C   UNL     1       6.382  24.538  54.152  1.00  0.00     0.040 A 
ENDBRANCH  23  24
ENDBRANCH  22  23
ENDBRANCH  21  22
ENDBRANCH  20  21
ENDBRANCH  19  20
ENDBRANCH   2  19
TORSDOF 9
ENDMDL
MODEL 5
REMARK VINA RESULT:      -8.8      2.539     11.743
REMARK  9 active torsions:
REMARK  status: ('A' for Active; 'I' for Inactive)
REMARK    1  A    between atoms: O_2  and  C_3 
REMARK    2  A    between atoms: C_4  and  C_5 
REMARK    3  A    between atoms: C_9  and  C_10 
REMARK       I    between atoms: C_10  and  N_11 
REMARK    4  A    between atoms: N_11  and  C_12 
REMARK    5  A    between atoms: C_12  and  C_13 
REMARK    6  A    between atoms: C_13  and  C_14 
REMARK    7  A    between atoms: C_14  and  C_15 
REMARK    8  A    between atoms: C_15  and  O_16 
REMARK    9  A    between atoms: O_16  and  C_17 
ROOT
HETATM    1  C   UNL     1       5.707  28.770  57.045  1.00  0.00     0.270 C 
HETATM    2  N   UNL     1       6.901  29.427  57.185  1.00  0.00    -0.345 N 
HETATM    3  O   UNL     1       4.628  29.295  57.302  1.00  0.00    -0.266 OA
HETATM    4  H   UNL     1       7.757  28.985  56.889  1.00  0.00     0.163 HD
ENDROOT
BRANCH   1   5
HETATM    5  C   UNL     1       5.811  27.411  56.586  1.00  0.00     0.120 A 
HETATM    6  N   UNL     1       4.866  26.471  56.891  1.00  0.00    -0.272 N 
HETATM    7  N   UNL     1       5.130  25.248  56.412  1.00  0.00    -0.174 NA
HETATM    8  H   UNL     1       4.023  26.612  57.439  1.00  0.00     0.189 HD
HETATM    9  C   UNL     1       6.288  25.383  55.750  1.00  0.00     0.092 A 
HETATM   10  C   UNL     1       6.747  26.729  55.833  1.00  0.00     0.071 A 
BRANCH   9  11
HETATM   11  C   UNL     1       6.961  24.263  55.090  1.00  0.00     0.028 A 
HETATM   12  C   UNL     1       7.779  23.338  55.761  1.00  0.00     0.080 A 
HETATM   13  C   UNL     1       8.440  22.329  55.047  1.00  0.00     0.037 A 
HETATM   14  C   UNL     1       8.260  22.199  53.672  1.00  0.00     0.003 A 
HETATM   15  C   UNL     1       7.432  23.089  52.997  1.00  0.00     0.001 A 
HETATM   16  C   UNL     1       6.792  24.115  53.698  1.00  0.00     0.017 A 
BRANCH  12  17
HETATM   17  O   UNL     1       8.039  23.351  57.107  1.00  0.00    -0.355 OA
HETATM   18  C   UNL     1       9.004  24.335  57.472  1.00  0.00     0.210 C 
ENDBRANCH  12  17
ENDBRANCH   9  11
ENDBRANCH   1   5
BRANCH   2  19
HETATM   19  C   UNL     1       6.964  30.793  57.635  1.00  0.00     0.217 C 
BRANCH  19  20
HETATM   20  C   UNL     1       7.611  30.809  59.011  1.00  0.00    -0.085 C 
BRANCH  20  21
HETATM   21  C   UNL     1       8.166  30.821  60.190  1.00  0.00    -0.078 C 
BRANCH  21  22
HETATM   22  C   UNL     1       8.812  30.833  61.566  1.00  0.00     0.269 C 
BRANCH  22  23
HETATM   23  O   UNL     1       8.788  32.157  62.089  1.00  0.00    -0.339 OA
BRANCH  23  24
HETATM   24  C   UNL     1       7.740  32.465  62.916  1.00  0.00     0.072 A 
HETATM   25  C   UNL     1       7.839  33.083  64.166  1.00  0.00     0.076 A 
HETATM   26  C   UNL     1       6.669  33.318  64.863  1.00  0.00     0.107 A 
HETATM   27  C   UNL     1       5.438  32.964  64.365  1.00  0.00     0.105 A 
HETATM   28  O   UNL     1       6.585  33.907  66.086  1.00  0.00    -0.323 OA
HETATM   29  O   UNL     1       4.424  33.286  65.211  1.00  0.00    -0.323 OA
HETATM   30  C   UNL     1       5.305  32.354  63.138  1.00  0.00     0.042 A 
HETATM   31  C   UNL     1       5.157  33.883  66.301  1.00  0.00     0.352 A 
HETATM   32  C   UNL     1       6.474  32.104  62.411  1.00  0.00     0.040 A 
ENDBRANCH  23  24
ENDBRANCH  22  23
ENDBRANCH  21  22
ENDBRANCH  20  21
ENDBRANCH  19  20
ENDBRANCH   2  19
TORSDOF 9
ENDMDL
MODEL 6
REMARK VINA RESULT:      -8.8      2.873     11.986
REMARK  9 active torsions:
REMARK  status: ('A' for Active; 'I' for Inactive)
REMARK    1  A    between atoms: O_2  and  C_3 
REMARK    2  A    between atoms: C_4  and  C_5 
REMARK    3  A    between atoms: C_9  and  C_10 
REMARK       I    between atoms: C_10  and  N_11 
REMARK    4  A    between atoms: N_11  and  C_12 
REMARK    5  A    between atoms: C_12  and  C_13 
REMARK    6  A    between atoms: C_13  and  C_14 
REMARK    7  A    between atoms: C_14  and  C_15 
REMARK    8  A    between atoms: C_15  and  O_16 
REMARK    9  A    between atoms: O_16  and  C_17 
ROOT
HETATM    1  C   UNL     1       6.490  27.657  53.680  1.00  0.00     0.270 C 
HETATM    2  N   UNL     1       6.134  27.930  54.975  1.00  0.00    -0.345 N 
HETATM    3  O   UNL     1       6.342  28.465  52.769  1.00  0.00    -0.266 OA
HETATM    4  H   UNL     1       6.345  27.269  55.706  1.00  0.00     0.163 HD
ENDROOT
BRANCH   1   5
HETATM    5  C   UNL     1       7.040  26.347  53.464  1.00  0.00     0.120 A 
HETATM    6  N   UNL     1       7.510  25.953  52.241  1.00  0.00    -0.272 N 
HETATM    7  N   UNL     1       7.959  24.690  52.204  1.00  0.00    -0.174 NA
HETATM    8  H   UNL     1       7.532  26.507  51.391  1.00  0.00     0.189 HD
HETATM    9  C   UNL     1       7.796  24.233  53.454  1.00  0.00     0.092 A 
HETATM   10  C   UNL     1       7.225  25.245  54.277  1.00  0.00     0.071 A 
BRANCH   9  11
HETATM   11  C   UNL     1       8.136  22.865  53.849  1.00  0.00     0.028 A 
HETATM   12  C   UNL     1       8.798  22.539  55.045  1.00  0.00     0.080 A 
HETATM   13  C   UNL     1       9.144  21.210  55.324  1.00  0.00     0.037 A 
HETATM   14  C   UNL     1       8.798  20.188  54.443  1.00  0.00     0.003 A 
HETATM   15  C   UNL     1       8.118  20.490  53.268  1.00  0.00     0.001 A 
HETATM   16  C   UNL     1       7.795  21.817  52.971  1.00  0.00     0.017 A 
BRANCH  12  17
HETATM   17  O   UNL     1       9.194  23.444  55.997  1.00  0.00    -0.355 OA
HETATM   18  C   UNL     1       8.444  23.335  57.204  1.00  0.00     0.210 C 
ENDBRANCH  12  17
ENDBRANCH   9  11
ENDBRANCH   1   5
BRANCH   2  19
HETATM   19  C   UNL     1       5.569  29.199  55.353  1.00  0.00     0.217 C 
BRANCH  19  20
HETATM   20  C   UNL     1       6.388  29.759  56.504  1.00  0.00    -0.085 C 
BRANCH  20  21
HETATM   21  C   UNL     1       7.091  30.236  57.493  1.00  0.00    -0.078 C 
BRANCH  21  22
HETATM   22  C   UNL     1       7.911  30.795  58.643  1.00  0.00     0.269 C 
BRANCH  22  23
HETATM   23  O   UNL     1       7.355  32.037  59.063  1.00  0.00    -0.339 OA
BRANCH  23  24
HETATM   24  C   UNL     1       7.387  32.293  60.409  1.00  0.00     0.072 A 
HETATM   25  C   UNL     1       6.382  32.930  61.144  1.00  0.00     0.076 A 
HETATM   26  C   UNL     1       6.587  33.102  62.500  1.00  0.00     0.107 A 
HETATM   27  C   UNL     1       7.730  32.671  63.127  1.00  0.00     0.105 A 
HETATM   28  O   UNL     1       5.717  33.698  63.359  1.00  0.00    -0.323 OA
HETATM   29  O   UNL     1       7.725  32.940  64.459  1.00  0.00    -0.323 OA
HETATM   30  C   UNL     1       8.738  32.040  62.433  1.00  0.00     0.042 A 
HETATM   31  C   UNL     1       6.447  33.592  64.601  1.00  0.00     0.352 A 
HETATM   32  C   UNL     1       8.558  31.852  61.059  1.00  0.00     0.040 A 
ENDBRANCH  23  24
ENDBRANCH  22  23
ENDBRANCH  21  22
ENDBRANCH  20  21
ENDBRANCH  19  20
ENDBRANCH   2  19
TORSDOF 9
ENDMDL
MODEL 7
REMARK VINA RESULT:      -8.7      1.854      2.385
REMARK  9 active torsions:
REMARK  status: ('A' for Active; 'I' for Inactive)
REMARK    1  A    between atoms: O_2  and  C_3 
REMARK    2  A    between atoms: C_4  and  C_5 
REMARK    3  A    between atoms: C_9  and  C_10 
REMARK       I    between atoms: C_10  and  N_11 
REMARK    4  A    between atoms: N_11  and  C_12 
REMARK    5  A    between atoms: C_12  and  C_13 
REMARK    6  A    between atoms: C_13  and  C_14 
REMARK    7  A    between atoms: C_14  and  C_15 
REMARK    8  A    between atoms: C_15  and  O_16 
REMARK    9  A    between atoms: O_16  and  C_17 
ROOT
HETATM    1  C   UNL     1       9.107  29.274  57.249  1.00  0.00     0.270 C 
HETATM    2  N   UNL     1       9.119  29.735  55.959  1.00  0.00    -0.345 N 
HETATM    3  O   UNL     1       9.231  28.087  57.529  1.00  0.00    -0.266 OA
HETATM    4  H   UNL     1       9.093  30.727  55.777  1.00  0.00     0.163 HD
ENDROOT
BRANCH   1   5
HETATM    5  C   UNL     1       8.925  30.287  58.254  1.00  0.00     0.120 A 
HETATM    6  N   UNL     1       9.696  31.416  58.290  1.00  0.00    -0.272 N 
HETATM    7  N   UNL     1       9.419  32.242  59.308  1.00  0.00    -0.174 NA
HETATM    8  H   UNL     1      10.441  31.664  57.645  1.00  0.00     0.189 HD
HETATM    9  C   UNL     1       8.414  31.646  59.966  1.00  0.00     0.092 A 
HETATM   10  C   UNL     1       8.073  30.416  59.333  1.00  0.00     0.071 A 
BRANCH   9  11
HETATM   11  C   UNL     1       7.819  32.204  61.181  1.00  0.00     0.028 A 
HETATM   12  C   UNL     1       6.585  32.878  61.209  1.00  0.00     0.080 A 
HETATM   13  C   UNL     1       6.112  33.440  62.403  1.00  0.00     0.037 A 
HETATM   14  C   UNL     1       6.832  33.300  63.587  1.00  0.00     0.003 A 
HETATM   15  C   UNL     1       8.041  32.612  63.582  1.00  0.00     0.001 A 
HETATM   16  C   UNL     1       8.532  32.074  62.389  1.00  0.00     0.017 A 
BRANCH  12  17
HETATM   17  O   UNL     1       5.778  33.085  60.120  1.00  0.00    -0.355 OA
HETATM   18  C   UNL     1       4.535  32.394  60.219  1.00  0.00     0.210 C 
ENDBRANCH  12  17
ENDBRANCH   9  11
ENDBRANCH   1   5
BRANCH   2  19
HETATM   19  C   UNL     1       9.292  28.847  54.840  1.00  0.00     0.217 C 
BRANCH  19  20
HETATM   20  C   UNL     1       7.957  28.179  54.555  1.00  0.00    -0.085 C 
BRANCH  20  21
HETATM   21  C   UNL     1       6.812  27.604  54.311  1.00  0.00    -0.078 C 
BRANCH  21  22
HETATM   22  C   UNL     1       5.478  26.934  54.026  1.00  0.00     0.269 C 
BRANCH  22  23
HETATM   23  O   UNL     1       5.330  25.796  54.869  1.00  0.00    -0.339 OA
BRANCH  23  24
HETATM   24  C   UNL     1       6.226  24.777  54.677  1.00  0.00     0.072 A 
HETATM   25  C   UNL     1       6.928  24.105  55.683  1.00  0.00     0.076 A 
HETATM   26  C   UNL     1       7.793  23.097  55.301  1.00  0.00     0.107 A 
HETATM   27  C   UNL     1       7.974  22.749  53.985  1.00  0.00     0.105 A 
HETATM   28  O   UNL     1       8.549  22.346  56.146  1.00  0.00    -0.323 OA
HETATM   29  O   UNL     1       8.867  21.736  53.834  1.00  0.00    -0.323 OA
HETATM   30  C   UNL     1       7.299  23.389  52.970  1.00  0.00     0.042 A 
HETATM   31  C   UNL     1       9.229  21.484  55.208  1.00  0.00     0.352 A 
HETATM   32  C   UNL     1       6.417  24.415  53.328  1.00  0.00     0.040 A 
ENDBRANCH  23  24
ENDBRANCH  22  23
ENDBRANCH  21  22
ENDBRANCH  20  21
ENDBRANCH  19  20
ENDBRANCH   2  19
TORSDOF 9
ENDMDL
MODEL 8
REMARK VINA RESULT:      -8.7      3.359      9.918
REMARK  9 active torsions:
REMARK  status: ('A' for Active; 'I' for Inactive)
REMARK    1  A    between atoms: O_2  and  C_3 
REMARK    2  A    between atoms: C_4  and  C_5 
REMARK    3  A    between atoms: C_9  and  C_10 
REMARK       I    between atoms: C_10  and  N_11 
REMARK    4  A    between atoms: N_11  and  C_12 
REMARK    5  A    between atoms: C_12  and  C_13 
REMARK    6  A    between atoms: C_13  and  C_14 
REMARK    7  A    between atoms: C_14  and  C_15 
REMARK    8  A    between atoms: C_15  and  O_16 
REMARK    9  A    between atoms: O_16  and  C_17 
ROOT
HETATM    1  C   UNL     1       5.116  29.384  55.665  1.00  0.00     0.270 C 
HETATM    2  N   UNL     1       5.700  30.623  55.720  1.00  0.00    -0.345 N 
HETATM    3  O   UNL     1       3.954  29.184  56.003  1.00  0.00    -0.266 OA
HETATM    4  H   UNL     1       6.631  30.758  55.360  1.00  0.00     0.163 HD
ENDROOT
BRANCH   1   5
HETATM    5  C   UNL     1       5.973  28.330  55.193  1.00  0.00     0.120 A 
HETATM    6  N   UNL     1       7.143  28.590  54.536  1.00  0.00    -0.272 N 
HETATM    7  N   UNL     1       7.806  27.496  54.136  1.00  0.00    -0.174 NA
HETATM    8  H   UNL     1       7.529  29.505  54.321  1.00  0.00     0.189 HD
HETATM    9  C   UNL     1       7.055  26.469  54.558  1.00  0.00     0.092 A 
HETATM   10  C   UNL     1       5.896  26.951  55.230  1.00  0.00     0.071 A 
BRANCH   9  11
HETATM   11  C   UNL     1       7.405  25.071  54.299  1.00  0.00     0.028 A 
HETATM   12  C   UNL     1       7.644  24.125  55.311  1.00  0.00     0.080 A 
HETATM   13  C   UNL     1       8.035  22.820  54.981  1.00  0.00     0.037 A 
HETATM   14  C   UNL     1       8.148  22.428  53.650  1.00  0.00     0.003 A 
HETATM   15  C   UNL     1       7.888  23.344  52.636  1.00  0.00     0.001 A 
HETATM   16  C   UNL     1       7.525  24.655  52.958  1.00  0.00     0.017 A 
BRANCH  12  17
HETATM   17  O   UNL     1       7.566  24.377  56.656  1.00  0.00    -0.355 OA
HETATM   18  C   UNL     1       8.845  24.573  57.253  1.00  0.00     0.210 C 
ENDBRANCH  12  17
ENDBRANCH   9  11
ENDBRANCH   1   5
BRANCH   2  19
HETATM   19  C   UNL     1       4.974  31.781  56.171  1.00  0.00     0.217 C 
BRANCH  19  20
HETATM   20  C   UNL     1       5.359  32.050  57.616  1.00  0.00    -0.085 C 
BRANCH  20  21
HETATM   21  C   UNL     1       5.689  32.282  58.856  1.00  0.00    -0.078 C 
BRANCH  21  22
HETATM   22  C   UNL     1       6.075  32.554  60.300  1.00  0.00     0.269 C 
BRANCH  22  23
HETATM   23  O   UNL     1       7.026  31.584  60.727  1.00  0.00    -0.339 OA
BRANCH  23  24
HETATM   24  C   UNL     1       7.988  31.235  59.816  1.00  0.00     0.072 A 
HETATM   25  C   UNL     1       7.965  30.103  58.995  1.00  0.00     0.076 A 
HETATM   26  C   UNL     1       9.027  29.912  58.132  1.00  0.00     0.107 A 
HETATM   27  C   UNL     1      10.081  30.790  58.064  1.00  0.00     0.105 A 
HETATM   28  O   UNL     1       9.163  28.869  57.268  1.00  0.00    -0.323 OA
HETATM   29  O   UNL     1      11.014  30.412  57.151  1.00  0.00    -0.323 OA
HETATM   30  C   UNL     1      10.136  31.913  58.858  1.00  0.00     0.042 A 
HETATM   31  C   UNL     1      10.427  29.194  56.649  1.00  0.00     0.352 A 
HETATM   32  C   UNL     1       9.073  32.132  59.742  1.00  0.00     0.040 A 
ENDBRANCH  23  24
ENDBRANCH  22  23
ENDBRANCH  21  22
ENDBRANCH  20  21
ENDBRANCH  19  20
ENDBRANCH   2  19
TORSDOF 9
ENDMDL
MODEL 9
REMARK VINA RESULT:      -8.6      3.013     12.003
REMARK  9 active torsions:
REMARK  status: ('A' for Active; 'I' for Inactive)
REMARK    1  A    between atoms: O_2  and  C_3 
REMARK    2  A    between atoms: C_4  and  C_5 
REMARK    3  A    between atoms: C_9  and  C_10 
REMARK       I    between atoms: C_10  and  N_11 
REMARK    4  A    between atoms: N_11  and  C_12 
REMARK    5  A    between atoms: C_12  and  C_13 
REMARK    6  A    between atoms: C_13  and  C_14 
REMARK    7  A    between atoms: C_14  and  C_15 
REMARK    8  A    between atoms: C_15  and  O_16 
REMARK    9  A    between atoms: O_16  and  C_17 
ROOT
HETATM    1  C   UNL     1       9.494  29.872  56.904  1.00  0.00     0.270 C 
HETATM    2  N   UNL     1       9.180  30.347  58.150  1.00  0.00    -0.345 N 
HETATM    3  O   UNL     1      10.363  30.379  56.202  1.00  0.00    -0.266 OA
HETATM    4  H   UNL     1       8.514  29.854  58.724  1.00  0.00     0.163 HD
ENDROOT
BRANCH   1   5
HETATM    5  C   UNL     1       8.720  28.740  56.472  1.00  0.00     0.120 A 
HETATM    6  N   UNL     1       8.446  27.692  57.307  1.00  0.00    -0.272 N 
HETATM    7  N   UNL     1       7.740  26.704  56.739  1.00  0.00    -0.174 NA
HETATM    8  H   UNL     1       8.733  27.596  58.277  1.00  0.00     0.189 HD
HETATM    9  C   UNL     1       7.523  27.119  55.483  1.00  0.00     0.092 A 
HETATM   10  C   UNL     1       8.121  28.395  55.276  1.00  0.00     0.071 A 
BRANCH   9  11
HETATM   11  C   UNL     1       6.805  26.313  54.494  1.00  0.00     0.028 A 
HETATM   12  C   UNL     1       5.522  26.627  54.013  1.00  0.00     0.080 A 
HETATM   13  C   UNL     1       4.874  25.771  53.112  1.00  0.00     0.037 A 
HETATM   14  C   UNL     1       5.508  24.622  52.644  1.00  0.00     0.003 A 
HETATM   15  C   UNL     1       6.789  24.312  53.088  1.00  0.00     0.001 A 
HETATM   16  C   UNL     1       7.430  25.147  54.008  1.00  0.00     0.017 A 
BRANCH  12  17
HETATM   17  O   UNL     1       4.789  27.723  54.389  1.00  0.00    -0.355 OA
HETATM   18  C   UNL     1       3.841  28.116  53.399  1.00  0.00     0.210 C 
ENDBRANCH  12  17
ENDBRANCH   9  11
ENDBRANCH   1   5
BRANCH   2  19
HETATM   19  C   UNL     1       9.865  31.475  58.724  1.00  0.00     0.217 C 
BRANCH  19  20
HETATM   20  C   UNL     1       9.313  31.704  60.122  1.00  0.00    -0.085 C 
BRANCH  20  21
HETATM   21  C   UNL     1       8.839  31.902  61.320  1.00  0.00    -0.078 C 
BRANCH  21  22
HETATM   22  C   UNL     1       8.288  32.131  62.717  1.00  0.00     0.269 C 
BRANCH  22  23
HETATM   23  O   UNL     1       7.325  33.179  62.681  1.00  0.00    -0.339 OA
BRANCH  23  24
HETATM   24  C   UNL     1       6.673  33.446  63.857  1.00  0.00     0.072 A 
HETATM   25  C   UNL     1       7.282  33.690  65.092  1.00  0.00     0.076 A 
HETATM   26  C   UNL     1       6.462  33.943  66.175  1.00  0.00     0.107 A 
HETATM   27  C   UNL     1       5.093  33.960  66.067  1.00  0.00     0.105 A 
HETATM   28  O   UNL     1       6.886  34.200  67.442  1.00  0.00    -0.323 OA
HETATM   29  O   UNL     1       4.482  34.228  67.251  1.00  0.00    -0.323 OA
HETATM   30  C   UNL     1       4.461  33.724  64.867  1.00  0.00     0.042 A 
HETATM   31  C   UNL     1       5.624  34.379  68.119  1.00  0.00     0.352 A 
HETATM   32  C   UNL     1       5.267  33.464  63.753  1.00  0.00     0.040 A 
ENDBRANCH  23  24
ENDBRANCH  22  23
ENDBRANCH  21  22
ENDBRANCH  20  21
ENDBRANCH  19  20
ENDBRANCH   2  19
TORSDOF 9
ENDMDL
MODEL 10
REMARK VINA RESULT:      -8.5      2.686     12.357
REMARK  9 active torsions:
REMARK  status: ('A' for Active; 'I' for Inactive)
REMARK    1  A    between atoms: O_2  and  C_3 
REMARK    2  A    between atoms: C_4  and  C_5 
REMARK    3  A    between atoms: C_9  and  C_10 
REMARK       I    between atoms: C_10  and  N_11 
REMARK    4  A    between atoms: N_11  and  C_12 
REMARK    5  A    between atoms: C_12  and  C_13 
REMARK    6  A    between atoms: C_13  and  C_14 
REMARK    7  A    between atoms: C_14  and  C_15 
REMARK    8  A    between atoms: C_15  and  O_16 
REMARK    9  A    between atoms: O_16  and  C_17 
ROOT
HETATM    1  C   UNL     1       8.903  30.369  59.008  1.00  0.00     0.270 C 
HETATM    2  N   UNL     1       8.700  30.252  60.359  1.00  0.00    -0.345 N 
HETATM    3  O   UNL     1       9.659  31.204  58.523  1.00  0.00    -0.266 OA
HETATM    4  H   UNL     1       8.131  29.502  60.720  1.00  0.00     0.163 HD
ENDROOT
BRANCH   1   5
HETATM    5  C   UNL     1       8.153  29.447  58.199  1.00  0.00     0.120 A 
HETATM    6  N   UNL     1       6.790  29.513  58.105  1.00  0.00    -0.272 N 
HETATM    7  N   UNL     1       6.243  28.561  57.336  1.00  0.00    -0.174 NA
HETATM    8  H   UNL     1       6.180  30.184  58.563  1.00  0.00     0.189 HD
HETATM    9  C   UNL     1       7.285  27.846  56.887  1.00  0.00     0.092 A 
HETATM   10  C   UNL     1       8.502  28.373  57.405  1.00  0.00     0.071 A 
BRANCH   9  11
HETATM   11  C   UNL     1       7.130  26.673  56.025  1.00  0.00     0.028 A 
HETATM   12  C   UNL     1       7.116  26.732  54.621  1.00  0.00     0.080 A 
HETATM   13  C   UNL     1       6.900  25.570  53.866  1.00  0.00     0.037 A 
HETATM   14  C   UNL     1       6.743  24.336  54.492  1.00  0.00     0.003 A 
HETATM   15  C   UNL     1       6.782  24.256  55.880  1.00  0.00     0.001 A 
HETATM   16  C   UNL     1       6.969  25.415  56.640  1.00  0.00     0.017 A 
BRANCH  12  17
HETATM   17  O   UNL     1       7.260  27.877  53.881  1.00  0.00    -0.355 OA
HETATM   18  C   UNL     1       6.237  28.030  52.900  1.00  0.00     0.210 C 
ENDBRANCH  12  17
ENDBRANCH   9  11
ENDBRANCH   1   5
BRANCH   2  19
HETATM   19  C   UNL     1       9.378  31.102  61.302  1.00  0.00     0.217 C 
BRANCH  19  20
HETATM   20  C   UNL     1       8.359  32.066  61.888  1.00  0.00    -0.085 C 
BRANCH  20  21
HETATM   21  C   UNL     1       7.486  32.892  62.393  1.00  0.00    -0.078 C 
BRANCH  21  22
HETATM   22  C   UNL     1       6.468  33.856  62.979  1.00  0.00     0.269 C 
BRANCH  22  23
HETATM   23  O   UNL     1       5.637  33.163  63.904  1.00  0.00    -0.339 OA
BRANCH  23  24
HETATM   24  C   UNL     1       5.652  33.621  65.195  1.00  0.00     0.072 A 
HETATM   25  C   UNL     1       6.793  33.824  65.978  1.00  0.00     0.076 A 
HETATM   26  C   UNL     1       6.616  34.294  67.265  1.00  0.00     0.107 A 
HETATM   27  C   UNL     1       5.371  34.561  67.781  1.00  0.00     0.105 A 
HETATM   28  O   UNL     1       7.612  34.546  68.156  1.00  0.00    -0.323 OA
HETATM   29  O   UNL     1       5.426  35.013  69.061  1.00  0.00    -0.323 OA
HETATM   30  C   UNL     1       4.227  34.372  67.039  1.00  0.00     0.042 A 
HETATM   31  C   UNL     1       6.849  35.002  69.294  1.00  0.00     0.352 A 
HETATM   32  C   UNL     1       4.377  33.896  65.731  1.00  0.00     0.040 A 
ENDBRANCH  23  24
ENDBRANCH  22  23
ENDBRANCH  21  22
ENDBRANCH  20  21
ENDBRANCH  19  20
ENDBRANCH   2  19
TORSDOF 9
ENDMDL
