MODEL 1
REMARK VINA RESULT:      -9.9      0.000      0.000
REMARK  2 active torsions:
REMARK  status: ('A' for Active; 'I' for Inactive)
REMARK    1  A    between atoms: C_3  and  C_4 
REMARK    2  A    between atoms: C_11  and  C_12 
REMARK       I    between atoms: C_12  and  N_13 
ROOT
HETATM    1  C   UNL     1       8.477  30.544  58.164  1.00  0.00     0.256 C 
HETATM    2  N   UNL     1       7.833  29.522  57.453  1.00  0.00    -0.348 N 
HETATM    3  C   UNL     1       6.584  28.894  57.876  1.00  0.00     0.128 C 
HETATM    4  C   UNL     1       5.766  28.351  56.709  1.00  0.00     0.055 C 
HETATM    5  C   UNL     1       6.595  27.474  55.756  1.00  0.00     0.100 C 
HETATM    6  N   UNL     1       7.009  26.225  56.469  1.00  0.00    -0.273 NA
HETATM    7  C   UNL     1       7.526  25.237  55.590  1.00  0.00     0.036 A 
HETATM    8  C   UNL     1       7.071  25.118  54.265  1.00  0.00     0.056 A 
HETATM    9  N   UNL     1       6.150  26.047  53.768  1.00  0.00    -0.324 N 
HETATM   10  C   UNL     1       5.753  27.148  54.488  1.00  0.00     0.245 C 
HETATM   11  O   UNL     1       4.839  27.858  54.072  1.00  0.00    -0.271 OA
HETATM   12  C   UNL     1       8.378  24.255  56.102  1.00  0.00     0.026 A 
HETATM   13  C   UNL     1       8.821  23.211  55.287  1.00  0.00     0.002 A 
HETATM   14  C   UNL     1       8.383  23.119  53.965  1.00  0.00     0.002 A 
HETATM   15  C   UNL     1       7.495  24.067  53.453  1.00  0.00     0.031 A 
HETATM   16  C   UNL     1       7.840  28.270  55.316  1.00  0.00     0.055 C 
HETATM   17  C   UNL     1       8.646  28.762  56.510  1.00  0.00     0.128 C 
HETATM   18  O   UNL     1       9.609  30.930  57.878  1.00  0.00    -0.267 OA
HETATM   19  H   UNL     1       6.196  25.800  56.919  1.00  0.00     0.129 HD
HETATM   20  H   UNL     1       5.691  25.892  52.881  1.00  0.00     0.169 HD
ENDROOT
BRANCH   1  21
HETATM   21  C   UNL     1       7.737  31.213  59.237  1.00  0.00     0.062 A 
HETATM   22  C   UNL     1       8.025  31.133  60.649  1.00  0.00    -0.014 A 
HETATM   23  C   UNL     1       9.163  30.368  61.236  1.00  0.00     0.052 C 
HETATM   24  C   UNL     1       7.059  31.886  61.313  1.00  0.00     0.085 A 
HETATM   25  N   UNL     1       6.206  32.378  60.347  1.00  0.00    -0.356 N 
HETATM   26  H   UNL     1       5.397  32.945  60.569  1.00  0.00     0.166 HD
HETATM   27  C   UNL     1       6.570  31.950  59.100  1.00  0.00     0.022 A 
HETATM   28  C   UNL     1       5.746  32.284  57.910  1.00  0.00     0.069 C 
BRANCH  24  29
HETATM   29  C   UNL     1       6.813  32.199  62.712  1.00  0.00     0.172 C 
HETATM   30  C   UNL     1       7.935  32.745  63.555  1.00  0.00     0.098 C 
HETATM   31  O   UNL     1       5.704  32.015  63.216  1.00  0.00    -0.291 OA
ENDBRANCH  24  29
ENDBRANCH   1  21
TORSDOF 2
ENDMDL
MODEL 2
REMARK VINA RESULT:      -9.6      1.131      1.892
REMARK  2 active torsions:
REMARK  status: ('A' for Active; 'I' for Inactive)
REMARK    1  A    between atoms: C_3  and  C_4 
REMARK    2  A    between atoms: C_11  and  C_12 
REMARK       I    between atoms: C_12  and  N_13 
ROOT
HETATM    1  C   UNL     1       8.339  30.344  58.019  1.00  0.00     0.256 C 
HETATM    2  N   UNL     1       7.702  29.317  57.308  1.00  0.00    -0.348 N 
HETATM    3  C   UNL     1       6.476  28.656  57.748  1.00  0.00     0.128 C 
HETATM    4  C   UNL     1       5.647  28.110  56.590  1.00  0.00     0.055 C 
HETATM    5  C   UNL     1       6.475  27.263  55.610  1.00  0.00     0.100 C 
HETATM    6  N   UNL     1       6.930  26.015  56.299  1.00  0.00    -0.273 NA
HETATM    7  C   UNL     1       7.450  25.049  55.397  1.00  0.00     0.036 A 
HETATM    8  C   UNL     1       6.971  24.937  54.080  1.00  0.00     0.056 A 
HETATM    9  N   UNL     1       6.020  25.851  53.614  1.00  0.00    -0.324 N 
HETATM   10  C   UNL     1       5.614  26.934  54.356  1.00  0.00     0.245 C 
HETATM   11  O   UNL     1       4.677  27.630  53.966  1.00  0.00    -0.271 OA
HETATM   12  C   UNL     1       8.333  24.080  55.879  1.00  0.00     0.026 A 
HETATM   13  C   UNL     1       8.782  23.056  55.042  1.00  0.00     0.002 A 
HETATM   14  C   UNL     1       8.319  22.970  53.728  1.00  0.00     0.002 A 
HETATM   15  C   UNL     1       7.401  23.905  53.247  1.00  0.00     0.031 A 
HETATM   16  C   UNL     1       7.693  28.091  55.156  1.00  0.00     0.055 C 
HETATM   17  C   UNL     1       8.512  28.586  56.340  1.00  0.00     0.128 C 
HETATM   18  O   UNL     1       9.456  30.757  57.716  1.00  0.00    -0.267 OA
HETATM   19  H   UNL     1       6.135  25.567  56.759  1.00  0.00     0.129 HD
HETATM   20  H   UNL     1       5.547  25.698  52.734  1.00  0.00     0.169 HD
ENDROOT
BRANCH   1  21
HETATM   21  C   UNL     1       7.606  30.983  59.115  1.00  0.00     0.062 A 
HETATM   22  C   UNL     1       6.422  31.798  58.988  1.00  0.00    -0.014 A 
HETATM   23  C   UNL     1       5.734  32.091  57.698  1.00  0.00     0.052 C 
HETATM   24  C   UNL     1       6.078  32.231  60.266  1.00  0.00     0.085 A 
HETATM   25  N   UNL     1       7.027  31.723  61.127  1.00  0.00    -0.356 N 
HETATM   26  H   UNL     1       7.020  31.910  62.123  1.00  0.00     0.166 HD
HETATM   27  C   UNL     1       7.977  31.007  60.451  1.00  0.00     0.022 A 
HETATM   28  C   UNL     1       9.150  30.437  61.162  1.00  0.00     0.069 C 
BRANCH  24  29
HETATM   29  C   UNL     1       5.002  33.056  60.794  1.00  0.00     0.172 C 
HETATM   30  C   UNL     1       5.337  34.258  61.635  1.00  0.00     0.098 C 
HETATM   31  O   UNL     1       3.822  32.777  60.569  1.00  0.00    -0.291 OA
ENDBRANCH  24  29
ENDBRANCH   1  21
TORSDOF 2
ENDMDL
MODEL 3
REMARK VINA RESULT:      -9.3      5.144      7.354
REMARK  2 active torsions:
REMARK  status: ('A' for Active; 'I' for Inactive)
REMARK    1  A    between atoms: C_3  and  C_4 
REMARK    2  A    between atoms: C_11  and  C_12 
REMARK       I    between atoms: C_12  and  N_13 
ROOT
HETATM    1  C   UNL     1       4.277  27.543  52.905  1.00  0.00     0.256 C 
HETATM    2  N   UNL     1       5.334  26.825  53.481  1.00  0.00    -0.348 N 
HETATM    3  C   UNL     1       6.742  27.185  53.335  1.00  0.00     0.128 C 
HETATM    4  C   UNL     1       7.598  26.727  54.511  1.00  0.00     0.055 C 
HETATM    5  C   UNL     1       7.383  25.246  54.864  1.00  0.00     0.100 C 
HETATM    6  N   UNL     1       7.890  24.392  53.744  1.00  0.00    -0.273 NA
HETATM    7  C   UNL     1       7.995  23.023  54.103  1.00  0.00     0.036 A 
HETATM    8  C   UNL     1       8.292  22.626  55.419  1.00  0.00     0.056 A 
HETATM    9  N   UNL     1       8.401  23.596  56.421  1.00  0.00    -0.324 N 
HETATM   10  C   UNL     1       8.117  24.921  56.198  1.00  0.00     0.245 C 
HETATM   11  O   UNL     1       8.361  25.758  57.067  1.00  0.00    -0.271 OA
HETATM   12  C   UNL     1       7.974  22.056  53.095  1.00  0.00     0.026 A 
HETATM   13  C   UNL     1       8.179  20.710  53.405  1.00  0.00     0.002 A 
HETATM   14  C   UNL     1       8.446  20.325  54.720  1.00  0.00     0.002 A 
HETATM   15  C   UNL     1       8.516  21.285  55.729  1.00  0.00     0.031 A 
HETATM   16  C   UNL     1       5.875  25.007  55.073  1.00  0.00     0.055 C 
HETATM   17  C   UNL     1       5.062  25.444  53.862  1.00  0.00     0.128 C 
HETATM   18  O   UNL     1       3.122  27.120  52.899  1.00  0.00    -0.267 OA
HETATM   19  H   UNL     1       8.834  24.688  53.487  1.00  0.00     0.129 HD
HETATM   20  H   UNL     1       8.767  23.355  57.332  1.00  0.00     0.169 HD
ENDROOT
BRANCH   1  21
HETATM   21  C   UNL     1       4.561  28.872  52.356  1.00  0.00     0.062 A 
HETATM   22  C   UNL     1       5.070  29.158  51.036  1.00  0.00    -0.014 A 
HETATM   23  C   UNL     1       5.358  28.124  50.000  1.00  0.00     0.052 C 
HETATM   24  C   UNL     1       5.227  30.538  50.942  1.00  0.00     0.085 A 
HETATM   25  N   UNL     1       4.856  31.064  52.162  1.00  0.00    -0.356 N 
HETATM   26  H   UNL     1       4.898  32.055  52.367  1.00  0.00     0.166 HD
HETATM   27  C   UNL     1       4.494  30.077  53.038  1.00  0.00     0.022 A 
HETATM   28  C   UNL     1       4.138  30.400  54.444  1.00  0.00     0.069 C 
BRANCH  24  29
HETATM   29  C   UNL     1       5.683  31.430  49.888  1.00  0.00     0.172 C 
HETATM   30  C   UNL     1       4.698  32.356  49.226  1.00  0.00     0.098 C 
HETATM   31  O   UNL     1       6.861  31.430  49.524  1.00  0.00    -0.291 OA
ENDBRANCH  24  29
ENDBRANCH   1  21
TORSDOF 2
ENDMDL
MODEL 4
REMARK VINA RESULT:      -9.1      3.111      5.094
REMARK  2 active torsions:
REMARK  status: ('A' for Active; 'I' for Inactive)
REMARK    1  A    between atoms: C_3  and  C_4 
REMARK    2  A    between atoms: C_11  and  C_12 
REMARK       I    between atoms: C_12  and  N_13 
ROOT
HETATM    1  C   UNL     1       5.315  28.940  56.655  1.00  0.00     0.256 C 
HETATM    2  N   UNL     1       5.605  28.496  55.358  1.00  0.00    -0.348 N 
HETATM    3  C   UNL     1       6.880  28.723  54.682  1.00  0.00     0.128 C 
HETATM    4  C   UNL     1       7.206  27.649  53.649  1.00  0.00     0.055 C 
HETATM    5  C   UNL     1       6.043  27.383  52.679  1.00  0.00     0.100 C 
HETATM    6  N   UNL     1       5.823  28.594  51.828  1.00  0.00    -0.273 NA
HETATM    7  C   UNL     1       4.970  28.339  50.721  1.00  0.00     0.036 A 
HETATM    8  C   UNL     1       4.929  27.080  50.097  1.00  0.00     0.056 A 
HETATM    9  N   UNL     1       5.678  26.025  50.628  1.00  0.00    -0.324 N 
HETATM   10  C   UNL     1       6.370  26.134  51.810  1.00  0.00     0.245 C 
HETATM   11  O   UNL     1       7.126  25.231  52.166  1.00  0.00    -0.271 OA
HETATM   12  C   UNL     1       4.288  29.407  50.133  1.00  0.00     0.026 A 
HETATM   13  C   UNL     1       3.524  29.207  48.981  1.00  0.00     0.002 A 
HETATM   14  C   UNL     1       3.469  27.945  48.386  1.00  0.00     0.002 A 
HETATM   15  C   UNL     1       4.183  26.880  48.936  1.00  0.00     0.031 A 
HETATM   16  C   UNL     1       4.777  27.079  53.504  1.00  0.00     0.055 C 
HETATM   17  C   UNL     1       4.469  28.191  54.496  1.00  0.00     0.128 C 
HETATM   18  O   UNL     1       4.182  28.888  57.129  1.00  0.00    -0.267 OA
HETATM   19  H   UNL     1       6.713  28.901  51.430  1.00  0.00     0.129 HD
HETATM   20  H   UNL     1       5.789  25.162  50.112  1.00  0.00     0.169 HD
ENDROOT
BRANCH   1  21
HETATM   21  C   UNL     1       6.423  29.416  57.488  1.00  0.00     0.062 A 
HETATM   22  C   UNL     1       6.649  30.778  57.908  1.00  0.00    -0.014 A 
HETATM   23  C   UNL     1       5.752  31.923  57.578  1.00  0.00     0.052 C 
HETATM   24  C   UNL     1       7.827  30.793  58.650  1.00  0.00     0.085 A 
HETATM   25  N   UNL     1       8.309  29.501  58.657  1.00  0.00    -0.356 N 
HETATM   26  H   UNL     1       9.175  29.241  59.114  1.00  0.00     0.166 HD
HETATM   27  C   UNL     1       7.504  28.668  57.929  1.00  0.00     0.022 A 
HETATM   28  C   UNL     1       7.871  27.243  57.722  1.00  0.00     0.069 C 
BRANCH  24  29
HETATM   29  C   UNL     1       8.570  31.836  59.340  1.00  0.00     0.172 C 
HETATM   30  C   UNL     1       8.041  32.384  60.639  1.00  0.00     0.098 C 
HETATM   31  O   UNL     1       9.618  32.283  58.870  1.00  0.00    -0.291 OA
ENDBRANCH  24  29
ENDBRANCH   1  21
TORSDOF 2
ENDMDL
MODEL 5
REMARK VINA RESULT:      -9.0      4.998      6.517
REMARK  2 active torsions:
REMARK  status: ('A' for Active; 'I' for Inactive)
REMARK    1  A    between atoms: C_3  and  C_4 
REMARK    2  A    between atoms: C_11  and  C_12 
REMARK       I    between atoms: C_12  and  N_13 
ROOT
HETATM    1  C   UNL     1       4.083  28.418  52.961  1.00  0.00     0.256 C 
HETATM    2  N   UNL     1       5.127  27.672  53.526  1.00  0.00    -0.348 N 
HETATM    3  C   UNL     1       6.533  28.064  53.474  1.00  0.00     0.128 C 
HETATM    4  C   UNL     1       7.345  27.525  54.648  1.00  0.00     0.055 C 
HETATM    5  C   UNL     1       7.142  26.017  54.872  1.00  0.00     0.100 C 
HETATM    6  N   UNL     1       7.713  25.264  53.712  1.00  0.00    -0.273 NA
HETATM    7  C   UNL     1       7.829  23.872  53.965  1.00  0.00     0.036 A 
HETATM    8  C   UNL     1       8.074  23.375  55.257  1.00  0.00     0.056 A 
HETATM    9  N   UNL     1       8.120  24.262  56.337  1.00  0.00    -0.324 N 
HETATM   10  C   UNL     1       7.821  25.597  56.208  1.00  0.00     0.245 C 
HETATM   11  O   UNL     1       8.011  26.364  57.151  1.00  0.00    -0.271 OA
HETATM   12  C   UNL     1       7.871  22.990  52.882  1.00  0.00     0.026 A 
HETATM   13  C   UNL     1       8.087  21.626  53.092  1.00  0.00     0.002 A 
HETATM   14  C   UNL     1       8.302  21.140  54.383  1.00  0.00     0.002 A 
HETATM   15  C   UNL     1       8.309  22.017  55.469  1.00  0.00     0.031 A 
HETATM   16  C   UNL     1       5.631  25.739  54.991  1.00  0.00     0.055 C 
HETATM   17  C   UNL     1       4.864  26.260  53.783  1.00  0.00     0.128 C 
HETATM   18  O   UNL     1       2.939  27.979  52.869  1.00  0.00    -0.267 OA
HETATM   19  H   UNL     1       8.662  25.593  53.523  1.00  0.00     0.129 HD
HETATM   20  H   UNL     1       8.449  23.954  57.242  1.00  0.00     0.169 HD
ENDROOT
BRANCH   1  21
HETATM   21  C   UNL     1       4.367  29.790  52.534  1.00  0.00     0.062 A 
HETATM   22  C   UNL     1       3.994  30.995  53.236  1.00  0.00    -0.014 A 
HETATM   23  C   UNL     1       3.278  31.023  54.544  1.00  0.00     0.052 C 
HETATM   24  C   UNL     1       4.425  32.073  52.466  1.00  0.00     0.085 A 
HETATM   25  N   UNL     1       5.009  31.545  51.335  1.00  0.00    -0.356 N 
HETATM   26  H   UNL     1       5.389  32.122  50.593  1.00  0.00     0.166 HD
HETATM   27  C   UNL     1       4.946  30.178  51.336  1.00  0.00     0.022 A 
HETATM   28  C   UNL     1       5.435  29.392  50.174  1.00  0.00     0.069 C 
BRANCH  24  29
HETATM   29  C   UNL     1       4.359  33.517  52.630  1.00  0.00     0.172 C 
HETATM   30  C   UNL     1       5.629  34.295  52.846  1.00  0.00     0.098 C 
HETATM   31  O   UNL     1       3.277  34.108  52.604  1.00  0.00    -0.291 OA
ENDBRANCH  24  29
ENDBRANCH   1  21
TORSDOF 2
ENDMDL
MODEL 6
REMARK VINA RESULT:      -9.0      5.311      8.850
REMARK  2 active torsions:
REMARK  status: ('A' for Active; 'I' for Inactive)
REMARK    1  A    between atoms: C_3  and  C_4 
REMARK    2  A    between atoms: C_11  and  C_12 
REMARK       I    between atoms: C_12  and  N_13 
ROOT
HETATM    1  C   UNL     1       5.265  28.557  51.206  1.00  0.00     0.256 C 
HETATM    2  N   UNL     1       5.570  27.427  51.978  1.00  0.00    -0.348 N 
HETATM    3  C   UNL     1       4.591  26.415  52.369  1.00  0.00     0.128 C 
HETATM    4  C   UNL     1       5.213  25.039  52.586  1.00  0.00     0.055 C 
HETATM    5  C   UNL     1       6.445  25.080  53.506  1.00  0.00     0.100 C 
HETATM    6  N   UNL     1       6.018  25.464  54.888  1.00  0.00    -0.273 NA
HETATM    7  C   UNL     1       7.034  25.248  55.855  1.00  0.00     0.036 A 
HETATM    8  C   UNL     1       7.971  24.208  55.721  1.00  0.00     0.056 A 
HETATM    9  N   UNL     1       7.961  23.419  54.567  1.00  0.00    -0.324 N 
HETATM   10  C   UNL     1       7.143  23.689  53.496  1.00  0.00     0.245 C 
HETATM   11  O   UNL     1       7.067  22.891  52.563  1.00  0.00    -0.271 OA
HETATM   12  C   UNL     1       6.996  25.973  57.049  1.00  0.00     0.026 A 
HETATM   13  C   UNL     1       7.920  25.710  58.063  1.00  0.00     0.002 A 
HETATM   14  C   UNL     1       8.863  24.693  57.907  1.00  0.00     0.002 A 
HETATM   15  C   UNL     1       8.882  23.930  56.739  1.00  0.00     0.031 A 
HETATM   16  C   UNL     1       7.436  26.121  52.949  1.00  0.00     0.055 C 
HETATM   17  C   UNL     1       6.785  27.487  52.781  1.00  0.00     0.128 C 
HETATM   18  O   UNL     1       6.065  29.475  51.041  1.00  0.00    -0.267 OA
HETATM   19  H   UNL     1       5.228  24.883  55.177  1.00  0.00     0.129 HD
HETATM   20  H   UNL     1       8.514  22.574  54.516  1.00  0.00     0.169 HD
ENDROOT
BRANCH   1  21
HETATM   21  C   UNL     1       3.969  28.598  50.522  1.00  0.00     0.062 A 
HETATM   22  C   UNL     1       3.608  27.858  49.337  1.00  0.00    -0.014 A 
HETATM   23  C   UNL     1       4.507  26.898  48.634  1.00  0.00     0.052 C 
HETATM   24  C   UNL     1       2.304  28.218  49.006  1.00  0.00     0.085 A 
HETATM   25  N   UNL     1       1.901  29.155  49.934  1.00  0.00    -0.356 N 
HETATM   26  H   UNL     1       0.991  29.599  49.906  1.00  0.00     0.166 HD
HETATM   27  C   UNL     1       2.901  29.428  50.827  1.00  0.00     0.022 A 
HETATM   28  C   UNL     1       2.728  30.473  51.869  1.00  0.00     0.069 C 
BRANCH  24  29
HETATM   29  C   UNL     1       1.389  27.823  47.946  1.00  0.00     0.172 C 
HETATM   30  C   UNL     1       1.256  28.690  46.722  1.00  0.00     0.098 C 
HETATM   31  O   UNL     1       0.715  26.795  48.042  1.00  0.00    -0.291 OA
ENDBRANCH  24  29
ENDBRANCH   1  21
TORSDOF 2
ENDMDL
MODEL 7
REMARK VINA RESULT:      -8.8      5.913      8.334
REMARK  2 active torsions:
REMARK  status: ('A' for Active; 'I' for Inactive)
REMARK    1  A    between atoms: C_3  and  C_4 
REMARK    2  A    between atoms: C_11  and  C_12 
REMARK       I    between atoms: C_12  and  N_13 
ROOT
HETATM    1  C   UNL     1       4.423  27.009  50.118  1.00  0.00     0.256 C 
HETATM    2  N   UNL     1       5.089  26.566  51.270  1.00  0.00    -0.348 N 
HETATM    3  C   UNL     1       6.206  27.274  51.891  1.00  0.00     0.128 C 
HETATM    4  C   UNL     1       6.313  27.016  53.390  1.00  0.00     0.055 C 
HETATM    5  C   UNL     1       6.270  25.520  53.743  1.00  0.00     0.100 C 
HETATM    6  N   UNL     1       7.499  24.851  53.212  1.00  0.00    -0.273 NA
HETATM    7  C   UNL     1       7.681  23.543  53.734  1.00  0.00     0.036 A 
HETATM    8  C   UNL     1       7.252  23.200  55.028  1.00  0.00     0.056 A 
HETATM    9  N   UNL     1       6.552  24.139  55.792  1.00  0.00    -0.324 N 
HETATM   10  C   UNL     1       6.160  25.356  55.287  1.00  0.00     0.245 C 
HETATM   11  O   UNL     1       5.672  26.203  56.033  1.00  0.00    -0.271 OA
HETATM   12  C   UNL     1       8.454  22.629  53.014  1.00  0.00     0.026 A 
HETATM   13  C   UNL     1       8.738  21.371  53.548  1.00  0.00     0.002 A 
HETATM   14  C   UNL     1       8.284  21.031  54.824  1.00  0.00     0.002 A 
HETATM   15  C   UNL     1       7.550  21.952  55.573  1.00  0.00     0.031 A 
HETATM   16  C   UNL     1       5.012  24.902  53.102  1.00  0.00     0.055 C 
HETATM   17  C   UNL     1       4.962  25.152  51.601  1.00  0.00     0.128 C 
HETATM   18  O   UNL     1       3.608  26.309  49.521  1.00  0.00    -0.267 OA
HETATM   19  H   UNL     1       8.326  25.381  53.491  1.00  0.00     0.129 HD
HETATM   20  H   UNL     1       6.374  23.974  56.774  1.00  0.00     0.169 HD
ENDROOT
BRANCH   1  21
HETATM   21  C   UNL     1       4.666  28.380  49.663  1.00  0.00     0.062 A 
HETATM   22  C   UNL     1       4.260  29.588  50.340  1.00  0.00    -0.014 A 
HETATM   23  C   UNL     1       3.545  29.622  51.649  1.00  0.00     0.052 C 
HETATM   24  C   UNL     1       4.658  30.662  49.548  1.00  0.00     0.085 A 
HETATM   25  N   UNL     1       5.257  30.128  48.426  1.00  0.00    -0.356 N 
HETATM   26  H   UNL     1       5.618  30.700  47.673  1.00  0.00     0.166 HD
HETATM   27  C   UNL     1       5.233  28.760  48.455  1.00  0.00     0.022 A 
HETATM   28  C   UNL     1       5.743  27.965  47.309  1.00  0.00     0.069 C 
BRANCH  24  29
HETATM   29  C   UNL     1       4.551  32.106  49.682  1.00  0.00     0.172 C 
HETATM   30  C   UNL     1       5.465  32.830  50.635  1.00  0.00     0.098 C 
HETATM   31  O   UNL     1       3.716  32.741  49.035  1.00  0.00    -0.291 OA
ENDBRANCH  24  29
ENDBRANCH   1  21
TORSDOF 2
ENDMDL
MODEL 8
REMARK VINA RESULT:      -8.6      5.675      9.557
REMARK  2 active torsions:
REMARK  status: ('A' for Active; 'I' for Inactive)
REMARK    1  A    between atoms: C_3  and  C_4 
REMARK    2  A    between atoms: C_11  and  C_12 
REMARK       I    between atoms: C_12  and  N_13 
ROOT
HETATM    1  C   UNL     1       4.895  27.674  53.012  1.00  0.00     0.256 C 
HETATM    2  N   UNL     1       4.601  27.780  51.646  1.00  0.00    -0.348 N 
HETATM    3  C   UNL     1       5.395  27.161  50.588  1.00  0.00     0.128 C 
HETATM    4  C   UNL     1       4.579  26.842  49.340  1.00  0.00     0.055 C 
HETATM    5  C   UNL     1       3.743  28.037  48.852  1.00  0.00     0.100 C 
HETATM    6  N   UNL     1       4.659  29.117  48.370  1.00  0.00    -0.273 NA
HETATM    7  C   UNL     1       3.980  30.129  47.643  1.00  0.00     0.036 A 
HETATM    8  C   UNL     1       2.837  29.844  46.874  1.00  0.00     0.056 A 
HETATM    9  N   UNL     1       2.303  28.552  46.891  1.00  0.00    -0.324 N 
HETATM   10  C   UNL     1       2.780  27.567  47.722  1.00  0.00     0.245 C 
HETATM   11  O   UNL     1       2.375  26.412  47.604  1.00  0.00    -0.271 OA
HETATM   12  C   UNL     1       4.556  31.399  47.550  1.00  0.00     0.026 A 
HETATM   13  C   UNL     1       3.965  32.385  46.758  1.00  0.00     0.002 A 
HETATM   14  C   UNL     1       2.816  32.098  46.020  1.00  0.00     0.002 A 
HETATM   15  C   UNL     1       2.256  30.820  46.066  1.00  0.00     0.031 A 
HETATM   16  C   UNL     1       2.891  28.551  50.029  1.00  0.00     0.055 C 
HETATM   17  C   UNL     1       3.748  28.891  51.240  1.00  0.00     0.128 C 
HETATM   18  O   UNL     1       4.315  28.345  53.863  1.00  0.00    -0.267 OA
HETATM   19  H   UNL     1       5.346  28.722  47.724  1.00  0.00     0.129 HD
HETATM   20  H   UNL     1       1.586  28.283  46.231  1.00  0.00     0.169 HD
ENDROOT
BRANCH   1  21
HETATM   21  C   UNL     1       5.883  26.675  53.431  1.00  0.00     0.062 A 
HETATM   22  C   UNL     1       5.698  25.244  53.436  1.00  0.00    -0.014 A 
HETATM   23  C   UNL     1       4.460  24.552  52.974  1.00  0.00     0.052 C 
HETATM   24  C   UNL     1       6.866  24.677  53.939  1.00  0.00     0.085 A 
HETATM   25  N   UNL     1       7.712  25.720  54.252  1.00  0.00    -0.356 N 
HETATM   26  H   UNL     1       8.628  25.579  54.660  1.00  0.00     0.166 HD
HETATM   27  C   UNL     1       7.124  26.929  53.995  1.00  0.00     0.022 A 
HETATM   28  C   UNL     1       7.814  28.199  54.336  1.00  0.00     0.069 C 
BRANCH  24  29
HETATM   29  C   UNL     1       7.298  23.309  54.180  1.00  0.00     0.172 C 
HETATM   30  C   UNL     1       7.857  22.499  53.041  1.00  0.00     0.098 C 
HETATM   31  O   UNL     1       7.203  22.803  55.300  1.00  0.00    -0.291 OA
ENDBRANCH  24  29
ENDBRANCH   1  21
TORSDOF 2
ENDMDL
MODEL 9
REMARK VINA RESULT:      -8.4      2.440      8.261
REMARK  2 active torsions:
REMARK  status: ('A' for Active; 'I' for Inactive)
REMARK    1  A    between atoms: C_3  and  C_4 
REMARK    2  A    between atoms: C_11  and  C_12 
REMARK       I    between atoms: C_12  and  N_13 
ROOT
HETATM    1  C   UNL     1       7.659  26.108  54.431  1.00  0.00     0.256 C 
HETATM    2  N   UNL     1       7.343  27.027  55.442  1.00  0.00    -0.348 N 
HETATM    3  C   UNL     1       6.730  26.661  56.717  1.00  0.00     0.128 C 
HETATM    4  C   UNL     1       7.086  27.623  57.846  1.00  0.00     0.055 C 
HETATM    5  C   UNL     1       6.865  29.097  57.466  1.00  0.00     0.100 C 
HETATM    6  N   UNL     1       5.401  29.345  57.280  1.00  0.00    -0.273 NA
HETATM    7  C   UNL     1       5.084  30.727  57.212  1.00  0.00     0.036 A 
HETATM    8  C   UNL     1       5.831  31.691  57.913  1.00  0.00     0.056 A 
HETATM    9  N   UNL     1       6.967  31.294  58.626  1.00  0.00    -0.324 N 
HETATM   10  C   UNL     1       7.456  30.011  58.578  1.00  0.00     0.245 C 
HETATM   11  O   UNL     1       8.371  29.673  59.328  1.00  0.00    -0.271 OA
HETATM   12  C   UNL     1       3.903  31.120  56.576  1.00  0.00     0.026 A 
HETATM   13  C   UNL     1       3.511  32.460  56.582  1.00  0.00     0.002 A 
HETATM   14  C   UNL     1       4.276  33.412  57.259  1.00  0.00     0.002 A 
HETATM   15  C   UNL     1       5.433  33.027  57.937  1.00  0.00     0.031 A 
HETATM   16  C   UNL     1       7.622  29.382  56.154  1.00  0.00     0.055 C 
HETATM   17  C   UNL     1       7.211  28.424  55.045  1.00  0.00     0.128 C 
HETATM   18  O   UNL     1       8.010  26.463  53.308  1.00  0.00    -0.267 OA
HETATM   19  H   UNL     1       4.886  28.979  58.083  1.00  0.00     0.129 HD
HETATM   20  H   UNL     1       7.425  31.934  59.260  1.00  0.00     0.169 HD
ENDROOT
BRANCH   1  21
HETATM   21  C   UNL     1       7.631  24.681  54.761  1.00  0.00     0.062 A 
HETATM   22  C   UNL     1       8.389  24.032  55.804  1.00  0.00    -0.014 A 
HETATM   23  C   UNL     1       9.307  24.739  56.744  1.00  0.00     0.052 C 
HETATM   24  C   UNL     1       8.093  22.673  55.748  1.00  0.00     0.085 A 
HETATM   25  N   UNL     1       7.215  22.500  54.699  1.00  0.00    -0.356 N 
HETATM   26  H   UNL     1       6.857  21.592  54.427  1.00  0.00     0.166 HD
HETATM   27  C   UNL     1       6.959  23.686  54.066  1.00  0.00     0.022 A 
HETATM   28  C   UNL     1       6.107  23.733  52.850  1.00  0.00     0.069 C 
BRANCH  24  29
HETATM   29  C   UNL     1       8.518  21.517  56.522  1.00  0.00     0.172 C 
HETATM   30  C   UNL     1       9.186  20.364  55.821  1.00  0.00     0.098 C 
HETATM   31  O   UNL     1       8.330  21.465  57.739  1.00  0.00    -0.291 OA
ENDBRANCH  24  29
ENDBRANCH   1  21
TORSDOF 2
ENDMDL
MODEL 10
REMARK VINA RESULT:      -8.3      5.621      8.262
REMARK  2 active torsions:
REMARK  status: ('A' for Active; 'I' for Inactive)
REMARK    1  A    between atoms: C_3  and  C_4 
REMARK    2  A    between atoms: C_11  and  C_12 
REMARK       I    between atoms: C_12  and  N_13 
ROOT
HETATM    1  C   UNL     1       4.215  27.749  50.496  1.00  0.00     0.256 C 
HETATM    2  N   UNL     1       4.877  27.232  51.618  1.00  0.00    -0.348 N 
HETATM    3  C   UNL     1       5.937  27.934  52.338  1.00  0.00     0.128 C 
HETATM    4  C   UNL     1       6.022  27.536  53.808  1.00  0.00     0.055 C 
HETATM    5  C   UNL     1       6.055  26.013  54.013  1.00  0.00     0.100 C 
HETATM    6  N   UNL     1       7.332  25.467  53.456  1.00  0.00    -0.273 NA
HETATM    7  C   UNL     1       7.575  24.126  53.855  1.00  0.00     0.036 A 
HETATM    8  C   UNL     1       7.135  23.634  55.096  1.00  0.00     0.056 A 
HETATM    9  N   UNL     1       6.365  24.455  55.927  1.00  0.00    -0.324 N 
HETATM   10  C   UNL     1       5.917  25.692  55.530  1.00  0.00     0.245 C 
HETATM   11  O   UNL     1       5.364  26.435  56.340  1.00  0.00    -0.271 OA
HETATM   12  C   UNL     1       8.417  23.330  53.073  1.00  0.00     0.026 A 
HETATM   13  C   UNL     1       8.758  22.042  53.491  1.00  0.00     0.002 A 
HETATM   14  C   UNL     1       8.293  21.555  54.714  1.00  0.00     0.002 A 
HETATM   15  C   UNL     1       7.490  22.356  55.527  1.00  0.00     0.031 A 
HETATM   16  C   UNL     1       4.850  25.394  53.278  1.00  0.00     0.055 C 
HETATM   17  C   UNL     1       4.823  25.787  51.807  1.00  0.00     0.128 C 
HETATM   18  O   UNL     1       3.456  27.068  49.810  1.00  0.00    -0.267 OA
HETATM   19  H   UNL     1       8.122  26.011  53.810  1.00  0.00     0.129 HD
HETATM   20  H   UNL     1       6.173  24.185  56.882  1.00  0.00     0.169 HD
ENDROOT
BRANCH   1  21
HETATM   21  C   UNL     1       4.392  29.169  50.183  1.00  0.00     0.062 A 
HETATM   22  C   UNL     1       5.107  29.710  49.052  1.00  0.00    -0.014 A 
HETATM   23  C   UNL     1       5.761  28.887  47.994  1.00  0.00     0.052 C 
HETATM   24  C   UNL     1       5.060  31.098  49.157  1.00  0.00     0.085 A 
HETATM   25  N   UNL     1       4.369  31.386  50.315  1.00  0.00    -0.356 N 
HETATM   26  H   UNL     1       4.211  32.333  50.639  1.00  0.00     0.166 HD
HETATM   27  C   UNL     1       3.997  30.242  50.968  1.00  0.00     0.022 A 
HETATM   28  C   UNL     1       3.315  30.305  52.286  1.00  0.00     0.069 C 
BRANCH  24  29
HETATM   29  C   UNL     1       5.575  32.188  48.342  1.00  0.00     0.172 C 
HETATM   30  C   UNL     1       6.446  33.238  48.977  1.00  0.00     0.098 C 
HETATM   31  O   UNL     1       5.298  32.267  47.144  1.00  0.00    -0.291 OA
ENDBRANCH  24  29
ENDBRANCH   1  21
TORSDOF 2
ENDMDL
