MODEL 1
REMARK VINA RESULT:      -8.6      0.000      0.000
REMARK  3 active torsions:
REMARK  status: ('A' for Active; 'I' for Inactive)
REMARK    1  A    between atoms: N_6  and  C_7 
REMARK    2  A    between atoms: C_7  and  C_8 
REMARK    3  A    between atoms: N_10  and  C_11 
ROOT
HETATM    1  C   UNL     1       7.924  22.710  54.931  1.00  0.00     0.073 A 
HETATM    2  C   UNL     1       7.953  21.322  55.205  1.00  0.00     0.062 A 
HETATM    3 CL   UNL     1       7.673  20.666  56.784  1.00  0.00    -0.082 Cl
HETATM    4  C   UNL     1       8.137  20.376  54.185  1.00  0.00     0.026 A 
HETATM    5  C   UNL     1       8.282  20.778  52.861  1.00  0.00     0.003 A 
HETATM    6  C   UNL     1       8.228  22.130  52.548  1.00  0.00     0.025 A 
HETATM    7  C   UNL     1       8.046  23.087  53.563  1.00  0.00     0.072 A 
HETATM    8  C   UNL     1       7.983  24.470  53.159  1.00  0.00     0.102 C 
HETATM    9  N   UNL     1       7.862  25.578  52.824  1.00  0.00    -0.191 NA
ENDROOT
BRANCH   1  10
HETATM   10  N   UNL     1       7.798  23.710  55.900  1.00  0.00    -0.378 N 
HETATM   11  C   UNL     1       6.477  24.315  56.085  1.00  0.00     0.129 C 
HETATM   12  C   UNL     1       6.720  25.812  56.348  1.00  0.00     0.032 C 
HETATM   13  C   UNL     1       7.551  25.972  57.633  1.00  0.00     0.009 C 
HETATM   14  C   UNL     1       8.867  25.190  57.518  1.00  0.00     0.020 C 
HETATM   15  C   UNL     1       8.646  23.731  57.098  1.00  0.00     0.123 C 
BRANCH  12  16
HETATM   16  C   UNL     1       5.394  26.590  56.358  1.00  0.00     0.278 C 
BRANCH  16  17
HETATM   17  N   UNL     1       5.251  27.617  55.301  1.00  0.00     0.092 N 
HETATM   18  C   UNL     1       6.515  28.365  55.114  1.00  0.00     0.300 C 
HETATM   19  C   UNL     1       6.836  29.400  56.219  1.00  0.00     0.264 C 
HETATM   20  N   UNL     1       5.655  30.331  56.442  1.00  0.00    -0.072 N 
HETATM   21  C   UNL     1       5.915  31.330  57.528  1.00  0.00     0.269 C 
HETATM   22  H   UNL     1       5.519  30.852  55.568  1.00  0.00     0.279 HD
HETATM   23  C   UNL     1       4.366  29.554  56.686  1.00  0.00     0.264 C 
HETATM   24  C   UNL     1       4.141  28.570  55.522  1.00  0.00     0.300 C 
ENDBRANCH  16  17
ENDBRANCH  12  16
ENDBRANCH   1  10
TORSDOF 3
ENDMDL
MODEL 2
REMARK VINA RESULT:      -8.4      1.001      1.954
REMARK  3 active torsions:
REMARK  status: ('A' for Active; 'I' for Inactive)
REMARK    1  A    between atoms: N_6  and  C_7 
REMARK    2  A    between atoms: C_7  and  C_8 
REMARK    3  A    between atoms: N_10  and  C_11 
ROOT
HETATM    1  C   UNL     1       7.952  22.638  54.903  1.00  0.00     0.073 A 
HETATM    2  C   UNL     1       7.983  21.259  55.218  1.00  0.00     0.062 A 
HETATM    3 CL   UNL     1       7.686  20.648  56.812  1.00  0.00    -0.082 Cl
HETATM    4  C   UNL     1       8.182  20.285  54.228  1.00  0.00     0.026 A 
HETATM    5  C   UNL     1       8.342  20.648  52.895  1.00  0.00     0.003 A 
HETATM    6  C   UNL     1       8.287  21.991  52.542  1.00  0.00     0.025 A 
HETATM    7  C   UNL     1       8.090  22.976  53.526  1.00  0.00     0.072 A 
HETATM    8  C   UNL     1       8.027  24.346  53.081  1.00  0.00     0.102 C 
HETATM    9  N   UNL     1       7.906  25.443  52.713  1.00  0.00    -0.191 NA
ENDROOT
BRANCH   1  10
HETATM   10  N   UNL     1       7.811  23.665  55.841  1.00  0.00    -0.378 N 
HETATM   11  C   UNL     1       6.488  24.275  55.988  1.00  0.00     0.129 C 
HETATM   12  C   UNL     1       6.726  25.779  56.211  1.00  0.00     0.032 C 
HETATM   13  C   UNL     1       7.537  25.976  57.504  1.00  0.00     0.009 C 
HETATM   14  C   UNL     1       8.856  25.192  57.433  1.00  0.00     0.020 C 
HETATM   15  C   UNL     1       8.641  23.721  57.052  1.00  0.00     0.123 C 
BRANCH  12  16
HETATM   16  C   UNL     1       5.401  26.557  56.178  1.00  0.00     0.278 C 
BRANCH  16  17
HETATM   17  N   UNL     1       5.529  28.032  56.184  1.00  0.00     0.092 N 
HETATM   18  C   UNL     1       4.286  28.674  55.702  1.00  0.00     0.300 C 
HETATM   19  C   UNL     1       4.056  28.596  54.173  1.00  0.00     0.264 C 
HETATM   20  N   UNL     1       5.278  29.096  53.420  1.00  0.00    -0.072 N 
HETATM   21  C   UNL     1       5.108  29.009  51.935  1.00  0.00     0.269 C 
HETATM   22  H   UNL     1       5.391  30.089  53.661  1.00  0.00     0.279 HD
HETATM   23  C   UNL     1       6.549  28.393  53.885  1.00  0.00     0.264 C 
HETATM   24  C   UNL     1       6.682  28.547  55.413  1.00  0.00     0.300 C 
ENDBRANCH  16  17
ENDBRANCH  12  16
ENDBRANCH   1  10
TORSDOF 3
ENDMDL
MODEL 3
REMARK VINA RESULT:      -7.9      2.020      2.676
REMARK  3 active torsions:
REMARK  status: ('A' for Active; 'I' for Inactive)
REMARK    1  A    between atoms: N_6  and  C_7 
REMARK    2  A    between atoms: C_7  and  C_8 
REMARK    3  A    between atoms: N_10  and  C_11 
ROOT
HETATM    1  C   UNL     1       7.437  23.453  54.941  1.00  0.00     0.073 A 
HETATM    2  C   UNL     1       8.122  22.384  55.566  1.00  0.00     0.062 A 
HETATM    3 CL   UNL     1       8.229  22.209  57.286  1.00  0.00    -0.082 Cl
HETATM    4  C   UNL     1       8.698  21.345  54.818  1.00  0.00     0.026 A 
HETATM    5  C   UNL     1       8.599  21.328  53.431  1.00  0.00     0.003 A 
HETATM    6  C   UNL     1       7.907  22.345  52.784  1.00  0.00     0.025 A 
HETATM    7  C   UNL     1       7.327  23.391  53.522  1.00  0.00     0.072 A 
HETATM    8  C   UNL     1       6.611  24.400  52.782  1.00  0.00     0.102 C 
HETATM    9  N   UNL     1       5.974  25.174  52.191  1.00  0.00    -0.191 NA
ENDROOT
BRANCH   1  10
HETATM   10  N   UNL     1       6.885  24.546  55.616  1.00  0.00    -0.378 N 
HETATM   11  C   UNL     1       7.693  25.764  55.713  1.00  0.00     0.129 C 
HETATM   12  C   UNL     1       7.437  26.343  57.115  1.00  0.00     0.032 C 
HETATM   13  C   UNL     1       5.946  26.695  57.253  1.00  0.00     0.009 C 
HETATM   14  C   UNL     1       5.077  25.459  56.978  1.00  0.00     0.020 C 
HETATM   15  C   UNL     1       5.435  24.777  55.650  1.00  0.00     0.123 C 
BRANCH  12  16
HETATM   16  C   UNL     1       8.387  27.515  57.407  1.00  0.00     0.278 C 
BRANCH  16  17
HETATM   17  N   UNL     1       8.082  28.775  56.692  1.00  0.00     0.092 N 
HETATM   18  C   UNL     1       9.324  29.462  56.275  1.00  0.00     0.300 C 
HETATM   19  C   UNL     1      10.096  30.175  57.412  1.00  0.00     0.264 C 
HETATM   20  N   UNL     1       9.172  31.099  58.190  1.00  0.00    -0.072 N 
HETATM   21  C   UNL     1       9.874  31.786  59.320  1.00  0.00     0.269 C 
HETATM   22  H   UNL     1       8.857  31.825  57.534  1.00  0.00     0.279 HD
HETATM   23  C   UNL     1       7.918  30.371  58.662  1.00  0.00     0.264 C 
HETATM   24  C   UNL     1       7.228  29.716  57.450  1.00  0.00     0.300 C 
ENDBRANCH  16  17
ENDBRANCH  12  16
ENDBRANCH   1  10
TORSDOF 3
ENDMDL
MODEL 4
REMARK VINA RESULT:      -7.8      1.945      3.326
REMARK  3 active torsions:
REMARK  status: ('A' for Active; 'I' for Inactive)
REMARK    1  A    between atoms: N_6  and  C_7 
REMARK    2  A    between atoms: C_7  and  C_8 
REMARK    3  A    between atoms: N_10  and  C_11 
ROOT
HETATM    1  C   UNL     1       8.003  22.817  54.873  1.00  0.00     0.073 A 
HETATM    2  C   UNL     1       8.023  22.903  53.461  1.00  0.00     0.062 A 
HETATM    3 CL   UNL     1       8.009  24.410  52.606  1.00  0.00    -0.082 Cl
HETATM    4  C   UNL     1       8.135  21.757  52.658  1.00  0.00     0.026 A 
HETATM    5  C   UNL     1       8.245  20.494  53.232  1.00  0.00     0.003 A 
HETATM    6  C   UNL     1       8.260  20.373  54.616  1.00  0.00     0.025 A 
HETATM    7  C   UNL     1       8.147  21.514  55.430  1.00  0.00     0.072 A 
HETATM    8  C   UNL     1       8.188  21.310  56.857  1.00  0.00     0.102 C 
HETATM    9  N   UNL     1       8.292  21.152  58.005  1.00  0.00    -0.191 NA
ENDROOT
BRANCH   1  10
HETATM   10  N   UNL     1       7.842  23.907  55.733  1.00  0.00    -0.378 N 
HETATM   11  C   UNL     1       6.506  24.500  55.836  1.00  0.00     0.129 C 
HETATM   12  C   UNL     1       6.715  26.021  55.948  1.00  0.00     0.032 C 
HETATM   13  C   UNL     1       7.521  26.328  57.223  1.00  0.00     0.009 C 
HETATM   14  C   UNL     1       8.855  25.567  57.208  1.00  0.00     0.020 C 
HETATM   15  C   UNL     1       8.669  24.068  56.936  1.00  0.00     0.123 C 
BRANCH  12  16
HETATM   16  C   UNL     1       5.375  26.768  55.860  1.00  0.00     0.278 C 
BRANCH  16  17
HETATM   17  N   UNL     1       5.458  28.170  55.391  1.00  0.00     0.092 N 
HETATM   18  C   UNL     1       4.159  28.625  54.847  1.00  0.00     0.300 C 
HETATM   19  C   UNL     1       3.801  28.070  53.447  1.00  0.00     0.264 C 
HETATM   20  N   UNL     1       4.938  28.309  52.468  1.00  0.00    -0.072 N 
HETATM   21  C   UNL     1       4.643  27.758  51.107  1.00  0.00     0.269 C 
HETATM   22  H   UNL     1       5.041  29.327  52.374  1.00  0.00     0.279 HD
HETATM   23  C   UNL     1       6.265  27.791  53.011  1.00  0.00     0.264 C 
HETATM   24  C   UNL     1       6.524  28.418  54.395  1.00  0.00     0.300 C 
ENDBRANCH  16  17
ENDBRANCH  12  16
ENDBRANCH   1  10
TORSDOF 3
ENDMDL
MODEL 5
REMARK VINA RESULT:      -7.8      2.485      3.532
REMARK  3 active torsions:
REMARK  status: ('A' for Active; 'I' for Inactive)
REMARK    1  A    between atoms: N_6  and  C_7 
REMARK    2  A    between atoms: C_7  and  C_8 
REMARK    3  A    between atoms: N_10  and  C_11 
ROOT
HETATM    1  C   UNL     1       7.439  23.956  54.621  1.00  0.00     0.073 A 
HETATM    2  C   UNL     1       7.370  23.856  53.212  1.00  0.00     0.062 A 
HETATM    3 CL   UNL     1       6.742  25.119  52.205  1.00  0.00    -0.082 Cl
HETATM    4  C   UNL     1       7.885  22.742  52.530  1.00  0.00     0.026 A 
HETATM    5  C   UNL     1       8.496  21.703  53.224  1.00  0.00     0.003 A 
HETATM    6  C   UNL     1       8.610  21.781  54.606  1.00  0.00     0.025 A 
HETATM    7  C   UNL     1       8.096  22.891  55.300  1.00  0.00     0.072 A 
HETATM    8  C   UNL     1       8.268  22.908  56.732  1.00  0.00     0.102 C 
HETATM    9  N   UNL     1       8.469  22.954  57.877  1.00  0.00    -0.191 NA
ENDROOT
BRANCH   1  10
HETATM   10  N   UNL     1       6.902  25.008  55.371  1.00  0.00    -0.378 N 
HETATM   11  C   UNL     1       7.743  26.188  55.587  1.00  0.00     0.129 C 
HETATM   12  C   UNL     1       7.468  26.658  57.026  1.00  0.00     0.032 C 
HETATM   13  C   UNL     1       5.984  27.044  57.157  1.00  0.00     0.009 C 
HETATM   14  C   UNL     1       5.087  25.863  56.759  1.00  0.00     0.020 C 
HETATM   15  C   UNL     1       5.460  25.282  55.388  1.00  0.00     0.123 C 
BRANCH  12  16
HETATM   16  C   UNL     1       8.444  27.771  57.437  1.00  0.00     0.278 C 
BRANCH  16  17
HETATM   17  N   UNL     1       8.272  29.061  56.730  1.00  0.00     0.092 N 
HETATM   18  C   UNL     1       9.576  29.730  56.523  1.00  0.00     0.300 C 
HETATM   19  C   UNL     1      10.187  30.386  57.785  1.00  0.00     0.264 C 
HETATM   20  N   UNL     1       9.178  31.307  58.452  1.00  0.00    -0.072 N 
HETATM   21  C   UNL     1       9.720  31.939  59.697  1.00  0.00     0.269 C 
HETATM   22  H   UNL     1       8.977  32.061  57.784  1.00  0.00     0.279 HD
HETATM   23  C   UNL     1       7.854  30.596  58.711  1.00  0.00     0.264 C 
HETATM   24  C   UNL     1       7.335  29.998  57.388  1.00  0.00     0.300 C 
ENDBRANCH  16  17
ENDBRANCH  12  16
ENDBRANCH   1  10
TORSDOF 3
ENDMDL
MODEL 6
REMARK VINA RESULT:      -7.7      3.786      8.568
REMARK  3 active torsions:
REMARK  status: ('A' for Active; 'I' for Inactive)
REMARK    1  A    between atoms: N_6  and  C_7 
REMARK    2  A    between atoms: C_7  and  C_8 
REMARK    3  A    between atoms: N_10  and  C_11 
ROOT
HETATM    1  C   UNL     1       7.879  31.240  60.249  1.00  0.00     0.073 A 
HETATM    2  C   UNL     1       8.309  30.956  61.567  1.00  0.00     0.062 A 
HETATM    3 CL   UNL     1       9.797  30.142  61.920  1.00  0.00    -0.082 Cl
HETATM    4  C   UNL     1       7.582  31.393  62.685  1.00  0.00     0.026 A 
HETATM    5  C   UNL     1       6.416  32.136  62.531  1.00  0.00     0.003 A 
HETATM    6  C   UNL     1       5.979  32.460  61.252  1.00  0.00     0.025 A 
HETATM    7  C   UNL     1       6.698  32.027  60.124  1.00  0.00     0.072 A 
HETATM    8  C   UNL     1       6.192  32.417  58.832  1.00  0.00     0.102 C 
HETATM    9  N   UNL     1       5.822  32.792  57.794  1.00  0.00    -0.191 NA
ENDROOT
BRANCH   1  10
HETATM   10  N   UNL     1       8.521  30.794  59.090  1.00  0.00    -0.378 N 
HETATM   11  C   UNL     1       7.735  30.005  58.138  1.00  0.00     0.129 C 
HETATM   12  C   UNL     1       8.679  28.917  57.595  1.00  0.00     0.032 C 
HETATM   13  C   UNL     1       9.858  29.587  56.868  1.00  0.00     0.009 C 
HETATM   14  C   UNL     1      10.585  30.556  57.811  1.00  0.00     0.020 C 
HETATM   15  C   UNL     1       9.626  31.548  58.484  1.00  0.00     0.123 C 
BRANCH  12  16
HETATM   16  C   UNL     1       7.909  27.901  56.737  1.00  0.00     0.278 C 
BRANCH  16  17
HETATM   17  N   UNL     1       7.109  26.908  57.490  1.00  0.00     0.092 N 
HETATM   18  C   UNL     1       7.916  25.708  57.807  1.00  0.00     0.300 C 
HETATM   19  C   UNL     1       8.169  24.752  56.616  1.00  0.00     0.264 C 
HETATM   20  N   UNL     1       6.862  24.390  55.931  1.00  0.00    -0.072 N 
HETATM   21  C   UNL     1       7.067  23.489  54.752  1.00  0.00     0.269 C 
HETATM   22  H   UNL     1       6.298  23.876  56.619  1.00  0.00     0.279 HD
HETATM   23  C   UNL     1       6.060  25.632  55.559  1.00  0.00     0.264 C 
HETATM   24  C   UNL     1       5.856  26.497  56.819  1.00  0.00     0.300 C 
ENDBRANCH  16  17
ENDBRANCH  12  16
ENDBRANCH   1  10
TORSDOF 3
ENDMDL
MODEL 7
REMARK VINA RESULT:      -7.6      2.444      4.142
REMARK  3 active torsions:
REMARK  status: ('A' for Active; 'I' for Inactive)
REMARK    1  A    between atoms: N_6  and  C_7 
REMARK    2  A    between atoms: C_7  and  C_8 
REMARK    3  A    between atoms: N_10  and  C_11 
ROOT
HETATM    1  C   UNL     1       6.705  24.960  54.111  1.00  0.00     0.073 A 
HETATM    2  C   UNL     1       7.372  24.302  53.051  1.00  0.00     0.062 A 
HETATM    3 CL   UNL     1       7.652  25.040  51.509  1.00  0.00    -0.082 Cl
HETATM    4  C   UNL     1       7.923  23.022  53.215  1.00  0.00     0.026 A 
HETATM    5  C   UNL     1       7.841  22.363  54.437  1.00  0.00     0.003 A 
HETATM    6  C   UNL     1       7.220  22.990  55.510  1.00  0.00     0.025 A 
HETATM    7  C   UNL     1       6.663  24.272  55.357  1.00  0.00     0.072 A 
HETATM    8  C   UNL     1       6.051  24.865  56.520  1.00  0.00     0.102 C 
HETATM    9  N   UNL     1       5.620  25.371  57.476  1.00  0.00    -0.191 NA
ENDROOT
BRANCH   1  10
HETATM   10  N   UNL     1       6.087  26.210  54.007  1.00  0.00    -0.378 N 
HETATM   11  C   UNL     1       6.781  27.363  54.587  1.00  0.00     0.129 C 
HETATM   12  C   UNL     1       5.693  28.253  55.212  1.00  0.00     0.032 C 
HETATM   13  C   UNL     1       4.731  28.726  54.109  1.00  0.00     0.009 C 
HETATM   14  C   UNL     1       4.129  27.521  53.373  1.00  0.00     0.020 C 
HETATM   15  C   UNL     1       5.203  26.540  52.882  1.00  0.00     0.123 C 
BRANCH  12  16
HETATM   16  C   UNL     1       6.320  29.395  56.029  1.00  0.00     0.278 C 
BRANCH  16  17
HETATM   17  N   UNL     1       6.403  29.162  57.488  1.00  0.00     0.092 N 
HETATM   18  C   UNL     1       6.217  30.425  58.238  1.00  0.00     0.300 C 
HETATM   19  C   UNL     1       7.429  31.387  58.219  1.00  0.00     0.264 C 
HETATM   20  N   UNL     1       8.696  30.661  58.641  1.00  0.00    -0.072 N 
HETATM   21  C   UNL     1       9.901  31.551  58.606  1.00  0.00     0.269 C 
HETATM   22  H   UNL     1       8.559  30.364  59.615  1.00  0.00     0.279 HD
HETATM   23  C   UNL     1       8.911  29.388  57.829  1.00  0.00     0.264 C 
HETATM   24  C   UNL     1       7.652  28.505  57.932  1.00  0.00     0.300 C 
ENDBRANCH  16  17
ENDBRANCH  12  16
ENDBRANCH   1  10
TORSDOF 3
ENDMDL
MODEL 8
REMARK VINA RESULT:      -7.6      4.296      8.854
REMARK  3 active torsions:
REMARK  status: ('A' for Active; 'I' for Inactive)
REMARK    1  A    between atoms: N_6  and  C_7 
REMARK    2  A    between atoms: C_7  and  C_8 
REMARK    3  A    between atoms: N_10  and  C_11 
ROOT
HETATM    1  C   UNL     1       7.483  31.653  60.242  1.00  0.00     0.073 A 
HETATM    2  C   UNL     1       6.389  32.532  60.054  1.00  0.00     0.062 A 
HETATM    3 CL   UNL     1       5.618  32.765  58.521  1.00  0.00    -0.082 Cl
HETATM    4  C   UNL     1       5.807  33.217  61.132  1.00  0.00     0.026 A 
HETATM    5  C   UNL     1       6.282  33.042  62.427  1.00  0.00     0.003 A 
HETATM    6  C   UNL     1       7.335  32.164  62.654  1.00  0.00     0.025 A 
HETATM    7  C   UNL     1       7.927  31.473  61.583  1.00  0.00     0.072 A 
HETATM    8  C   UNL     1       9.003  30.567  61.900  1.00  0.00     0.102 C 
HETATM    9  N   UNL     1       9.822  29.784  62.165  1.00  0.00    -0.191 NA
ENDROOT
BRANCH   1  10
HETATM   10  N   UNL     1       8.146  30.979  59.212  1.00  0.00    -0.378 N 
HETATM   11  C   UNL     1       7.369  30.035  58.406  1.00  0.00     0.129 C 
HETATM   12  C   UNL     1       8.299  28.845  58.114  1.00  0.00     0.032 C 
HETATM   13  C   UNL     1       9.515  29.339  57.310  1.00  0.00     0.009 C 
HETATM   14  C   UNL     1      10.240  30.458  58.071  1.00  0.00     0.020 C 
HETATM   15  C   UNL     1       9.286  31.579  58.508  1.00  0.00     0.123 C 
BRANCH  12  16
HETATM   16  C   UNL     1       7.529  27.697  57.443  1.00  0.00     0.278 C 
BRANCH  16  17
HETATM   17  N   UNL     1       6.395  28.107  56.585  1.00  0.00     0.092 N 
HETATM   18  C   UNL     1       5.251  27.181  56.739  1.00  0.00     0.300 C 
HETATM   19  C   UNL     1       5.417  25.809  56.040  1.00  0.00     0.264 C 
HETATM   20  N   UNL     1       5.804  25.993  54.582  1.00  0.00    -0.072 N 
HETATM   21  C   UNL     1       6.004  24.687  53.876  1.00  0.00     0.269 C 
HETATM   22  H   UNL     1       5.019  26.475  54.124  1.00  0.00     0.279 HD
HETATM   23  C   UNL     1       7.015  26.907  54.433  1.00  0.00     0.264 C 
HETATM   24  C   UNL     1       6.732  28.241  55.150  1.00  0.00     0.300 C 
ENDBRANCH  16  17
ENDBRANCH  12  16
ENDBRANCH   1  10
TORSDOF 3
ENDMDL
MODEL 9
REMARK VINA RESULT:      -7.5      3.744      6.898
REMARK  3 active torsions:
REMARK  status: ('A' for Active; 'I' for Inactive)
REMARK    1  A    between atoms: N_6  and  C_7 
REMARK    2  A    between atoms: C_7  and  C_8 
REMARK    3  A    between atoms: N_10  and  C_11 
ROOT
HETATM    1  C   UNL     1       8.379  29.596  57.427  1.00  0.00     0.073 A 
HETATM    2  C   UNL     1       9.669  30.113  57.690  1.00  0.00     0.062 A 
HETATM    3 CL   UNL     1      11.106  29.488  56.950  1.00  0.00    -0.082 Cl
HETATM    4  C   UNL     1       9.857  31.230  58.520  1.00  0.00     0.026 A 
HETATM    5  C   UNL     1       8.770  31.875  59.101  1.00  0.00     0.003 A 
HETATM    6  C   UNL     1       7.485  31.414  58.841  1.00  0.00     0.025 A 
HETATM    7  C   UNL     1       7.285  30.296  58.013  1.00  0.00     0.072 A 
HETATM    8  C   UNL     1       5.923  29.888  57.776  1.00  0.00     0.102 C 
HETATM    9  N   UNL     1       4.821  29.604  57.529  1.00  0.00    -0.191 NA
ENDROOT
BRANCH   1  10
HETATM   10  N   UNL     1       8.120  28.459  56.656  1.00  0.00    -0.378 N 
HETATM   11  C   UNL     1       8.055  28.624  55.202  1.00  0.00     0.129 C 
HETATM   12  C   UNL     1       6.926  27.701  54.712  1.00  0.00     0.032 C 
HETATM   13  C   UNL     1       7.279  26.243  55.055  1.00  0.00     0.009 C 
HETATM   14  C   UNL     1       7.525  26.094  56.564  1.00  0.00     0.020 C 
HETATM   15  C   UNL     1       8.535  27.121  57.095  1.00  0.00     0.123 C 
BRANCH  12  16
HETATM   16  C   UNL     1       6.628  27.939  53.223  1.00  0.00     0.278 C 
BRANCH  16  17
HETATM   17  N   UNL     1       5.655  27.006  52.611  1.00  0.00     0.092 N 
HETATM   18  C   UNL     1       5.563  27.218  51.149  1.00  0.00     0.300 C 
HETATM   19  C   UNL     1       4.781  28.481  50.716  1.00  0.00     0.264 C 
HETATM   20  N   UNL     1       3.413  28.520  51.379  1.00  0.00    -0.072 N 
HETATM   21  C   UNL     1       2.635  29.744  51.009  1.00  0.00     0.269 C 
HETATM   22  H   UNL     1       2.892  27.705  51.034  1.00  0.00     0.279 HD
HETATM   23  C   UNL     1       3.518  28.353  52.892  1.00  0.00     0.264 C 
HETATM   24  C   UNL     1       4.300  27.062  53.204  1.00  0.00     0.300 C 
ENDBRANCH  16  17
ENDBRANCH  12  16
ENDBRANCH   1  10
TORSDOF 3
ENDMDL
MODEL 10
REMARK VINA RESULT:      -7.2      2.173      3.963
REMARK  3 active torsions:
REMARK  status: ('A' for Active; 'I' for Inactive)
REMARK    1  A    between atoms: N_6  and  C_7 
REMARK    2  A    between atoms: C_7  and  C_8 
REMARK    3  A    between atoms: N_10  and  C_11 
ROOT
HETATM    1  C   UNL     1       6.892  24.959  54.274  1.00  0.00     0.073 A 
HETATM    2  C   UNL     1       7.719  24.294  53.337  1.00  0.00     0.062 A 
HETATM    3 CL   UNL     1       8.215  25.012  51.840  1.00  0.00    -0.082 Cl
HETATM    4  C   UNL     1       8.258  23.026  53.605  1.00  0.00     0.026 A 
HETATM    5  C   UNL     1       8.005  22.387  54.814  1.00  0.00     0.003 A 
HETATM    6  C   UNL     1       7.222  23.021  55.770  1.00  0.00     0.025 A 
HETATM    7  C   UNL     1       6.676  24.291  55.513  1.00  0.00     0.072 A 
HETATM    8  C   UNL     1       5.889  24.893  56.560  1.00  0.00     0.102 C 
HETATM    9  N   UNL     1       5.314  25.407  57.432  1.00  0.00    -0.191 NA
ENDROOT
BRANCH   1  10
HETATM   10  N   UNL     1       6.279  26.196  54.055  1.00  0.00    -0.378 N 
HETATM   11  C   UNL     1       6.949  27.389  54.579  1.00  0.00     0.129 C 
HETATM   12  C   UNL     1       5.837  28.319  55.094  1.00  0.00     0.032 C 
HETATM   13  C   UNL     1       4.920  28.709  53.922  1.00  0.00     0.009 C 
HETATM   14  C   UNL     1       4.348  27.452  53.250  1.00  0.00     0.020 C 
HETATM   15  C   UNL     1       5.441  26.442  52.875  1.00  0.00     0.123 C 
BRANCH  12  16
HETATM   16  C   UNL     1       6.431  29.518  55.851  1.00  0.00     0.278 C 
BRANCH  16  17
HETATM   17  N   UNL     1       6.127  29.570  57.299  1.00  0.00     0.092 N 
HETATM   18  C   UNL     1       4.680  29.380  57.545  1.00  0.00     0.300 C 
HETATM   19  C   UNL     1       3.791  30.602  57.211  1.00  0.00     0.264 C 
HETATM   20  N   UNL     1       4.321  31.854  57.891  1.00  0.00    -0.072 N 
HETATM   21  C   UNL     1       3.504  33.067  57.568  1.00  0.00     0.269 C 
HETATM   22  H   UNL     1       4.251  31.694  58.904  1.00  0.00     0.279 HD
HETATM   23  C   UNL     1       5.800  32.073  57.592  1.00  0.00     0.264 C 
HETATM   24  C   UNL     1       6.586  30.804  57.976  1.00  0.00     0.300 C 
ENDBRANCH  16  17
ENDBRANCH  12  16
ENDBRANCH   1  10
TORSDOF 3
ENDMDL
