MODEL 1
REMARK VINA RESULT:     -10.3      0.000      0.000
REMARK  10 active torsions:
REMARK  status: ('A' for Active; 'I' for Inactive)
REMARK    1  A    between atoms: O_2  and  C_3 
REMARK    2  A    between atoms: C_4  and  O_5 
REMARK    3  A    between atoms: O_5  and  C_6 
REMARK    4  A    between atoms: C_6  and  C_7 
REMARK    5  A    between atoms: C_16  and  C_17 
REMARK       I    between atoms: C_17  and  N_18 
REMARK    6  A    between atoms: N_18  and  C_19 
REMARK    7  A    between atoms: C_19  and  N_20 
REMARK    8  A    between atoms: N_20  and  C_21 
REMARK    9  A    between atoms: C_24  and  C_25 
REMARK   10  A    between atoms: C_25  and  N_26 
ROOT
HETATM    1  C   UNL     1       7.043  31.197  58.953  1.00  0.00     0.257 C 
HETATM    2  N   UNL     1       7.221  30.870  60.294  1.00  0.00    -0.299 N 
HETATM    3  O   UNL     1       6.765  32.311  58.534  1.00  0.00    -0.267 OA
HETATM    4  H   UNL     1       7.074  29.899  60.522  1.00  0.00     0.171 HD
ENDROOT
BRANCH   2   5
HETATM    5  C   UNL     1       8.068  31.479  61.196  1.00  0.00     0.179 C 
HETATM    6  S   UNL     1       9.439  30.816  61.879  1.00  0.00    -0.040 SA
BRANCH   5   7
HETATM    7  N   UNL     1       7.654  32.703  61.667  1.00  0.00    -0.333 N 
HETATM    8  H   UNL     1       7.736  33.440  60.970  1.00  0.00     0.168 HD
BRANCH   7   9
HETATM    9  C   UNL     1       7.030  33.058  62.879  1.00  0.00     0.034 A 
HETATM   10  C   UNL     1       5.643  33.223  62.872  1.00  0.00     0.030 A 
HETATM   11  C   UNL     1       4.946  33.541  64.046  1.00  0.00     0.011 A 
HETATM   12  C   UNL     1       5.619  33.665  65.269  1.00  0.00    -0.032 A 
HETATM   13  C   UNL     1       7.013  33.472  65.267  1.00  0.00     0.011 A 
HETATM   14  C   UNL     1       7.711  33.177  64.088  1.00  0.00     0.030 A 
BRANCH  12  15
HETATM   15  C   UNL     1       4.962  33.968  66.597  1.00  0.00     0.273 C 
BRANCH  15  16
HETATM   16  N   UNL     1       5.858  34.052  67.817  1.00  0.00    -0.067 N 
HETATM   17  H   UNL     1       6.710  33.525  67.590  1.00  0.00     0.280 HD
HETATM   18  C   UNL     1       6.236  35.477  68.161  1.00  0.00     0.235 C 
HETATM   19  C   UNL     1       7.246  35.466  69.301  1.00  0.00     0.028 C 
HETATM   20  C   UNL     1       6.702  34.738  70.525  1.00  0.00     0.003 C 
HETATM   21  C   UNL     1       6.222  33.337  70.165  1.00  0.00     0.028 C 
HETATM   22  C   UNL     1       5.233  33.355  69.008  1.00  0.00     0.235 C 
ENDBRANCH  15  16
ENDBRANCH  12  15
ENDBRANCH   7   9
ENDBRANCH   5   7
ENDBRANCH   2   5
BRANCH   1  23
HETATM   23  C   UNL     1       6.982  30.016  58.048  1.00  0.00     0.035 A 
HETATM   24  C   UNL     1       8.068  29.132  57.966  1.00  0.00     0.020 A 
HETATM   25  C   UNL     1       7.959  27.969  57.205  1.00  0.00     0.040 A 
HETATM   26  C   UNL     1       6.781  27.699  56.509  1.00  0.00     0.102 A 
HETATM   27  C   UNL     1       5.709  28.594  56.572  1.00  0.00     0.102 A 
HETATM   28  C   UNL     1       5.817  29.771  57.315  1.00  0.00     0.056 A 
BRANCH  26  29
HETATM   29  O   UNL     1       6.713  26.475  55.908  1.00  0.00    -0.344 OA
BRANCH  29  30
HETATM   30  C   UNL     1       7.333  26.434  54.620  1.00  0.00     0.214 C 
BRANCH  30  31
HETATM   31  C   UNL     1       7.539  24.968  54.318  1.00  0.00    -0.034 A 
HETATM   32  C   UNL     1       7.803  24.555  53.002  1.00  0.00     0.011 A 
HETATM   33  C   UNL     1       7.908  23.197  52.692  1.00  0.00     0.024 A 
HETATM   34  C   UNL     1       7.749  22.246  53.696  1.00  0.00     0.034 A 
HETATM   35 CL   UNL     1       7.851  20.572  53.310  1.00  0.00    -0.084 Cl
HETATM   36  C   UNL     1       7.493  22.640  55.007  1.00  0.00     0.024 A 
HETATM   37  C   UNL     1       7.385  23.998  55.319  1.00  0.00     0.011 A 
ENDBRANCH  30  31
ENDBRANCH  29  30
ENDBRANCH  26  29
BRANCH  27  38
HETATM   38  O   UNL     1       4.537  28.368  55.903  1.00  0.00    -0.353 OA
HETATM   39  C   UNL     1       4.527  29.069  54.658  1.00  0.00     0.210 C 
ENDBRANCH  27  38
ENDBRANCH   1  23
TORSDOF 10
ENDMDL
MODEL 2
REMARK VINA RESULT:     -10.2      4.841     12.637
REMARK  10 active torsions:
REMARK  status: ('A' for Active; 'I' for Inactive)
REMARK    1  A    between atoms: O_2  and  C_3 
REMARK    2  A    between atoms: C_4  and  O_5 
REMARK    3  A    between atoms: O_5  and  C_6 
REMARK    4  A    between atoms: C_6  and  C_7 
REMARK    5  A    between atoms: C_16  and  C_17 
REMARK       I    between atoms: C_17  and  N_18 
REMARK    6  A    between atoms: N_18  and  C_19 
REMARK    7  A    between atoms: C_19  and  N_20 
REMARK    8  A    between atoms: N_20  and  C_21 
REMARK    9  A    between atoms: C_24  and  C_25 
REMARK   10  A    between atoms: C_25  and  N_26 
ROOT
HETATM    1  C   UNL     1       7.259  29.317  56.353  1.00  0.00     0.257 C 
HETATM    2  N   UNL     1       5.945  28.998  56.022  1.00  0.00    -0.299 N 
HETATM    3  O   UNL     1       8.250  28.874  55.791  1.00  0.00    -0.267 OA
HETATM    4  H   UNL     1       5.274  29.122  56.764  1.00  0.00     0.171 HD
ENDROOT
BRANCH   2   5
HETATM    5  C   UNL     1       5.351  29.092  54.781  1.00  0.00     0.179 C 
HETATM    6  S   UNL     1       3.844  29.724  54.443  1.00  0.00    -0.040 SA
BRANCH   5   7
HETATM    7  N   UNL     1       6.025  28.477  53.751  1.00  0.00    -0.333 N 
HETATM    8  H   UNL     1       6.487  29.141  53.134  1.00  0.00     0.168 HD
BRANCH   7   9
HETATM    9  C   UNL     1       6.279  27.114  53.503  1.00  0.00     0.034 A 
HETATM   10  C   UNL     1       7.610  26.717  53.358  1.00  0.00     0.030 A 
HETATM   11  C   UNL     1       7.945  25.371  53.144  1.00  0.00     0.011 A 
HETATM   12  C   UNL     1       6.952  24.383  53.108  1.00  0.00    -0.032 A 
HETATM   13  C   UNL     1       5.617  24.793  53.281  1.00  0.00     0.011 A 
HETATM   14  C   UNL     1       5.283  26.141  53.471  1.00  0.00     0.030 A 
BRANCH  12  15
HETATM   15  C   UNL     1       7.206  22.903  52.922  1.00  0.00     0.273 C 
BRANCH  15  16
HETATM   16  N   UNL     1       7.962  22.180  54.019  1.00  0.00    -0.067 N 
HETATM   17  H   UNL     1       8.950  22.442  53.914  1.00  0.00     0.280 HD
HETATM   18  C   UNL     1       7.491  22.573  55.403  1.00  0.00     0.235 C 
HETATM   19  C   UNL     1       8.390  21.919  56.443  1.00  0.00     0.028 C 
HETATM   20  C   UNL     1       8.414  20.402  56.288  1.00  0.00     0.003 C 
HETATM   21  C   UNL     1       8.787  19.999  54.866  1.00  0.00     0.028 C 
HETATM   22  C   UNL     1       7.900  20.678  53.832  1.00  0.00     0.235 C 
ENDBRANCH  15  16
ENDBRANCH  12  15
ENDBRANCH   7   9
ENDBRANCH   5   7
ENDBRANCH   2   5
BRANCH   1  23
HETATM   23  C   UNL     1       7.392  30.079  57.625  1.00  0.00     0.035 A 
HETATM   24  C   UNL     1       8.395  29.745  58.547  1.00  0.00     0.020 A 
HETATM   25  C   UNL     1       8.585  30.533  59.680  1.00  0.00     0.040 A 
HETATM   26  C   UNL     1       7.765  31.638  59.908  1.00  0.00     0.102 A 
HETATM   27  C   UNL     1       6.749  31.955  59.000  1.00  0.00     0.102 A 
HETATM   28  C   UNL     1       6.538  31.157  57.873  1.00  0.00     0.056 A 
BRANCH  26  29
HETATM   29  O   UNL     1       8.113  32.431  60.963  1.00  0.00    -0.344 OA
BRANCH  29  30
HETATM   30  C   UNL     1       8.247  31.717  62.195  1.00  0.00     0.214 C 
BRANCH  30  31
HETATM   31  C   UNL     1       7.309  32.403  63.161  1.00  0.00    -0.034 A 
HETATM   32  C   UNL     1       7.827  33.088  64.273  1.00  0.00     0.011 A 
HETATM   33  C   UNL     1       6.972  33.651  65.222  1.00  0.00     0.024 A 
HETATM   34  C   UNL     1       5.593  33.531  65.065  1.00  0.00     0.034 A 
HETATM   35 CL   UNL     1       4.539  34.200  66.249  1.00  0.00    -0.084 Cl
HETATM   36  C   UNL     1       5.064  32.860  63.966  1.00  0.00     0.024 A 
HETATM   37  C   UNL     1       5.919  32.294  63.016  1.00  0.00     0.011 A 
ENDBRANCH  30  31
ENDBRANCH  29  30
ENDBRANCH  26  29
BRANCH  27  38
HETATM   38  O   UNL     1       5.920  33.027  59.186  1.00  0.00    -0.353 OA
HETATM   39  C   UNL     1       4.596  32.591  59.495  1.00  0.00     0.210 C 
ENDBRANCH  27  38
ENDBRANCH   1  23
TORSDOF 10
ENDMDL
MODEL 3
REMARK VINA RESULT:     -10.1      5.614     12.246
REMARK  10 active torsions:
REMARK  status: ('A' for Active; 'I' for Inactive)
REMARK    1  A    between atoms: O_2  and  C_3 
REMARK    2  A    between atoms: C_4  and  O_5 
REMARK    3  A    between atoms: O_5  and  C_6 
REMARK    4  A    between atoms: C_6  and  C_7 
REMARK    5  A    between atoms: C_16  and  C_17 
REMARK       I    between atoms: C_17  and  N_18 
REMARK    6  A    between atoms: N_18  and  C_19 
REMARK    7  A    between atoms: C_19  and  N_20 
REMARK    8  A    between atoms: N_20  and  C_21 
REMARK    9  A    between atoms: C_24  and  C_25 
REMARK   10  A    between atoms: C_25  and  N_26 
ROOT
HETATM    1  C   UNL     1       5.036  29.146  54.705  1.00  0.00     0.257 C 
HETATM    2  N   UNL     1       5.589  29.352  53.445  1.00  0.00    -0.299 N 
HETATM    3  O   UNL     1       3.839  29.056  54.939  1.00  0.00    -0.267 OA
HETATM    4  H   UNL     1       6.508  29.767  53.443  1.00  0.00     0.171 HD
ENDROOT
BRANCH   2   5
HETATM    5  C   UNL     1       5.366  28.611  52.304  1.00  0.00     0.179 C 
HETATM    6  S   UNL     1       5.353  29.178  50.734  1.00  0.00    -0.040 SA
BRANCH   5   7
HETATM    7  N   UNL     1       4.988  27.304  52.508  1.00  0.00    -0.333 N 
HETATM    8  H   UNL     1       3.977  27.187  52.527  1.00  0.00     0.168 HD
BRANCH   7   9
HETATM    9  C   UNL     1       5.754  26.123  52.561  1.00  0.00     0.034 A 
HETATM   10  C   UNL     1       7.135  26.237  52.391  1.00  0.00     0.030 A 
HETATM   11  C   UNL     1       7.968  25.111  52.466  1.00  0.00     0.011 A 
HETATM   12  C   UNL     1       7.439  23.845  52.752  1.00  0.00    -0.032 A 
HETATM   13  C   UNL     1       6.049  23.749  52.947  1.00  0.00     0.011 A 
HETATM   14  C   UNL     1       5.216  24.871  52.848  1.00  0.00     0.030 A 
BRANCH  12  15
HETATM   15  C   UNL     1       8.250  22.576  52.892  1.00  0.00     0.273 C 
BRANCH  15  16
HETATM   16  N   UNL     1       8.554  22.091  54.297  1.00  0.00    -0.067 N 
HETATM   17  H   UNL     1       9.576  22.028  54.368  1.00  0.00     0.280 HD
HETATM   18  C   UNL     1       8.042  23.041  55.360  1.00  0.00     0.235 C 
HETATM   19  C   UNL     1       8.510  22.561  56.727  1.00  0.00     0.028 C 
HETATM   20  C   UNL     1       8.051  21.134  57.007  1.00  0.00     0.003 C 
HETATM   21  C   UNL     1       8.473  20.190  55.888  1.00  0.00     0.028 C 
HETATM   22  C   UNL     1       8.024  20.690  54.522  1.00  0.00     0.235 C 
ENDBRANCH  15  16
ENDBRANCH  12  15
ENDBRANCH   7   9
ENDBRANCH   5   7
ENDBRANCH   2   5
BRANCH   1  23
HETATM   23  C   UNL     1       6.013  29.274  55.821  1.00  0.00     0.035 A 
HETATM   24  C   UNL     1       5.988  30.402  56.655  1.00  0.00     0.020 A 
HETATM   25  C   UNL     1       6.829  30.462  57.765  1.00  0.00     0.040 A 
HETATM   26  C   UNL     1       7.710  29.413  58.031  1.00  0.00     0.102 A 
HETATM   27  C   UNL     1       7.751  28.301  57.183  1.00  0.00     0.102 A 
HETATM   28  C   UNL     1       6.926  28.244  56.057  1.00  0.00     0.056 A 
BRANCH  26  29
HETATM   29  O   UNL     1       8.391  29.492  59.211  1.00  0.00    -0.344 OA
BRANCH  29  30
HETATM   30  C   UNL     1       9.117  30.713  59.372  1.00  0.00     0.214 C 
BRANCH  30  31
HETATM   31  C   UNL     1       8.624  31.307  60.672  1.00  0.00    -0.034 A 
HETATM   32  C   UNL     1       7.923  32.524  60.665  1.00  0.00     0.011 A 
HETATM   33  C   UNL     1       7.539  33.128  61.864  1.00  0.00     0.024 A 
HETATM   34  C   UNL     1       7.856  32.519  63.076  1.00  0.00     0.034 A 
HETATM   35 CL   UNL     1       7.408  33.278  64.554  1.00  0.00    -0.084 Cl
HETATM   36  C   UNL     1       8.546  31.310  63.099  1.00  0.00     0.024 A 
HETATM   37  C   UNL     1       8.933  30.705  61.900  1.00  0.00     0.011 A 
ENDBRANCH  30  31
ENDBRANCH  29  30
ENDBRANCH  26  29
BRANCH  27  38
HETATM   38  O   UNL     1       8.601  27.253  57.405  1.00  0.00    -0.353 OA
HETATM   39  C   UNL     1       7.865  26.048  57.622  1.00  0.00     0.210 C 
ENDBRANCH  27  38
ENDBRANCH   1  23
TORSDOF 10
ENDMDL
MODEL 4
REMARK VINA RESULT:     -10.0      5.059     12.398
REMARK  10 active torsions:
REMARK  status: ('A' for Active; 'I' for Inactive)
REMARK    1  A    between atoms: O_2  and  C_3 
REMARK    2  A    between atoms: C_4  and  O_5 
REMARK    3  A    between atoms: O_5  and  C_6 
REMARK    4  A    between atoms: C_6  and  C_7 
REMARK    5  A    between atoms: C_16  and  C_17 
REMARK       I    between atoms: C_17  and  N_18 
REMARK    6  A    between atoms: N_18  and  C_19 
REMARK    7  A    between atoms: C_19  and  N_20 
REMARK    8  A    between atoms: N_20  and  C_21 
REMARK    9  A    between atoms: C_24  and  C_25 
REMARK   10  A    between atoms: C_25  and  N_26 
ROOT
HETATM    1  C   UNL     1       4.474  30.422  56.591  1.00  0.00     0.257 C 
HETATM    2  N   UNL     1       4.957  30.315  55.290  1.00  0.00    -0.299 N 
HETATM    3  O   UNL     1       3.298  30.326  56.912  1.00  0.00    -0.267 OA
HETATM    4  H   UNL     1       5.840  30.770  55.122  1.00  0.00     0.171 HD
ENDROOT
BRANCH   2   5
HETATM    5  C   UNL     1       4.743  29.281  54.403  1.00  0.00     0.179 C 
HETATM    6  S   UNL     1       4.504  29.415  52.757  1.00  0.00    -0.040 SA
BRANCH   5   7
HETATM    7  N   UNL     1       4.583  28.037  54.968  1.00  0.00    -0.333 N 
HETATM    8  H   UNL     1       3.608  27.813  55.151  1.00  0.00     0.168 HD
BRANCH   7   9
HETATM    9  C   UNL     1       5.515  27.007  55.201  1.00  0.00     0.034 A 
HETATM   10  C   UNL     1       5.371  25.823  54.474  1.00  0.00     0.030 A 
HETATM   11  C   UNL     1       6.280  24.766  54.625  1.00  0.00     0.011 A 
HETATM   12  C   UNL     1       7.381  24.884  55.483  1.00  0.00    -0.032 A 
HETATM   13  C   UNL     1       7.529  26.092  56.190  1.00  0.00     0.011 A 
HETATM   14  C   UNL     1       6.607  27.138  56.056  1.00  0.00     0.030 A 
BRANCH  12  15
HETATM   15  C   UNL     1       8.439  23.823  55.691  1.00  0.00     0.273 C 
BRANCH  15  16
HETATM   16  N   UNL     1       8.194  22.461  55.070  1.00  0.00    -0.067 N 
HETATM   17  H   UNL     1       7.187  22.278  55.157  1.00  0.00     0.280 HD
HETATM   18  C   UNL     1       8.580  22.415  53.607  1.00  0.00     0.235 C 
HETATM   19  C   UNL     1       8.172  21.069  53.024  1.00  0.00     0.028 C 
HETATM   20  C   UNL     1       8.804  19.911  53.790  1.00  0.00     0.003 C 
HETATM   21  C   UNL     1       8.506  20.009  55.281  1.00  0.00     0.028 C 
HETATM   22  C   UNL     1       8.894  21.367  55.850  1.00  0.00     0.235 C 
ENDBRANCH  15  16
ENDBRANCH  12  15
ENDBRANCH   7   9
ENDBRANCH   5   7
ENDBRANCH   2   5
BRANCH   1  23
HETATM   23  C   UNL     1       5.484  30.907  57.571  1.00  0.00     0.035 A 
HETATM   24  C   UNL     1       5.235  32.061  58.329  1.00  0.00     0.020 A 
HETATM   25  C   UNL     1       6.134  32.444  59.324  1.00  0.00     0.040 A 
HETATM   26  C   UNL     1       7.288  31.693  59.548  1.00  0.00     0.102 A 
HETATM   27  C   UNL     1       7.546  30.557  58.774  1.00  0.00     0.102 A 
HETATM   28  C   UNL     1       6.662  30.180  57.762  1.00  0.00     0.056 A 
BRANCH  26  29
HETATM   29  O   UNL     1       8.034  32.059  60.631  1.00  0.00    -0.344 OA
BRANCH  29  30
HETATM   30  C   UNL     1       7.845  31.212  61.768  1.00  0.00     0.214 C 
BRANCH  30  31
HETATM   31  C   UNL     1       7.202  32.086  62.819  1.00  0.00    -0.034 A 
HETATM   32  C   UNL     1       8.005  32.813  63.713  1.00  0.00     0.011 A 
HETATM   33  C   UNL     1       7.426  33.555  64.745  1.00  0.00     0.024 A 
HETATM   34  C   UNL     1       6.041  33.572  64.889  1.00  0.00     0.034 A 
HETATM   35 CL   UNL     1       5.329  34.463  66.177  1.00  0.00    -0.084 Cl
HETATM   36  C   UNL     1       5.231  32.861  64.008  1.00  0.00     0.024 A 
HETATM   37  C   UNL     1       5.809  32.116  62.976  1.00  0.00     0.011 A 
ENDBRANCH  30  31
ENDBRANCH  29  30
ENDBRANCH  26  29
BRANCH  27  38
HETATM   38  O   UNL     1       8.667  29.794  58.960  1.00  0.00    -0.353 OA
HETATM   39  C   UNL     1       9.715  30.225  58.091  1.00  0.00     0.210 C 
ENDBRANCH  27  38
ENDBRANCH   1  23
TORSDOF 10
ENDMDL
MODEL 5
REMARK VINA RESULT:      -9.9      4.597     12.482
REMARK  10 active torsions:
REMARK  status: ('A' for Active; 'I' for Inactive)
REMARK    1  A    between atoms: O_2  and  C_3 
REMARK    2  A    between atoms: C_4  and  O_5 
REMARK    3  A    between atoms: O_5  and  C_6 
REMARK    4  A    between atoms: C_6  and  C_7 
REMARK    5  A    between atoms: C_16  and  C_17 
REMARK       I    between atoms: C_17  and  N_18 
REMARK    6  A    between atoms: N_18  and  C_19 
REMARK    7  A    between atoms: C_19  and  N_20 
REMARK    8  A    between atoms: N_20  and  C_21 
REMARK    9  A    between atoms: C_24  and  C_25 
REMARK   10  A    between atoms: C_25  and  N_26 
ROOT
HETATM    1  C   UNL     1       8.510  31.843  60.832  1.00  0.00     0.257 C 
HETATM    2  N   UNL     1       8.462  30.552  60.314  1.00  0.00    -0.299 N 
HETATM    3  O   UNL     1       9.362  32.676  60.559  1.00  0.00    -0.267 OA
HETATM    4  H   UNL     1       7.963  29.882  60.879  1.00  0.00     0.171 HD
ENDROOT
BRANCH   2   5
HETATM    5  C   UNL     1       8.473  30.185  58.985  1.00  0.00     0.179 C 
HETATM    6  S   UNL     1       9.749  30.337  57.920  1.00  0.00    -0.040 SA
BRANCH   5   7
HETATM    7  N   UNL     1       7.264  29.778  58.471  1.00  0.00    -0.333 N 
HETATM    8  H   UNL     1       6.556  30.508  58.509  1.00  0.00     0.168 HD
BRANCH   7   9
HETATM    9  C   UNL     1       6.901  28.593  57.802  1.00  0.00     0.034 A 
HETATM   10  C   UNL     1       5.692  28.585  57.103  1.00  0.00     0.030 A 
HETATM   11  C   UNL     1       5.280  27.454  56.383  1.00  0.00     0.011 A 
HETATM   12  C   UNL     1       6.090  26.313  56.314  1.00  0.00    -0.032 A 
HETATM   13  C   UNL     1       7.318  26.343  57.001  1.00  0.00     0.011 A 
HETATM   14  C   UNL     1       7.717  27.465  57.740  1.00  0.00     0.030 A 
BRANCH  12  15
HETATM   15  C   UNL     1       5.760  25.058  55.537  1.00  0.00     0.273 C 
BRANCH  15  16
HETATM   16  N   UNL     1       6.894  24.374  54.798  1.00  0.00    -0.067 N 
HETATM   17  H   UNL     1       7.696  25.015  54.838  1.00  0.00     0.280 HD
HETATM   18  C   UNL     1       7.284  23.054  55.429  1.00  0.00     0.235 C 
HETATM   19  C   UNL     1       8.515  22.506  54.720  1.00  0.00     0.028 C 
HETATM   20  C   UNL     1       8.274  22.342  53.223  1.00  0.00     0.003 C 
HETATM   21  C   UNL     1       7.780  23.642  52.599  1.00  0.00     0.028 C 
HETATM   22  C   UNL     1       6.565  24.197  53.329  1.00  0.00     0.235 C 
ENDBRANCH  15  16
ENDBRANCH  12  15
ENDBRANCH   7   9
ENDBRANCH   5   7
ENDBRANCH   2   5
BRANCH   1  23
HETATM   23  C   UNL     1       7.559  32.079  61.952  1.00  0.00     0.035 A 
HETATM   24  C   UNL     1       8.032  32.499  63.204  1.00  0.00     0.020 A 
HETATM   25  C   UNL     1       7.128  32.827  64.213  1.00  0.00     0.040 A 
HETATM   26  C   UNL     1       5.756  32.716  63.984  1.00  0.00     0.102 A 
HETATM   27  C   UNL     1       5.287  32.273  62.743  1.00  0.00     0.102 A 
HETATM   28  C   UNL     1       6.187  31.922  61.735  1.00  0.00     0.056 A 
BRANCH  26  29
HETATM   29  O   UNL     1       4.947  33.192  64.975  1.00  0.00    -0.344 OA
BRANCH  29  30
HETATM   30  C   UNL     1       5.266  34.524  65.383  1.00  0.00     0.214 C 
BRANCH  30  31
HETATM   31  C   UNL     1       4.870  35.407  64.223  1.00  0.00    -0.034 A 
HETATM   32  C   UNL     1       5.833  36.216  63.598  1.00  0.00     0.011 A 
HETATM   33  C   UNL     1       5.466  37.102  62.583  1.00  0.00     0.024 A 
HETATM   34  C   UNL     1       4.133  37.184  62.188  1.00  0.00     0.034 A 
HETATM   35 CL   UNL     1       3.675  38.296  60.957  1.00  0.00    -0.084 Cl
HETATM   36  C   UNL     1       3.167  36.385  62.794  1.00  0.00     0.024 A 
HETATM   37  C   UNL     1       3.533  35.499  63.812  1.00  0.00     0.011 A 
ENDBRANCH  30  31
ENDBRANCH  29  30
ENDBRANCH  26  29
BRANCH  27  38
HETATM   38  O   UNL     1       3.951  32.147  62.478  1.00  0.00    -0.353 OA
HETATM   39  C   UNL     1       3.684  32.435  61.105  1.00  0.00     0.210 C 
ENDBRANCH  27  38
ENDBRANCH   1  23
TORSDOF 10
ENDMDL
MODEL 6
REMARK VINA RESULT:      -9.8      4.790     13.372
REMARK  10 active torsions:
REMARK  status: ('A' for Active; 'I' for Inactive)
REMARK    1  A    between atoms: O_2  and  C_3 
REMARK    2  A    between atoms: C_4  and  O_5 
REMARK    3  A    between atoms: O_5  and  C_6 
REMARK    4  A    between atoms: C_6  and  C_7 
REMARK    5  A    between atoms: C_16  and  C_17 
REMARK       I    between atoms: C_17  and  N_18 
REMARK    6  A    between atoms: N_18  and  C_19 
REMARK    7  A    between atoms: C_19  and  N_20 
REMARK    8  A    between atoms: N_20  and  C_21 
REMARK    9  A    between atoms: C_24  and  C_25 
REMARK   10  A    between atoms: C_25  and  N_26 
ROOT
HETATM    1  C   UNL     1       7.811  32.233  60.203  1.00  0.00     0.257 C 
HETATM    2  N   UNL     1       6.976  31.226  59.728  1.00  0.00    -0.299 N 
HETATM    3  O   UNL     1       8.866  32.571  59.686  1.00  0.00    -0.267 OA
HETATM    4  H   UNL     1       6.370  30.811  60.419  1.00  0.00     0.171 HD
ENDROOT
BRANCH   2   5
HETATM    5  C   UNL     1       6.455  31.103  58.457  1.00  0.00     0.179 C 
HETATM    6  S   UNL     1       4.980  31.673  57.926  1.00  0.00    -0.040 SA
BRANCH   5   7
HETATM    7  N   UNL     1       7.179  30.315  57.593  1.00  0.00    -0.333 N 
HETATM    8  H   UNL     1       7.951  30.816  57.158  1.00  0.00     0.168 HD
BRANCH   7   9
HETATM    9  C   UNL     1       7.102  28.934  57.325  1.00  0.00     0.034 A 
HETATM   10  C   UNL     1       8.287  28.196  57.373  1.00  0.00     0.030 A 
HETATM   11  C   UNL     1       8.287  26.811  57.153  1.00  0.00     0.011 A 
HETATM   12  C   UNL     1       7.089  26.124  56.916  1.00  0.00    -0.032 A 
HETATM   13  C   UNL     1       5.899  26.875  56.895  1.00  0.00     0.011 A 
HETATM   14  C   UNL     1       5.905  28.262  57.092  1.00  0.00     0.030 A 
BRANCH  12  15
HETATM   15  C   UNL     1       6.972  24.630  56.703  1.00  0.00     0.273 C 
BRANCH  15  16
HETATM   16  N   UNL     1       7.578  24.055  55.438  1.00  0.00    -0.067 N 
HETATM   17  H   UNL     1       8.439  24.585  55.260  1.00  0.00     0.280 HD
HETATM   18  C   UNL     1       7.921  22.587  55.576  1.00  0.00     0.235 C 
HETATM   19  C   UNL     1       8.652  22.123  54.324  1.00  0.00     0.028 C 
HETATM   20  C   UNL     1       7.824  22.372  53.067  1.00  0.00     0.003 C 
HETATM   21  C   UNL     1       7.386  23.829  52.975  1.00  0.00     0.028 C 
HETATM   22  C   UNL     1       6.679  24.291  54.241  1.00  0.00     0.235 C 
ENDBRANCH  15  16
ENDBRANCH  12  15
ENDBRANCH   7   9
ENDBRANCH   5   7
ENDBRANCH   2   5
BRANCH   1  23
HETATM   23  C   UNL     1       7.441  32.736  61.554  1.00  0.00     0.035 A 
HETATM   24  C   UNL     1       8.161  32.320  62.684  1.00  0.00     0.020 A 
HETATM   25  C   UNL     1       7.882  32.882  63.929  1.00  0.00     0.040 A 
HETATM   26  C   UNL     1       6.874  33.838  64.054  1.00  0.00     0.102 A 
HETATM   27  C   UNL     1       6.141  34.233  62.930  1.00  0.00     0.102 A 
HETATM   28  C   UNL     1       6.400  33.659  61.683  1.00  0.00     0.056 A 
BRANCH  26  29
HETATM   29  O   UNL     1       6.767  34.435  65.277  1.00  0.00    -0.344 OA
BRANCH  29  30
HETATM   30  C   UNL     1       5.736  33.878  66.096  1.00  0.00     0.214 C 
BRANCH  30  31
HETATM   31  C   UNL     1       6.104  34.249  67.514  1.00  0.00    -0.034 A 
HETATM   32  C   UNL     1       7.436  34.560  67.833  1.00  0.00     0.011 A 
HETATM   33  C   UNL     1       7.807  34.819  69.155  1.00  0.00     0.024 A 
HETATM   34  C   UNL     1       6.849  34.765  70.164  1.00  0.00     0.034 A 
HETATM   35 CL   UNL     1       7.311  35.055  71.795  1.00  0.00    -0.084 Cl
HETATM   36  C   UNL     1       5.523  34.463  69.862  1.00  0.00     0.024 A 
HETATM   37  C   UNL     1       5.150  34.202  68.541  1.00  0.00     0.011 A 
ENDBRANCH  30  31
ENDBRANCH  29  30
ENDBRANCH  26  29
BRANCH  27  38
HETATM   38  O   UNL     1       5.143  35.166  63.008  1.00  0.00    -0.353 OA
HETATM   39  C   UNL     1       5.645  36.465  62.691  1.00  0.00     0.210 C 
ENDBRANCH  27  38
ENDBRANCH   1  23
TORSDOF 10
ENDMDL
MODEL 7
REMARK VINA RESULT:      -9.7      2.218      3.334
REMARK  10 active torsions:
REMARK  status: ('A' for Active; 'I' for Inactive)
REMARK    1  A    between atoms: O_2  and  C_3 
REMARK    2  A    between atoms: C_4  and  O_5 
REMARK    3  A    between atoms: O_5  and  C_6 
REMARK    4  A    between atoms: C_6  and  C_7 
REMARK    5  A    between atoms: C_16  and  C_17 
REMARK       I    between atoms: C_17  and  N_18 
REMARK    6  A    between atoms: N_18  and  C_19 
REMARK    7  A    between atoms: C_19  and  N_20 
REMARK    8  A    between atoms: N_20  and  C_21 
REMARK    9  A    between atoms: C_24  and  C_25 
REMARK   10  A    between atoms: C_25  and  N_26 
ROOT
HETATM    1  C   UNL     1       7.316  30.914  58.886  1.00  0.00     0.257 C 
HETATM    2  N   UNL     1       7.630  30.549  60.192  1.00  0.00    -0.299 N 
HETATM    3  O   UNL     1       6.857  31.997  58.552  1.00  0.00    -0.267 OA
HETATM    4  H   UNL     1       7.637  29.557  60.370  1.00  0.00     0.171 HD
ENDROOT
BRANCH   2   5
HETATM    5  C   UNL     1       8.442  31.228  61.076  1.00  0.00     0.179 C 
HETATM    6  S   UNL     1       9.987  31.787  60.782  1.00  0.00    -0.040 SA
BRANCH   5   7
HETATM    7  N   UNL     1       7.967  31.327  62.363  1.00  0.00    -0.333 N 
HETATM    8  H   UNL     1       8.355  30.616  62.980  1.00  0.00     0.168 HD
BRANCH   7   9
HETATM    9  C   UNL     1       7.158  32.307  62.971  1.00  0.00     0.034 A 
HETATM   10  C   UNL     1       7.688  33.003  64.060  1.00  0.00     0.030 A 
HETATM   11  C   UNL     1       6.957  34.017  64.696  1.00  0.00     0.011 A 
HETATM   12  C   UNL     1       5.688  34.386  64.230  1.00  0.00    -0.032 A 
HETATM   13  C   UNL     1       5.176  33.694  63.116  1.00  0.00     0.011 A 
HETATM   14  C   UNL     1       5.898  32.665  62.498  1.00  0.00     0.030 A 
BRANCH  12  15
HETATM   15  C   UNL     1       4.833  35.487  64.817  1.00  0.00     0.273 C 
BRANCH  15  16
HETATM   16  N   UNL     1       4.686  36.763  64.009  1.00  0.00    -0.067 N 
HETATM   17  H   UNL     1       4.364  37.486  64.664  1.00  0.00     0.280 HD
HETATM   18  C   UNL     1       5.992  37.207  63.385  1.00  0.00     0.235 C 
HETATM   19  C   UNL     1       5.792  38.560  62.717  1.00  0.00     0.028 C 
HETATM   20  C   UNL     1       4.680  38.514  61.676  1.00  0.00     0.003 C 
HETATM   21  C   UNL     1       3.388  37.968  62.272  1.00  0.00     0.028 C 
HETATM   22  C   UNL     1       3.602  36.627  62.960  1.00  0.00     0.235 C 
ENDBRANCH  15  16
ENDBRANCH  12  15
ENDBRANCH   7   9
ENDBRANCH   5   7
ENDBRANCH   2   5
BRANCH   1  23
HETATM   23  C   UNL     1       7.361  29.784  57.918  1.00  0.00     0.035 A 
HETATM   24  C   UNL     1       8.557  29.084  57.704  1.00  0.00     0.020 A 
HETATM   25  C   UNL     1       8.563  27.957  56.883  1.00  0.00     0.040 A 
HETATM   26  C   UNL     1       7.387  27.542  56.258  1.00  0.00     0.102 A 
HETATM   27  C   UNL     1       6.201  28.257  56.453  1.00  0.00     0.102 A 
HETATM   28  C   UNL     1       6.191  29.399  57.257  1.00  0.00     0.056 A 
BRANCH  26  29
HETATM   29  O   UNL     1       7.455  26.354  55.591  1.00  0.00    -0.344 OA
BRANCH  29  30
HETATM   30  C   UNL     1       7.826  25.251  56.422  1.00  0.00     0.214 C 
BRANCH  30  31
HETATM   31  C   UNL     1       8.025  24.085  55.481  1.00  0.00    -0.034 A 
HETATM   32  C   UNL     1       7.429  24.103  54.209  1.00  0.00     0.011 A 
HETATM   33  C   UNL     1       7.531  22.997  53.363  1.00  0.00     0.024 A 
HETATM   34  C   UNL     1       8.227  21.867  53.785  1.00  0.00     0.034 A 
HETATM   35 CL   UNL     1       8.328  20.493  52.754  1.00  0.00    -0.084 Cl
HETATM   36  C   UNL     1       8.828  21.836  55.041  1.00  0.00     0.024 A 
HETATM   37  C   UNL     1       8.725  22.942  55.890  1.00  0.00     0.011 A 
ENDBRANCH  30  31
ENDBRANCH  29  30
ENDBRANCH  26  29
BRANCH  27  38
HETATM   38  O   UNL     1       5.026  27.886  55.858  1.00  0.00    -0.353 OA
HETATM   39  C   UNL     1       4.841  28.593  54.630  1.00  0.00     0.210 C 
ENDBRANCH  27  38
ENDBRANCH   1  23
TORSDOF 10
ENDMDL
MODEL 8
REMARK VINA RESULT:      -9.5      1.611      2.423
REMARK  10 active torsions:
REMARK  status: ('A' for Active; 'I' for Inactive)
REMARK    1  A    between atoms: O_2  and  C_3 
REMARK    2  A    between atoms: C_4  and  O_5 
REMARK    3  A    between atoms: O_5  and  C_6 
REMARK    4  A    between atoms: C_6  and  C_7 
REMARK    5  A    between atoms: C_16  and  C_17 
REMARK       I    between atoms: C_17  and  N_18 
REMARK    6  A    between atoms: N_18  and  C_19 
REMARK    7  A    between atoms: C_19  and  N_20 
REMARK    8  A    between atoms: N_20  and  C_21 
REMARK    9  A    between atoms: C_24  and  C_25 
REMARK   10  A    between atoms: C_25  and  N_26 
ROOT
HETATM    1  C   UNL     1       8.047  32.002  59.712  1.00  0.00     0.257 C 
HETATM    2  N   UNL     1       6.989  32.087  60.612  1.00  0.00    -0.299 N 
HETATM    3  O   UNL     1       8.985  32.784  59.658  1.00  0.00    -0.267 OA
HETATM    4  H   UNL     1       6.138  31.633  60.317  1.00  0.00     0.171 HD
ENDROOT
BRANCH   2   5
HETATM    5  C   UNL     1       7.067  32.173  61.986  1.00  0.00     0.179 C 
HETATM    6  S   UNL     1       7.977  31.205  62.995  1.00  0.00    -0.040 SA
BRANCH   5   7
HETATM    7  N   UNL     1       6.200  33.064  62.575  1.00  0.00    -0.333 N 
HETATM    8  H   UNL     1       5.496  33.412  61.928  1.00  0.00     0.168 HD
BRANCH   7   9
HETATM    9  C   UNL     1       6.057  33.454  63.921  1.00  0.00     0.034 A 
HETATM   10  C   UNL     1       4.764  33.516  64.446  1.00  0.00     0.030 A 
HETATM   11  C   UNL     1       4.544  33.863  65.787  1.00  0.00     0.011 A 
HETATM   12  C   UNL     1       5.619  34.118  66.648  1.00  0.00    -0.032 A 
HETATM   13  C   UNL     1       6.918  34.026  66.113  1.00  0.00     0.011 A 
HETATM   14  C   UNL     1       7.135  33.704  64.767  1.00  0.00     0.030 A 
BRANCH  12  15
HETATM   15  C   UNL     1       5.495  34.462  68.116  1.00  0.00     0.273 C 
BRANCH  15  16
HETATM   16  N   UNL     1       6.613  34.010  69.036  1.00  0.00    -0.067 N 
HETATM   17  H   UNL     1       7.188  33.353  68.495  1.00  0.00     0.280 HD
HETATM   18  C   UNL     1       7.481  35.161  69.501  1.00  0.00     0.235 C 
HETATM   19  C   UNL     1       8.656  34.612  70.297  1.00  0.00     0.028 C 
HETATM   20  C   UNL     1       8.188  33.772  71.480  1.00  0.00     0.003 C 
HETATM   21  C   UNL     1       7.230  32.674  71.033  1.00  0.00     0.028 C 
HETATM   22  C   UNL     1       6.072  33.229  70.216  1.00  0.00     0.235 C 
ENDBRANCH  15  16
ENDBRANCH  12  15
ENDBRANCH   7   9
ENDBRANCH   5   7
ENDBRANCH   2   5
BRANCH   1  23
HETATM   23  C   UNL     1       7.841  30.999  58.632  1.00  0.00     0.035 A 
HETATM   24  C   UNL     1       6.597  30.896  57.991  1.00  0.00     0.020 A 
HETATM   25  C   UNL     1       6.445  30.035  56.905  1.00  0.00     0.040 A 
HETATM   26  C   UNL     1       7.522  29.260  56.473  1.00  0.00     0.102 A 
HETATM   27  C   UNL     1       8.754  29.345  57.130  1.00  0.00     0.102 A 
HETATM   28  C   UNL     1       8.908  30.190  58.231  1.00  0.00     0.056 A 
BRANCH  26  29
HETATM   29  O   UNL     1       7.324  28.556  55.321  1.00  0.00    -0.344 OA
BRANCH  29  30
HETATM   30  C   UNL     1       6.116  27.791  55.319  1.00  0.00     0.214 C 
BRANCH  30  31
HETATM   31  C   UNL     1       6.553  26.346  55.375  1.00  0.00    -0.034 A 
HETATM   32  C   UNL     1       6.404  25.525  54.245  1.00  0.00     0.011 A 
HETATM   33  C   UNL     1       6.721  24.167  54.308  1.00  0.00     0.024 A 
HETATM   34  C   UNL     1       7.187  23.621  55.501  1.00  0.00     0.034 A 
HETATM   35 CL   UNL     1       7.551  21.942  55.587  1.00  0.00    -0.084 Cl
HETATM   36  C   UNL     1       7.346  24.423  56.629  1.00  0.00     0.024 A 
HETATM   37  C   UNL     1       7.026  25.783  56.569  1.00  0.00     0.011 A 
ENDBRANCH  30  31
ENDBRANCH  29  30
ENDBRANCH  26  29
BRANCH  27  38
HETATM   38  O   UNL     1       9.835  28.602  56.740  1.00  0.00    -0.353 OA
HETATM   39  C   UNL     1      11.025  29.391  56.778  1.00  0.00     0.210 C 
ENDBRANCH  27  38
ENDBRANCH   1  23
TORSDOF 10
ENDMDL
MODEL 9
REMARK VINA RESULT:      -9.5      1.752      2.622
REMARK  10 active torsions:
REMARK  status: ('A' for Active; 'I' for Inactive)
REMARK    1  A    between atoms: O_2  and  C_3 
REMARK    2  A    between atoms: C_4  and  O_5 
REMARK    3  A    between atoms: O_5  and  C_6 
REMARK    4  A    between atoms: C_6  and  C_7 
REMARK    5  A    between atoms: C_16  and  C_17 
REMARK       I    between atoms: C_17  and  N_18 
REMARK    6  A    between atoms: N_18  and  C_19 
REMARK    7  A    between atoms: C_19  and  N_20 
REMARK    8  A    between atoms: N_20  and  C_21 
REMARK    9  A    between atoms: C_24  and  C_25 
REMARK   10  A    between atoms: C_25  and  N_26 
ROOT
HETATM    1  C   UNL     1       6.113  29.977  57.138  1.00  0.00     0.257 C 
HETATM    2  N   UNL     1       6.930  29.914  58.262  1.00  0.00    -0.299 N 
HETATM    3  O   UNL     1       5.334  30.885  56.888  1.00  0.00    -0.267 OA
HETATM    4  H   UNL     1       7.223  28.986  58.528  1.00  0.00     0.171 HD
ENDROOT
BRANCH   2   5
HETATM    5  C   UNL     1       7.820  30.871  58.702  1.00  0.00     0.179 C 
HETATM    6  S   UNL     1       9.486  30.785  58.642  1.00  0.00    -0.040 SA
BRANCH   5   7
HETATM    7  N   UNL     1       7.264  31.935  59.373  1.00  0.00    -0.333 N 
HETATM    8  H   UNL     1       6.610  32.463  58.799  1.00  0.00     0.168 HD
BRANCH   7   9
HETATM    9  C   UNL     1       7.354  32.317  60.726  1.00  0.00     0.034 A 
HETATM   10  C   UNL     1       6.453  33.278  61.191  1.00  0.00     0.030 A 
HETATM   11  C   UNL     1       6.458  33.684  62.534  1.00  0.00     0.011 A 
HETATM   12  C   UNL     1       7.342  33.107  63.454  1.00  0.00    -0.032 A 
HETATM   13  C   UNL     1       8.228  32.122  62.978  1.00  0.00     0.011 A 
HETATM   14  C   UNL     1       8.238  31.735  61.631  1.00  0.00     0.030 A 
BRANCH  12  15
HETATM   15  C   UNL     1       7.405  33.443  64.928  1.00  0.00     0.273 C 
BRANCH  15  16
HETATM   16  N   UNL     1       6.238  34.208  65.521  1.00  0.00    -0.067 N 
HETATM   17  H   UNL     1       6.302  35.166  65.156  1.00  0.00     0.280 HD
HETATM   18  C   UNL     1       4.900  33.618  65.127  1.00  0.00     0.235 C 
HETATM   19  C   UNL     1       3.785  34.521  65.638  1.00  0.00     0.028 C 
HETATM   20  C   UNL     1       3.870  34.716  67.148  1.00  0.00     0.003 C 
HETATM   21  C   UNL     1       5.250  35.212  67.563  1.00  0.00     0.028 C 
HETATM   22  C   UNL     1       6.359  34.318  67.027  1.00  0.00     0.235 C 
ENDBRANCH  15  16
ENDBRANCH  12  15
ENDBRANCH   7   9
ENDBRANCH   5   7
ENDBRANCH   2   5
BRANCH   1  23
HETATM   23  C   UNL     1       6.077  28.716  56.348  1.00  0.00     0.035 A 
HETATM   24  C   UNL     1       6.602  27.531  56.884  1.00  0.00     0.020 A 
HETATM   25  C   UNL     1       6.462  26.332  56.186  1.00  0.00     0.040 A 
HETATM   26  C   UNL     1       5.822  26.317  54.947  1.00  0.00     0.102 A 
HETATM   27  C   UNL     1       5.322  27.504  54.402  1.00  0.00     0.102 A 
HETATM   28  C   UNL     1       5.477  28.712  55.086  1.00  0.00     0.056 A 
BRANCH  26  29
HETATM   29  O   UNL     1       5.606  25.083  54.404  1.00  0.00    -0.344 OA
BRANCH  29  30
HETATM   30  C   UNL     1       6.543  24.736  53.381  1.00  0.00     0.214 C 
BRANCH  30  31
HETATM   31  C   UNL     1       7.208  23.466  53.858  1.00  0.00    -0.034 A 
HETATM   32  C   UNL     1       7.707  22.543  52.924  1.00  0.00     0.011 A 
HETATM   33  C   UNL     1       8.245  21.325  53.347  1.00  0.00     0.024 A 
HETATM   34  C   UNL     1       8.284  21.023  54.706  1.00  0.00     0.034 A 
HETATM   35 CL   UNL     1       8.919  19.511  55.225  1.00  0.00    -0.084 Cl
HETATM   36  C   UNL     1       7.798  21.930  55.645  1.00  0.00     0.024 A 
HETATM   37  C   UNL     1       7.258  23.148  55.223  1.00  0.00     0.011 A 
ENDBRANCH  30  31
ENDBRANCH  29  30
ENDBRANCH  26  29
BRANCH  27  38
HETATM   38  O   UNL     1       4.690  27.534  53.189  1.00  0.00    -0.353 OA
HETATM   39  C   UNL     1       3.514  28.341  53.257  1.00  0.00     0.210 C 
ENDBRANCH  27  38
ENDBRANCH   1  23
TORSDOF 10
ENDMDL
MODEL 10
REMARK VINA RESULT:      -9.4      4.740     13.078
REMARK  10 active torsions:
REMARK  status: ('A' for Active; 'I' for Inactive)
REMARK    1  A    between atoms: O_2  and  C_3 
REMARK    2  A    between atoms: C_4  and  O_5 
REMARK    3  A    between atoms: O_5  and  C_6 
REMARK    4  A    between atoms: C_6  and  C_7 
REMARK    5  A    between atoms: C_16  and  C_17 
REMARK       I    between atoms: C_17  and  N_18 
REMARK    6  A    between atoms: N_18  and  C_19 
REMARK    7  A    between atoms: C_19  and  N_20 
REMARK    8  A    between atoms: N_20  and  C_21 
REMARK    9  A    between atoms: C_24  and  C_25 
REMARK   10  A    between atoms: C_25  and  N_26 
ROOT
HETATM    1  C   UNL     1       5.433  32.333  58.644  1.00  0.00     0.257 C 
HETATM    2  N   UNL     1       5.574  31.010  58.238  1.00  0.00    -0.299 N 
HETATM    3  O   UNL     1       5.617  33.309  57.930  1.00  0.00    -0.267 OA
HETATM    4  H   UNL     1       5.759  30.352  58.979  1.00  0.00     0.171 HD
ENDROOT
BRANCH   2   5
HETATM    5  C   UNL     1       4.973  30.399  57.157  1.00  0.00     0.179 C 
HETATM    6  S   UNL     1       3.342  30.375  56.807  1.00  0.00    -0.040 SA
BRANCH   5   7
HETATM    7  N   UNL     1       5.801  29.628  56.375  1.00  0.00    -0.333 N 
HETATM    8  H   UNL     1       6.392  30.186  55.762  1.00  0.00     0.168 HD
BRANCH   7   9
HETATM    9  C   UNL     1       6.045  28.241  56.384  1.00  0.00     0.034 A 
HETATM   10  C   UNL     1       7.373  27.815  56.309  1.00  0.00     0.030 A 
HETATM   11  C   UNL     1       7.698  26.451  56.348  1.00  0.00     0.011 A 
HETATM   12  C   UNL     1       6.700  25.480  56.503  1.00  0.00    -0.032 A 
HETATM   13  C   UNL     1       5.369  25.924  56.603  1.00  0.00     0.011 A 
HETATM   14  C   UNL     1       5.044  27.286  56.540  1.00  0.00     0.030 A 
BRANCH  12  15
HETATM   15  C   UNL     1       6.944  23.990  56.595  1.00  0.00     0.273 C 
BRANCH  15  16
HETATM   16  N   UNL     1       7.645  23.323  55.427  1.00  0.00    -0.067 N 
HETATM   17  H   UNL     1       8.559  23.784  55.334  1.00  0.00     0.280 HD
HETATM   18  C   UNL     1       7.859  21.841  55.650  1.00  0.00     0.235 C 
HETATM   19  C   UNL     1       8.691  21.278  54.506  1.00  0.00     0.028 C 
HETATM   20  C   UNL     1       8.033  21.535  53.155  1.00  0.00     0.003 C 
HETATM   21  C   UNL     1       7.719  23.014  52.966  1.00  0.00     0.028 C 
HETATM   22  C   UNL     1       6.909  23.575  54.127  1.00  0.00     0.235 C 
ENDBRANCH  15  16
ENDBRANCH  12  15
ENDBRANCH   7   9
ENDBRANCH   5   7
ENDBRANCH   2   5
BRANCH   1  23
HETATM   23  C   UNL     1       5.263  32.498  60.113  1.00  0.00     0.035 A 
HETATM   24  C   UNL     1       3.979  32.596  60.669  1.00  0.00     0.020 A 
HETATM   25  C   UNL     1       3.824  32.635  62.054  1.00  0.00     0.040 A 
HETATM   26  C   UNL     1       4.945  32.601  62.883  1.00  0.00     0.102 A 
HETATM   27  C   UNL     1       6.226  32.530  62.326  1.00  0.00     0.102 A 
HETATM   28  C   UNL     1       6.391  32.511  60.939  1.00  0.00     0.056 A 
BRANCH  26  29
HETATM   29  O   UNL     1       4.694  32.501  64.221  1.00  0.00    -0.344 OA
BRANCH  29  30
HETATM   30  C   UNL     1       4.243  33.723  64.811  1.00  0.00     0.214 C 
BRANCH  30  31
HETATM   31  C   UNL     1       5.056  33.883  66.075  1.00  0.00    -0.034 A 
HETATM   32  C   UNL     1       4.408  33.976  67.318  1.00  0.00     0.011 A 
HETATM   33  C   UNL     1       5.139  34.213  68.484  1.00  0.00     0.024 A 
HETATM   34  C   UNL     1       6.522  34.359  68.413  1.00  0.00     0.034 A 
HETATM   35 CL   UNL     1       7.421  34.679  69.845  1.00  0.00    -0.084 Cl
HETATM   36  C   UNL     1       7.181  34.264  67.189  1.00  0.00     0.024 A 
HETATM   37  C   UNL     1       6.450  34.030  66.021  1.00  0.00     0.011 A 
ENDBRANCH  30  31
ENDBRANCH  29  30
ENDBRANCH  26  29
BRANCH  27  38
HETATM   38  O   UNL     1       7.353  32.496  63.102  1.00  0.00    -0.353 OA
HETATM   39  C   UNL     1       8.227  31.452  62.672  1.00  0.00     0.210 C 
ENDBRANCH  27  38
ENDBRANCH   1  23
TORSDOF 10
ENDMDL
