MODEL 1
REMARK VINA RESULT:      -8.0      0.000      0.000
REMARK  6 active torsions:
REMARK  status: ('A' for Active; 'I' for Inactive)
REMARK    1  A    between atoms: C_8  and  N_9 
REMARK       I    between atoms: N_9  and  C_10 
REMARK    2  A    between atoms: C_10  and  C_11 
REMARK    3  A    between atoms: C_11  and  N_12 
REMARK    4  A    between atoms: N_12  and  C_13 
REMARK    5  A    between atoms: C_13  and  C_14 
REMARK    6  A    between atoms: C_13  and  C_17 
ROOT
HETATM    1  C   UNL     1       6.348  27.449  57.308  1.00  0.00     0.372 C 
ENDROOT
BRANCH   1   2
HETATM    2  C   UNL     1       6.821  28.898  57.425  1.00  0.00     0.250 C 
HETATM    3  N   UNL     1       7.929  29.039  58.231  1.00  0.00    -0.322 N 
HETATM    4  H   UNL     1       8.147  28.227  58.803  1.00  0.00     0.169 HD
HETATM    5  O   UNL     1       6.259  29.782  56.784  1.00  0.00    -0.271 OA
BRANCH   3   6
HETATM    6  C   UNL     1       8.689  30.181  58.417  1.00  0.00     0.085 A 
HETATM    7  C   UNL     1       9.911  30.363  57.796  1.00  0.00     0.052 A 
HETATM    8  C   UNL     1      10.722  29.529  56.881  1.00  0.00     0.072 C 
HETATM    9  N   UNL     1      10.367  31.579  58.219  1.00  0.00    -0.280 N 
HETATM   10  H   UNL     1      11.242  32.036  57.983  1.00  0.00     0.189 HD
HETATM   11  N   UNL     1       9.526  32.223  59.030  1.00  0.00    -0.177 NA
HETATM   12  C   UNL     1       8.485  31.384  59.160  1.00  0.00     0.079 A 
HETATM   13  C   UNL     1       7.329  31.835  59.974  1.00  0.00     0.075 C 
ENDBRANCH   3   6
ENDBRANCH   1   2
BRANCH   1  14
HETATM   14  N   UNL     1       7.155  26.615  56.413  1.00  0.00     0.101 N 
HETATM   15  H   UNL     1       8.058  27.081  56.311  1.00  0.00     0.317 HD
BRANCH  14  16
HETATM   16  C   UNL     1       6.648  26.285  55.060  1.00  0.00     0.259 C 
BRANCH  16  17
HETATM   17  C   UNL     1       6.881  27.297  53.876  1.00  0.00     0.015 C 
HETATM   18  C   UNL     1       5.676  28.249  53.692  1.00  0.00     0.012 C 
HETATM   19  C   UNL     1       8.105  28.207  54.073  1.00  0.00     0.012 C 
ENDBRANCH  16  17
BRANCH  16  20
HETATM   20  C   UNL     1       7.242  24.900  54.734  1.00  0.00    -0.003 A 
HETATM   21  C   UNL     1       6.816  24.113  53.650  1.00  0.00     0.042 A 
HETATM   22 CL   UNL     1       5.603  24.636  52.538  1.00  0.00    -0.084 Cl
HETATM   23  C   UNL     1       7.377  22.850  53.419  1.00  0.00     0.024 A 
HETATM   24  C   UNL     1       8.372  22.352  54.259  1.00  0.00     0.002 A 
HETATM   25  C   UNL     1       8.811  23.113  55.335  1.00  0.00     0.001 A 
HETATM   26  C   UNL     1       8.251  24.371  55.571  1.00  0.00     0.011 A 
ENDBRANCH  16  20
ENDBRANCH  14  16
ENDBRANCH   1  14
TORSDOF 6
ENDMDL
MODEL 2
REMARK VINA RESULT:      -8.0      2.071      3.128
REMARK  6 active torsions:
REMARK  status: ('A' for Active; 'I' for Inactive)
REMARK    1  A    between atoms: C_8  and  N_9 
REMARK       I    between atoms: N_9  and  C_10 
REMARK    2  A    between atoms: C_10  and  C_11 
REMARK    3  A    between atoms: C_11  and  N_12 
REMARK    4  A    between atoms: N_12  and  C_13 
REMARK    5  A    between atoms: C_13  and  C_14 
REMARK    6  A    between atoms: C_13  and  C_17 
ROOT
HETATM    1  C   UNL     1       7.190  26.501  55.278  1.00  0.00     0.372 C 
ENDROOT
BRANCH   1   2
HETATM    2  C   UNL     1       7.964  27.227  56.379  1.00  0.00     0.250 C 
HETATM    3  N   UNL     1       8.037  28.588  56.178  1.00  0.00    -0.322 N 
HETATM    4  H   UNL     1       7.773  28.897  55.247  1.00  0.00     0.169 HD
HETATM    5  O   UNL     1       8.391  26.601  57.346  1.00  0.00    -0.271 OA
BRANCH   3   6
HETATM    6  C   UNL     1       8.525  29.539  57.058  1.00  0.00     0.085 A 
HETATM    7  C   UNL     1       7.693  30.298  57.861  1.00  0.00     0.052 A 
HETATM    8  C   UNL     1       6.223  30.370  58.022  1.00  0.00     0.072 C 
HETATM    9  N   UNL     1       8.514  31.123  58.575  1.00  0.00    -0.280 N 
HETATM   10  H   UNL     1       8.253  31.831  59.252  1.00  0.00     0.189 HD
HETATM   11  N   UNL     1       9.813  30.937  58.336  1.00  0.00    -0.177 NA
HETATM   12  C   UNL     1       9.843  29.963  57.412  1.00  0.00     0.079 A 
HETATM   13  C   UNL     1      11.171  29.476  56.961  1.00  0.00     0.075 C 
ENDBRANCH   3   6
ENDBRANCH   1   2
BRANCH   1  14
HETATM   14  N   UNL     1       7.725  25.183  54.926  1.00  0.00     0.101 N 
HETATM   15  H   UNL     1       8.498  25.342  54.279  1.00  0.00     0.317 HD
BRANCH  14  16
HETATM   16  C   UNL     1       6.828  24.161  54.336  1.00  0.00     0.259 C 
BRANCH  16  17
HETATM   17  C   UNL     1       6.292  24.354  52.868  1.00  0.00     0.015 C 
HETATM   18  C   UNL     1       4.855  24.925  52.853  1.00  0.00     0.012 C 
HETATM   19  C   UNL     1       7.136  25.326  52.025  1.00  0.00     0.012 C 
ENDBRANCH  16  17
BRANCH  16  20
HETATM   20  C   UNL     1       7.587  22.827  54.481  1.00  0.00    -0.003 A 
HETATM   21  C   UNL     1       8.162  22.393  55.689  1.00  0.00     0.042 A 
HETATM   22 CL   UNL     1       8.042  23.295  57.155  1.00  0.00    -0.084 Cl
HETATM   23  C   UNL     1       8.862  21.181  55.751  1.00  0.00     0.024 A 
HETATM   24  C   UNL     1       8.999  20.380  54.618  1.00  0.00     0.002 A 
HETATM   25  C   UNL     1       8.436  20.788  53.414  1.00  0.00     0.001 A 
HETATM   26  C   UNL     1       7.741  21.997  53.346  1.00  0.00     0.011 A 
ENDBRANCH  16  20
ENDBRANCH  14  16
ENDBRANCH   1  14
TORSDOF 6
ENDMDL
MODEL 3
REMARK VINA RESULT:      -7.9      3.009      7.550
REMARK  6 active torsions:
REMARK  status: ('A' for Active; 'I' for Inactive)
REMARK    1  A    between atoms: C_8  and  N_9 
REMARK       I    between atoms: N_9  and  C_10 
REMARK    2  A    between atoms: C_10  and  C_11 
REMARK    3  A    between atoms: C_11  and  N_12 
REMARK    4  A    between atoms: N_12  and  C_13 
REMARK    5  A    between atoms: C_13  and  C_14 
REMARK    6  A    between atoms: C_13  and  C_17 
ROOT
HETATM    1  C   UNL     1       8.082  25.776  57.529  1.00  0.00     0.372 C 
ENDROOT
BRANCH   1   2
HETATM    2  C   UNL     1       7.496  24.889  56.429  1.00  0.00     0.250 C 
HETATM    3  N   UNL     1       8.440  24.090  55.823  1.00  0.00    -0.322 N 
HETATM    4  H   UNL     1       9.404  24.343  56.019  1.00  0.00     0.169 HD
HETATM    5  O   UNL     1       6.288  24.897  56.212  1.00  0.00    -0.271 OA
BRANCH   3   6
HETATM    6  C   UNL     1       8.214  23.073  54.910  1.00  0.00     0.085 A 
HETATM    7  C   UNL     1       8.156  21.743  55.286  1.00  0.00     0.052 A 
HETATM    8  C   UNL     1       8.314  21.045  56.582  1.00  0.00     0.072 C 
HETATM    9  N   UNL     1       7.934  21.040  54.137  1.00  0.00    -0.280 N 
HETATM   10  H   UNL     1       7.852  20.036  54.024  1.00  0.00     0.189 HD
HETATM   11  N   UNL     1       7.800  21.803  53.050  1.00  0.00    -0.177 NA
HETATM   12  C   UNL     1       7.963  23.056  53.504  1.00  0.00     0.079 A 
HETATM   13  C   UNL     1       7.817  24.169  52.532  1.00  0.00     0.075 C 
ENDBRANCH   3   6
ENDBRANCH   1   2
BRANCH   1  14
HETATM   14  N   UNL     1       7.565  27.147  57.545  1.00  0.00     0.101 N 
HETATM   15  H   UNL     1       6.563  27.085  57.363  1.00  0.00     0.317 HD
BRANCH  14  16
HETATM   16  C   UNL     1       8.142  28.161  56.631  1.00  0.00     0.259 C 
BRANCH  16  17
HETATM   17  C   UNL     1       7.347  28.581  55.338  1.00  0.00     0.015 C 
HETATM   18  C   UNL     1       7.848  27.825  54.086  1.00  0.00     0.012 C 
HETATM   19  C   UNL     1       5.837  28.295  55.421  1.00  0.00     0.012 C 
ENDBRANCH  16  17
BRANCH  16  20
HETATM   20  C   UNL     1       8.442  29.383  57.522  1.00  0.00    -0.003 A 
HETATM   21  C   UNL     1       9.712  29.977  57.616  1.00  0.00     0.042 A 
HETATM   22 CL   UNL     1      11.070  29.422  56.705  1.00  0.00    -0.084 Cl
HETATM   23  C   UNL     1       9.928  31.071  58.464  1.00  0.00     0.024 A 
HETATM   24  C   UNL     1       8.886  31.594  59.229  1.00  0.00     0.002 A 
HETATM   25  C   UNL     1       7.621  31.024  59.150  1.00  0.00     0.001 A 
HETATM   26  C   UNL     1       7.402  29.931  58.309  1.00  0.00     0.011 A 
ENDBRANCH  16  20
ENDBRANCH  14  16
ENDBRANCH   1  14
TORSDOF 6
ENDMDL
MODEL 4
REMARK VINA RESULT:      -7.8      2.034      2.665
REMARK  6 active torsions:
REMARK  status: ('A' for Active; 'I' for Inactive)
REMARK    1  A    between atoms: C_8  and  N_9 
REMARK       I    between atoms: N_9  and  C_10 
REMARK    2  A    between atoms: C_10  and  C_11 
REMARK    3  A    between atoms: C_11  and  N_12 
REMARK    4  A    between atoms: N_12  and  C_13 
REMARK    5  A    between atoms: C_13  and  C_14 
REMARK    6  A    between atoms: C_13  and  C_17 
ROOT
HETATM    1  C   UNL     1       7.146  26.548  55.318  1.00  0.00     0.372 C 
ENDROOT
BRANCH   1   2
HETATM    2  C   UNL     1       7.870  27.308  56.431  1.00  0.00     0.250 C 
HETATM    3  N   UNL     1       7.892  28.670  56.226  1.00  0.00    -0.322 N 
HETATM    4  H   UNL     1       7.633  28.965  55.289  1.00  0.00     0.169 HD
HETATM    5  O   UNL     1       8.304  26.702  57.407  1.00  0.00    -0.271 OA
BRANCH   3   6
HETATM    6  C   UNL     1       8.325  29.642  57.112  1.00  0.00     0.085 A 
HETATM    7  C   UNL     1       9.665  29.923  57.303  1.00  0.00     0.052 A 
HETATM    8  C   UNL     1      10.913  29.361  56.738  1.00  0.00     0.072 C 
HETATM    9  N   UNL     1       9.709  30.913  58.243  1.00  0.00    -0.280 N 
HETATM   10  H   UNL     1      10.527  31.358  58.645  1.00  0.00     0.189 HD
HETATM   11  N   UNL     1       8.509  31.328  58.651  1.00  0.00    -0.177 NA
HETATM   12  C   UNL     1       7.644  30.565  57.964  1.00  0.00     0.079 A 
HETATM   13  C   UNL     1       6.193  30.819  58.153  1.00  0.00     0.075 C 
ENDBRANCH   3   6
ENDBRANCH   1   2
BRANCH   1  14
HETATM   14  N   UNL     1       7.684  25.214  55.042  1.00  0.00     0.101 N 
HETATM   15  H   UNL     1       8.502  25.343  54.446  1.00  0.00     0.317 HD
BRANCH  14  16
HETATM   16  C   UNL     1       6.815  24.185  54.422  1.00  0.00     0.259 C 
BRANCH  16  17
HETATM   17  C   UNL     1       6.324  24.378  52.938  1.00  0.00     0.015 C 
HETATM   18  C   UNL     1       4.914  25.008  52.879  1.00  0.00     0.012 C 
HETATM   19  C   UNL     1       7.229  25.300  52.103  1.00  0.00     0.012 C 
ENDBRANCH  16  17
BRANCH  16  20
HETATM   20  C   UNL     1       7.581  22.857  54.588  1.00  0.00    -0.003 A 
HETATM   21  C   UNL     1       8.173  22.454  55.797  1.00  0.00     0.042 A 
HETATM   22 CL   UNL     1       8.071  23.390  57.244  1.00  0.00    -0.084 Cl
HETATM   23  C   UNL     1       8.878  21.246  55.879  1.00  0.00     0.024 A 
HETATM   24  C   UNL     1       9.003  20.419  54.762  1.00  0.00     0.002 A 
HETATM   25  C   UNL     1       8.422  20.797  53.558  1.00  0.00     0.001 A 
HETATM   26  C   UNL     1       7.722  22.002  53.471  1.00  0.00     0.011 A 
ENDBRANCH  16  20
ENDBRANCH  14  16
ENDBRANCH   1  14
TORSDOF 6
ENDMDL
MODEL 5
REMARK VINA RESULT:      -7.8      2.435      3.608
REMARK  6 active torsions:
REMARK  status: ('A' for Active; 'I' for Inactive)
REMARK    1  A    between atoms: C_8  and  N_9 
REMARK       I    between atoms: N_9  and  C_10 
REMARK    2  A    between atoms: C_10  and  C_11 
REMARK    3  A    between atoms: C_11  and  N_12 
REMARK    4  A    between atoms: N_12  and  C_13 
REMARK    5  A    between atoms: C_13  and  C_14 
REMARK    6  A    between atoms: C_13  and  C_17 
ROOT
HETATM    1  C   UNL     1       7.932  25.494  56.140  1.00  0.00     0.372 C 
ENDROOT
BRANCH   1   2
HETATM    2  C   UNL     1       7.248  26.848  55.951  1.00  0.00     0.250 C 
HETATM    3  N   UNL     1       6.787  27.387  57.132  1.00  0.00    -0.322 N 
HETATM    4  H   UNL     1       6.760  26.740  57.916  1.00  0.00     0.169 HD
HETATM    5  O   UNL     1       7.209  27.369  54.839  1.00  0.00    -0.271 OA
BRANCH   3   6
HETATM    6  C   UNL     1       6.268  28.656  57.327  1.00  0.00     0.085 A 
HETATM    7  C   UNL     1       6.948  29.631  58.033  1.00  0.00     0.052 A 
HETATM    8  C   UNL     1       8.249  29.656  58.739  1.00  0.00     0.072 C 
HETATM    9  N   UNL     1       6.137  30.730  58.029  1.00  0.00    -0.280 N 
HETATM   10  H   UNL     1       6.300  31.630  58.467  1.00  0.00     0.189 HD
HETATM   11  N   UNL     1       5.004  30.566  57.344  1.00  0.00    -0.177 NA
HETATM   12  C   UNL     1       5.067  29.300  56.899  1.00  0.00     0.079 A 
HETATM   13  C   UNL     1       3.960  28.812  56.039  1.00  0.00     0.075 C 
ENDBRANCH   3   6
ENDBRANCH   1   2
BRANCH   1  14
HETATM   14  N   UNL     1       8.133  24.736  54.902  1.00  0.00     0.101 N 
HETATM   15  H   UNL     1       8.370  25.414  54.177  1.00  0.00     0.317 HD
BRANCH  14  16
HETATM   16  C   UNL     1       7.048  23.867  54.389  1.00  0.00     0.259 C 
BRANCH  16  17
HETATM   17  C   UNL     1       6.316  24.250  53.047  1.00  0.00     0.015 C 
HETATM   18  C   UNL     1       4.984  24.989  53.313  1.00  0.00     0.012 C 
HETATM   19  C   UNL     1       7.137  25.184  52.141  1.00  0.00     0.012 C 
ENDBRANCH  16  17
BRANCH  16  20
HETATM   20  C   UNL     1       7.667  22.457  54.302  1.00  0.00    -0.003 A 
HETATM   21  C   UNL     1       8.132  21.748  55.423  1.00  0.00     0.042 A 
HETATM   22 CL   UNL     1       8.019  22.367  57.030  1.00  0.00    -0.084 Cl
HETATM   23  C   UNL     1       8.709  20.479  55.276  1.00  0.00     0.024 A 
HETATM   24  C   UNL     1       8.830  19.896  54.016  1.00  0.00     0.002 A 
HETATM   25  C   UNL     1       8.376  20.578  52.894  1.00  0.00     0.001 A 
HETATM   26  C   UNL     1       7.803  21.844  53.035  1.00  0.00     0.011 A 
ENDBRANCH  16  20
ENDBRANCH  14  16
ENDBRANCH   1  14
TORSDOF 6
ENDMDL
MODEL 6
REMARK VINA RESULT:      -7.8      4.566      7.600
REMARK  6 active torsions:
REMARK  status: ('A' for Active; 'I' for Inactive)
REMARK    1  A    between atoms: C_8  and  N_9 
REMARK       I    between atoms: N_9  and  C_10 
REMARK    2  A    between atoms: C_10  and  C_11 
REMARK    3  A    between atoms: C_11  and  N_12 
REMARK    4  A    between atoms: N_12  and  C_13 
REMARK    5  A    between atoms: C_13  and  C_14 
REMARK    6  A    between atoms: C_13  and  C_17 
ROOT
HETATM    1  C   UNL     1       5.033  26.335  53.089  1.00  0.00     0.372 C 
ENDROOT
BRANCH   1   2
HETATM    2  C   UNL     1       5.332  26.199  51.595  1.00  0.00     0.250 C 
HETATM    3  N   UNL     1       4.347  26.739  50.798  1.00  0.00    -0.322 N 
HETATM    4  H   UNL     1       3.476  26.950  51.278  1.00  0.00     0.169 HD
HETATM    5  O   UNL     1       6.393  25.706  51.222  1.00  0.00    -0.271 OA
BRANCH   3   6
HETATM    6  C   UNL     1       4.385  26.918  49.425  1.00  0.00     0.085 A 
HETATM    7  C   UNL     1       5.020  27.997  48.839  1.00  0.00     0.052 A 
HETATM    8  C   UNL     1       5.746  29.168  49.381  1.00  0.00     0.072 C 
HETATM    9  N   UNL     1       4.844  27.848  47.493  1.00  0.00    -0.280 N 
HETATM   10  H   UNL     1       5.158  28.462  46.749  1.00  0.00     0.189 HD
HETATM   11  N   UNL     1       4.182  26.741  47.151  1.00  0.00    -0.177 NA
HETATM   12  C   UNL     1       3.897  26.151  48.323  1.00  0.00     0.079 A 
HETATM   13  C   UNL     1       3.197  24.843  48.288  1.00  0.00     0.075 C 
ENDBRANCH   3   6
ENDBRANCH   1   2
BRANCH   1  14
HETATM   14  N   UNL     1       5.471  25.199  53.903  1.00  0.00     0.101 N 
HETATM   15  H   UNL     1       4.684  24.945  54.501  1.00  0.00     0.317 HD
BRANCH  14  16
HETATM   16  C   UNL     1       6.679  25.327  54.753  1.00  0.00     0.259 C 
BRANCH  16  17
HETATM   17  C   UNL     1       6.516  25.625  56.291  1.00  0.00     0.015 C 
HETATM   18  C   UNL     1       6.642  27.136  56.597  1.00  0.00     0.012 C 
HETATM   19  C   UNL     1       5.154  25.196  56.863  1.00  0.00     0.012 C 
ENDBRANCH  16  17
BRANCH  16  20
HETATM   20  C   UNL     1       7.476  24.028  54.519  1.00  0.00    -0.003 A 
HETATM   21  C   UNL     1       8.509  23.593  55.367  1.00  0.00     0.042 A 
HETATM   22 CL   UNL     1       8.969  24.451  56.792  1.00  0.00    -0.084 Cl
HETATM   23  C   UNL     1       9.214  22.415  55.087  1.00  0.00     0.024 A 
HETATM   24  C   UNL     1       8.902  21.650  53.963  1.00  0.00     0.002 A 
HETATM   25  C   UNL     1       7.883  22.059  53.113  1.00  0.00     0.001 A 
HETATM   26  C   UNL     1       7.180  23.235  53.385  1.00  0.00     0.011 A 
ENDBRANCH  16  20
ENDBRANCH  14  16
ENDBRANCH   1  14
TORSDOF 6
ENDMDL
MODEL 7
REMARK VINA RESULT:      -7.7      4.039      5.459
REMARK  6 active torsions:
REMARK  status: ('A' for Active; 'I' for Inactive)
REMARK    1  A    between atoms: C_8  and  N_9 
REMARK       I    between atoms: N_9  and  C_10 
REMARK    2  A    between atoms: C_10  and  C_11 
REMARK    3  A    between atoms: C_11  and  N_12 
REMARK    4  A    between atoms: N_12  and  C_13 
REMARK    5  A    between atoms: C_13  and  C_14 
REMARK    6  A    between atoms: C_13  and  C_17 
ROOT
HETATM    1  C   UNL     1       4.732  25.196  52.888  1.00  0.00     0.372 C 
ENDROOT
BRANCH   1   2
HETATM    2  C   UNL     1       4.780  26.702  52.631  1.00  0.00     0.250 C 
HETATM    3  N   UNL     1       3.701  27.373  53.162  1.00  0.00    -0.322 N 
HETATM    4  H   UNL     1       2.928  26.779  53.451  1.00  0.00     0.169 HD
HETATM    5  O   UNL     1       5.746  27.199  52.058  1.00  0.00    -0.271 OA
BRANCH   3   6
HETATM    6  C   UNL     1       3.524  28.744  53.241  1.00  0.00     0.085 A 
HETATM    7  C   UNL     1       2.936  29.472  52.222  1.00  0.00     0.052 A 
HETATM    8  C   UNL     1       2.396  29.109  50.892  1.00  0.00     0.072 C 
HETATM    9  N   UNL     1       2.942  30.772  52.641  1.00  0.00    -0.280 N 
HETATM   10  H   UNL     1       2.607  31.591  52.145  1.00  0.00     0.189 HD
HETATM   11  N   UNL     1       3.446  30.947  53.864  1.00  0.00    -0.177 NA
HETATM   12  C   UNL     1       3.804  29.712  54.253  1.00  0.00     0.079 A 
HETATM   13  C   UNL     1       4.362  29.552  55.619  1.00  0.00     0.075 C 
ENDBRANCH   3   6
ENDBRANCH   1   2
BRANCH   1  14
HETATM   14  N   UNL     1       5.092  24.800  54.252  1.00  0.00     0.101 N 
HETATM   15  H   UNL     1       4.429  25.259  54.876  1.00  0.00     0.317 HD
BRANCH  14  16
HETATM   16  C   UNL     1       6.462  25.061  54.755  1.00  0.00     0.259 C 
BRANCH  16  17
HETATM   17  C   UNL     1       6.661  25.565  56.234  1.00  0.00     0.015 C 
HETATM   18  C   UNL     1       7.279  26.981  56.278  1.00  0.00     0.012 C 
HETATM   19  C   UNL     1       5.352  25.655  57.038  1.00  0.00     0.012 C 
ENDBRANCH  16  17
BRANCH  16  20
HETATM   20  C   UNL     1       7.240  23.755  54.502  1.00  0.00    -0.003 A 
HETATM   21  C   UNL     1       7.922  23.482  53.303  1.00  0.00     0.042 A 
HETATM   22 CL   UNL     1       7.994  24.607  51.995  1.00  0.00    -0.084 Cl
HETATM   23  C   UNL     1       8.591  22.264  53.123  1.00  0.00     0.024 A 
HETATM   24  C   UNL     1       8.596  21.301  54.131  1.00  0.00     0.002 A 
HETATM   25  C   UNL     1       7.932  21.550  55.325  1.00  0.00     0.001 A 
HETATM   26  C   UNL     1       7.260  22.760  55.507  1.00  0.00     0.011 A 
ENDBRANCH  16  20
ENDBRANCH  14  16
ENDBRANCH   1  14
TORSDOF 6
ENDMDL
MODEL 8
REMARK VINA RESULT:      -7.5      4.841      7.498
REMARK  6 active torsions:
REMARK  status: ('A' for Active; 'I' for Inactive)
REMARK    1  A    between atoms: C_8  and  N_9 
REMARK       I    between atoms: N_9  and  C_10 
REMARK    2  A    between atoms: C_10  and  C_11 
REMARK    3  A    between atoms: C_11  and  N_12 
REMARK    4  A    between atoms: N_12  and  C_13 
REMARK    5  A    between atoms: C_13  and  C_14 
REMARK    6  A    between atoms: C_13  and  C_17 
ROOT
HETATM    1  C   UNL     1       6.822  25.471  51.561  1.00  0.00     0.372 C 
ENDROOT
BRANCH   1   2
HETATM    2  C   UNL     1       5.555  26.303  51.358  1.00  0.00     0.250 C 
HETATM    3  N   UNL     1       5.345  26.652  50.043  1.00  0.00    -0.322 N 
HETATM    4  H   UNL     1       6.143  26.510  49.430  1.00  0.00     0.169 HD
HETATM    5  O   UNL     1       4.816  26.540  52.311  1.00  0.00    -0.271 OA
BRANCH   3   6
HETATM    6  C   UNL     1       4.222  27.260  49.507  1.00  0.00     0.085 A 
HETATM    7  C   UNL     1       3.352  26.594  48.664  1.00  0.00     0.052 A 
HETATM    8  C   UNL     1       3.327  25.223  48.105  1.00  0.00     0.072 C 
HETATM    9  N   UNL     1       2.386  27.500  48.332  1.00  0.00    -0.280 N 
HETATM   10  H   UNL     1       1.592  27.370  47.715  1.00  0.00     0.189 HD
HETATM   11  N   UNL     1       2.531  28.689  48.921  1.00  0.00    -0.177 NA
HETATM   12  C   UNL     1       3.650  28.561  49.653  1.00  0.00     0.079 A 
HETATM   13  C   UNL     1       4.066  29.716  50.488  1.00  0.00     0.075 C 
ENDBRANCH   3   6
ENDBRANCH   1   2
BRANCH   1  14
HETATM   14  N   UNL     1       6.723  24.457  52.613  1.00  0.00     0.101 N 
HETATM   15  H   UNL     1       5.759  24.473  52.947  1.00  0.00     0.317 HD
BRANCH  14  16
HETATM   16  C   UNL     1       7.623  24.528  53.789  1.00  0.00     0.259 C 
BRANCH  16  17
HETATM   17  C   UNL     1       7.138  25.267  55.093  1.00  0.00     0.015 C 
HETATM   18  C   UNL     1       7.347  26.796  54.996  1.00  0.00     0.012 C 
HETATM   19  C   UNL     1       5.642  25.069  55.395  1.00  0.00     0.012 C 
ENDBRANCH  16  17
BRANCH  16  20
HETATM   20  C   UNL     1       8.011  23.066  54.089  1.00  0.00    -0.003 A 
HETATM   21  C   UNL     1       8.701  22.673  55.249  1.00  0.00     0.042 A 
HETATM   22 CL   UNL     1       9.154  23.788  56.487  1.00  0.00    -0.084 Cl
HETATM   23  C   UNL     1       9.048  21.331  55.453  1.00  0.00     0.024 A 
HETATM   24  C   UNL     1       8.712  20.360  54.511  1.00  0.00     0.002 A 
HETATM   25  C   UNL     1       8.027  20.725  53.359  1.00  0.00     0.001 A 
HETATM   26  C   UNL     1       7.683  22.062  53.149  1.00  0.00     0.011 A 
ENDBRANCH  16  20
ENDBRANCH  14  16
ENDBRANCH   1  14
TORSDOF 6
ENDMDL
MODEL 9
REMARK VINA RESULT:      -7.4      4.572      8.029
REMARK  6 active torsions:
REMARK  status: ('A' for Active; 'I' for Inactive)
REMARK    1  A    between atoms: C_8  and  N_9 
REMARK       I    between atoms: N_9  and  C_10 
REMARK    2  A    between atoms: C_10  and  C_11 
REMARK    3  A    between atoms: C_11  and  N_12 
REMARK    4  A    between atoms: N_12  and  C_13 
REMARK    5  A    between atoms: C_13  and  C_14 
REMARK    6  A    between atoms: C_13  and  C_17 
ROOT
HETATM    1  C   UNL     1       4.943  26.210  53.033  1.00  0.00     0.372 C 
ENDROOT
BRANCH   1   2
HETATM    2  C   UNL     1       5.266  26.118  51.541  1.00  0.00     0.250 C 
HETATM    3  N   UNL     1       4.273  26.642  50.742  1.00  0.00    -0.322 N 
HETATM    4  H   UNL     1       3.390  26.812  51.215  1.00  0.00     0.169 HD
HETATM    5  O   UNL     1       6.348  25.669  51.172  1.00  0.00    -0.271 OA
BRANCH   3   6
HETATM    6  C   UNL     1       4.324  26.854  49.375  1.00  0.00     0.085 A 
HETATM    7  C   UNL     1       4.967  27.945  48.819  1.00  0.00     0.052 A 
HETATM    8  C   UNL     1       5.691  29.100  49.395  1.00  0.00     0.072 C 
HETATM    9  N   UNL     1       4.800  27.828  47.469  1.00  0.00    -0.280 N 
HETATM   10  H   UNL     1       5.123  28.458  46.742  1.00  0.00     0.189 HD
HETATM   11  N   UNL     1       4.139  26.731  47.095  1.00  0.00    -0.177 NA
HETATM   12  C   UNL     1       3.842  26.115  48.251  1.00  0.00     0.079 A 
HETATM   13  C   UNL     1       3.139  24.809  48.179  1.00  0.00     0.075 C 
ENDBRANCH   3   6
ENDBRANCH   1   2
BRANCH   1  14
HETATM   14  N   UNL     1       5.092  24.950  53.766  1.00  0.00     0.101 N 
HETATM   15  H   UNL     1       4.245  24.832  54.323  1.00  0.00     0.317 HD
BRANCH  14  16
HETATM   16  C   UNL     1       6.263  24.751  54.653  1.00  0.00     0.259 C 
BRANCH  16  17
HETATM   17  C   UNL     1       7.609  24.201  54.048  1.00  0.00     0.015 C 
HETATM   18  C   UNL     1       8.538  23.628  55.144  1.00  0.00     0.012 C 
HETATM   19  C   UNL     1       7.411  23.063  53.032  1.00  0.00     0.012 C 
ENDBRANCH  16  17
BRANCH  16  20
HETATM   20  C   UNL     1       6.479  26.111  55.347  1.00  0.00    -0.003 A 
HETATM   21  C   UNL     1       5.820  26.487  56.530  1.00  0.00     0.042 A 
HETATM   22 CL   UNL     1       4.724  25.442  57.359  1.00  0.00    -0.084 Cl
HETATM   23  C   UNL     1       6.039  27.748  57.100  1.00  0.00     0.024 A 
HETATM   24  C   UNL     1       6.918  28.653  56.506  1.00  0.00     0.002 A 
HETATM   25  C   UNL     1       7.582  28.302  55.337  1.00  0.00     0.001 A 
HETATM   26  C   UNL     1       7.364  27.048  54.763  1.00  0.00     0.011 A 
ENDBRANCH  16  20
ENDBRANCH  14  16
ENDBRANCH   1  14
TORSDOF 6
ENDMDL
MODEL 10
REMARK VINA RESULT:      -7.3      3.551      4.975
REMARK  6 active torsions:
REMARK  status: ('A' for Active; 'I' for Inactive)
REMARK    1  A    between atoms: C_8  and  N_9 
REMARK       I    between atoms: N_9  and  C_10 
REMARK    2  A    between atoms: C_10  and  C_11 
REMARK    3  A    between atoms: C_11  and  N_12 
REMARK    4  A    between atoms: N_12  and  C_13 
REMARK    5  A    between atoms: C_13  and  C_14 
REMARK    6  A    between atoms: C_13  and  C_17 
ROOT
HETATM    1  C   UNL     1       5.248  24.996  53.882  1.00  0.00     0.372 C 
ENDROOT
BRANCH   1   2
HETATM    2  C   UNL     1       5.203  26.430  53.353  1.00  0.00     0.250 C 
HETATM    3  N   UNL     1       4.520  27.289  54.185  1.00  0.00    -0.322 N 
HETATM    4  H   UNL     1       3.962  26.835  54.903  1.00  0.00     0.169 HD
HETATM    5  O   UNL     1       5.795  26.723  52.318  1.00  0.00    -0.271 OA
BRANCH   3   6
HETATM    6  C   UNL     1       4.432  28.667  54.077  1.00  0.00     0.085 A 
HETATM    7  C   UNL     1       5.089  29.519  54.945  1.00  0.00     0.052 A 
HETATM    8  C   UNL     1       5.959  29.299  56.123  1.00  0.00     0.072 C 
HETATM    9  N   UNL     1       4.765  30.783  54.544  1.00  0.00    -0.280 N 
HETATM   10  H   UNL     1       5.050  31.664  54.960  1.00  0.00     0.189 HD
HETATM   11  N   UNL     1       3.985  30.827  53.463  1.00  0.00    -0.177 NA
HETATM   12  C   UNL     1       3.773  29.537  53.155  1.00  0.00     0.079 A 
HETATM   13  C   UNL     1       2.970  29.237  51.944  1.00  0.00     0.075 C 
ENDBRANCH   3   6
ENDBRANCH   1   2
BRANCH   1  14
HETATM   14  N   UNL     1       5.742  24.869  55.255  1.00  0.00     0.101 N 
HETATM   15  H   UNL     1       5.432  25.701  55.758  1.00  0.00     0.317 HD
BRANCH  14  16
HETATM   16  C   UNL     1       7.193  24.692  55.500  1.00  0.00     0.259 C 
BRANCH  16  17
HETATM   17  C   UNL     1       7.751  24.810  56.969  1.00  0.00     0.015 C 
HETATM   18  C   UNL     1       9.275  24.552  57.025  1.00  0.00     0.012 C 
HETATM   19  C   UNL     1       7.539  26.197  57.601  1.00  0.00     0.012 C 
ENDBRANCH  16  17
BRANCH  16  20
HETATM   20  C   UNL     1       7.543  23.324  54.880  1.00  0.00    -0.003 A 
HETATM   21  C   UNL     1       7.987  23.168  53.556  1.00  0.00     0.042 A 
HETATM   22 CL   UNL     1       8.229  24.504  52.490  1.00  0.00    -0.084 Cl
HETATM   23  C   UNL     1       8.265  21.895  53.041  1.00  0.00     0.024 A 
HETATM   24  C   UNL     1       8.109  20.759  53.835  1.00  0.00     0.002 A 
HETATM   25  C   UNL     1       7.674  20.889  55.148  1.00  0.00     0.001 A 
HETATM   26  C   UNL     1       7.392  22.156  55.663  1.00  0.00     0.011 A 
ENDBRANCH  16  20
ENDBRANCH  14  16
ENDBRANCH   1  14
TORSDOF 6
ENDMDL
