MODEL 1
REMARK VINA RESULT:      -8.8      0.000      0.000
REMARK  7 active torsions:
REMARK  status: ('A' for Active; 'I' for Inactive)
REMARK    1  A    between atoms: C_2  and  C_3 
REMARK    2  A    between atoms: C_6  and  C_7 
REMARK       I    between atoms: C_7  and  N_8 
REMARK    3  A    between atoms: C_14  and  C_15 
REMARK       I    between atoms: C_15  and  N_16 
REMARK    4  A    between atoms: N_16  and  C_17 
REMARK    5  A    between atoms: C_17  and  C_18 
REMARK       I    between atoms: N_25  and  C_26 
REMARK    6  A    between atoms: C_26  and  C_27 
REMARK    7  A    between atoms: C_30  and  O_31 
ROOT
HETATM    1  C   UNL     1       8.099  26.373  56.526  1.00  0.00     0.253 C 
HETATM    2  N   UNL     1       7.044  27.172  56.055  1.00  0.00    -0.348 N 
HETATM    3  C   UNL     1       5.860  26.614  55.410  1.00  0.00     0.131 C 
HETATM    4  C   UNL     1       4.656  27.531  55.471  1.00  0.00     0.081 C 
HETATM    5  C   UNL     1       4.931  28.980  55.048  1.00  0.00     0.142 C 
HETATM    6  O   UNL     1       3.831  29.716  55.664  1.00  0.00    -0.358 OA
HETATM    7  C   UNL     1       3.112  30.424  54.658  1.00  0.00     0.206 C 
HETATM    8  C   UNL     1       3.443  29.748  53.346  1.00  0.00     0.206 C 
HETATM    9  N   UNL     1       4.785  29.238  53.604  1.00  0.00    -0.300 N 
HETATM   10  C   UNL     1       5.616  28.644  52.667  1.00  0.00     0.257 C 
HETATM   11  O   UNL     1       6.672  28.086  52.942  1.00  0.00    -0.267 OA
HETATM   12  C   UNL     1       6.203  29.520  55.709  1.00  0.00     0.081 C 
HETATM   13  C   UNL     1       7.386  28.559  55.748  1.00  0.00     0.131 C 
HETATM   14  O   UNL     1       9.110  26.828  57.058  1.00  0.00    -0.267 OA
ENDROOT
BRANCH   8  15
HETATM   15  C   UNL     1       3.137  30.780  52.258  1.00  0.00     0.243 C 
HETATM   16  N   UNL     1       2.255  30.418  51.278  1.00  0.00    -0.354 N 
HETATM   17  H   UNL     1       1.727  29.551  51.320  1.00  0.00     0.162 HD
HETATM   18  O   UNL     1       3.774  31.834  52.209  1.00  0.00    -0.271 OA
BRANCH  16  19
HETATM   19  C   UNL     1       1.930  31.328  50.198  1.00  0.00     0.181 C 
BRANCH  19  20
HETATM   20  C   UNL     1       1.544  30.613  48.923  1.00  0.00     0.051 A 
HETATM   21  N   UNL     1       1.307  31.363  47.813  1.00  0.00    -0.264 NA
HETATM   22  C   UNL     1       0.951  30.700  46.690  1.00  0.00     0.117 A 
HETATM   23  C   UNL     1       0.810  29.324  46.615  1.00  0.00     0.019 A 
HETATM   24  C   UNL     1       1.041  28.574  47.762  1.00  0.00     0.003 A 
HETATM   25  C   UNL     1       1.410  29.226  48.935  1.00  0.00     0.029 A 
ENDBRANCH  19  20
ENDBRANCH  16  19
ENDBRANCH   8  15
BRANCH  10  26
HETATM   26  C   UNL     1       5.305  28.717  51.227  1.00  0.00     0.032 A 
HETATM   27  C   UNL     1       5.736  29.848  50.529  1.00  0.00     0.020 A 
HETATM   28  C   UNL     1       5.515  29.945  49.157  1.00  0.00     0.038 A 
HETATM   29  C   UNL     1       4.888  28.906  48.467  1.00  0.00     0.068 A 
HETATM   30  C   UNL     1       4.480  27.765  49.165  1.00  0.00     0.038 A 
HETATM   31  C   UNL     1       4.698  27.662  50.544  1.00  0.00     0.020 A 
BRANCH  29  32
HETATM   32  O   UNL     1       4.745  29.127  47.126  1.00  0.00    -0.356 OA
HETATM   33  C   UNL     1       4.610  30.479  46.707  1.00  0.00     0.210 C 
ENDBRANCH  29  32
ENDBRANCH  10  26
BRANCH   1  34
HETATM   34  C   UNL     1       8.018  24.900  56.381  1.00  0.00     0.032 A 
HETATM   35  C   UNL     1       7.638  24.324  55.165  1.00  0.00     0.017 A 
HETATM   36  C   UNL     1       7.580  22.935  55.041  1.00  0.00     0.008 A 
HETATM   37  C   UNL     1       7.941  22.108  56.116  1.00  0.00    -0.059 A 
HETATM   38  C   UNL     1       8.361  22.698  57.317  1.00  0.00     0.008 A 
HETATM   39  C   UNL     1       8.404  24.089  57.450  1.00  0.00     0.017 A 
BRANCH  37  40
HETATM   40  C   UNL     1       7.891  20.607  55.975  1.00  0.00     0.034 C 
HETATM   41  C   UNL     1       8.591  20.116  54.716  1.00  0.00     0.010 C 
ENDBRANCH  37  40
ENDBRANCH   1  34
TORSDOF 7
ENDMDL
MODEL 2
REMARK VINA RESULT:      -8.7      7.164     11.193
REMARK  7 active torsions:
REMARK  status: ('A' for Active; 'I' for Inactive)
REMARK    1  A    between atoms: C_2  and  C_3 
REMARK    2  A    between atoms: C_6  and  C_7 
REMARK       I    between atoms: C_7  and  N_8 
REMARK    3  A    between atoms: C_14  and  C_15 
REMARK       I    between atoms: C_15  and  N_16 
REMARK    4  A    between atoms: N_16  and  C_17 
REMARK    5  A    between atoms: C_17  and  C_18 
REMARK       I    between atoms: N_25  and  C_26 
REMARK    6  A    between atoms: C_26  and  C_27 
REMARK    7  A    between atoms: C_30  and  O_31 
ROOT
HETATM    1  C   UNL     1       9.568  29.726  56.810  1.00  0.00     0.253 C 
HETATM    2  N   UNL     1       9.166  30.264  58.044  1.00  0.00    -0.348 N 
HETATM    3  C   UNL     1       8.065  29.709  58.823  1.00  0.00     0.131 C 
HETATM    4  C   UNL     1       8.137  30.056  60.295  1.00  0.00     0.081 C 
HETATM    5  C   UNL     1       8.382  31.542  60.593  1.00  0.00     0.142 C 
HETATM    6  O   UNL     1       8.907  31.522  61.955  1.00  0.00    -0.358 OA
HETATM    7  C   UNL     1       8.087  32.333  62.792  1.00  0.00     0.206 C 
HETATM    8  C   UNL     1       6.760  32.469  62.080  1.00  0.00     0.206 C 
HETATM    9  N   UNL     1       7.160  32.361  60.681  1.00  0.00    -0.300 N 
HETATM   10  C   UNL     1       6.331  32.557  59.588  1.00  0.00     0.257 C 
HETATM   11  O   UNL     1       6.650  32.309  58.430  1.00  0.00    -0.267 OA
HETATM   12  C   UNL     1       9.515  32.103  59.728  1.00  0.00     0.081 C 
HETATM   13  C   UNL     1       9.508  31.667  58.268  1.00  0.00     0.131 C 
HETATM   14  O   UNL     1      10.485  30.191  56.133  1.00  0.00    -0.267 OA
ENDROOT
BRANCH   8  15
HETATM   15  C   UNL     1       6.101  33.720  62.665  1.00  0.00     0.243 C 
HETATM   16  N   UNL     1       4.830  33.591  63.155  1.00  0.00    -0.354 N 
HETATM   17  H   UNL     1       4.376  32.687  63.244  1.00  0.00     0.162 HD
HETATM   18  O   UNL     1       6.654  34.816  62.563  1.00  0.00    -0.271 OA
BRANCH  16  19
HETATM   19  C   UNL     1       4.127  34.733  63.705  1.00  0.00     0.181 C 
BRANCH  19  20
HETATM   20  C   UNL     1       4.389  34.929  65.181  1.00  0.00     0.051 A 
HETATM   21  N   UNL     1       4.447  33.827  65.976  1.00  0.00    -0.264 NA
HETATM   22  C   UNL     1       4.670  34.032  67.293  1.00  0.00     0.117 A 
HETATM   23  C   UNL     1       4.831  35.283  67.865  1.00  0.00     0.019 A 
HETATM   24  C   UNL     1       4.754  36.399  67.042  1.00  0.00     0.003 A 
HETATM   25  C   UNL     1       4.526  36.224  65.681  1.00  0.00     0.029 A 
ENDBRANCH  19  20
ENDBRANCH  16  19
ENDBRANCH   8  15
BRANCH  10  26
HETATM   26  C   UNL     1       4.998  33.167  59.750  1.00  0.00     0.032 A 
HETATM   27  C   UNL     1       4.870  34.528  59.457  1.00  0.00     0.020 A 
HETATM   28  C   UNL     1       3.623  35.143  59.543  1.00  0.00     0.038 A 
HETATM   29  C   UNL     1       2.492  34.403  59.894  1.00  0.00     0.068 A 
HETATM   30  C   UNL     1       2.620  33.037  60.163  1.00  0.00     0.038 A 
HETATM   31  C   UNL     1       3.871  32.412  60.079  1.00  0.00     0.020 A 
BRANCH  29  32
HETATM   32  O   UNL     1       1.334  35.128  59.930  1.00  0.00    -0.356 OA
HETATM   33  C   UNL     1       0.321  34.678  60.821  1.00  0.00     0.210 C 
ENDBRANCH  29  32
ENDBRANCH  10  26
BRANCH   1  34
HETATM   34  C   UNL     1       8.865  28.540  56.268  1.00  0.00     0.032 A 
HETATM   35  C   UNL     1       8.726  27.381  57.038  1.00  0.00     0.017 A 
HETATM   36  C   UNL     1       8.047  26.277  56.519  1.00  0.00     0.008 A 
HETATM   37  C   UNL     1       7.467  26.335  55.242  1.00  0.00    -0.059 A 
HETATM   38  C   UNL     1       7.578  27.517  54.496  1.00  0.00     0.008 A 
HETATM   39  C   UNL     1       8.270  28.618  55.007  1.00  0.00     0.017 A 
BRANCH  37  40
HETATM   40  C   UNL     1       6.723  25.144  54.688  1.00  0.00     0.034 C 
HETATM   41  C   UNL     1       7.471  24.468  53.548  1.00  0.00     0.010 C 
ENDBRANCH  37  40
ENDBRANCH   1  34
TORSDOF 7
ENDMDL
MODEL 3
REMARK VINA RESULT:      -8.7      3.101      8.680
REMARK  7 active torsions:
REMARK  status: ('A' for Active; 'I' for Inactive)
REMARK    1  A    between atoms: C_2  and  C_3 
REMARK    2  A    between atoms: C_6  and  C_7 
REMARK       I    between atoms: C_7  and  N_8 
REMARK    3  A    between atoms: C_14  and  C_15 
REMARK       I    between atoms: C_15  and  N_16 
REMARK    4  A    between atoms: N_16  and  C_17 
REMARK    5  A    between atoms: C_17  and  C_18 
REMARK       I    between atoms: N_25  and  C_26 
REMARK    6  A    between atoms: C_26  and  C_27 
REMARK    7  A    between atoms: C_30  and  O_31 
ROOT
HETATM    1  C   UNL     1       3.868  31.181  57.812  1.00  0.00     0.253 C 
HETATM    2  N   UNL     1       4.775  30.263  57.255  1.00  0.00    -0.348 N 
HETATM    3  C   UNL     1       5.763  30.644  56.251  1.00  0.00     0.131 C 
HETATM    4  C   UNL     1       6.945  29.699  56.185  1.00  0.00     0.081 C 
HETATM    5  C   UNL     1       6.575  28.211  56.116  1.00  0.00     0.142 C 
HETATM    6  O   UNL     1       7.793  27.548  56.572  1.00  0.00    -0.358 OA
HETATM    7  C   UNL     1       8.243  26.640  55.570  1.00  0.00     0.206 C 
HETATM    8  C   UNL     1       7.598  27.085  54.276  1.00  0.00     0.206 C 
HETATM    9  N   UNL     1       6.361  27.693  54.754  1.00  0.00    -0.300 N 
HETATM   10  C   UNL     1       5.324  28.147  53.953  1.00  0.00     0.257 C 
HETATM   11  O   UNL     1       4.368  28.792  54.368  1.00  0.00    -0.267 OA
HETATM   12  C   UNL     1       5.506  27.856  57.154  1.00  0.00     0.081 C 
HETATM   13  C   UNL     1       4.369  28.861  57.301  1.00  0.00     0.131 C 
HETATM   14  O   UNL     1       3.020  30.874  58.648  1.00  0.00    -0.267 OA
ENDROOT
BRANCH   8  15
HETATM   15  C   UNL     1       7.627  25.863  53.356  1.00  0.00     0.243 C 
HETATM   16  N   UNL     1       7.128  24.690  53.851  1.00  0.00    -0.354 N 
HETATM   17  H   UNL     1       6.647  24.643  54.745  1.00  0.00     0.162 HD
HETATM   18  O   UNL     1       8.205  25.921  52.269  1.00  0.00    -0.271 OA
BRANCH  16  19
HETATM   19  C   UNL     1       7.140  23.481  53.052  1.00  0.00     0.181 C 
BRANCH  19  20
HETATM   20  C   UNL     1       7.638  22.276  53.816  1.00  0.00     0.051 A 
HETATM   21  N   UNL     1       7.560  22.300  55.174  1.00  0.00    -0.264 NA
HETATM   22  C   UNL     1       8.023  21.215  55.834  1.00  0.00     0.117 A 
HETATM   23  C   UNL     1       8.572  20.106  55.211  1.00  0.00     0.019 A 
HETATM   24  C   UNL     1       8.658  20.104  53.825  1.00  0.00     0.003 A 
HETATM   25  C   UNL     1       8.189  21.205  53.114  1.00  0.00     0.029 A 
ENDBRANCH  19  20
ENDBRANCH  16  19
ENDBRANCH   8  15
BRANCH  10  26
HETATM   26  C   UNL     1       5.271  27.804  52.519  1.00  0.00     0.032 A 
HETATM   27  C   UNL     1       4.772  26.545  52.174  1.00  0.00     0.020 A 
HETATM   28  C   UNL     1       4.651  26.189  50.833  1.00  0.00     0.038 A 
HETATM   29  C   UNL     1       4.999  27.093  49.827  1.00  0.00     0.068 A 
HETATM   30  C   UNL     1       5.475  28.360  50.176  1.00  0.00     0.038 A 
HETATM   31  C   UNL     1       5.601  28.724  51.523  1.00  0.00     0.020 A 
BRANCH  29  32
HETATM   32  O   UNL     1       4.820  26.619  48.557  1.00  0.00    -0.356 OA
HETATM   33  C   UNL     1       3.542  26.081  48.246  1.00  0.00     0.210 C 
ENDBRANCH  29  32
ENDBRANCH  10  26
BRANCH   1  34
HETATM   34  C   UNL     1       3.910  32.599  57.383  1.00  0.00     0.032 A 
HETATM   35  C   UNL     1       3.237  33.014  56.230  1.00  0.00     0.017 A 
HETATM   36  C   UNL     1       3.275  34.356  55.847  1.00  0.00     0.008 A 
HETATM   37  C   UNL     1       3.950  35.302  56.634  1.00  0.00    -0.059 A 
HETATM   38  C   UNL     1       4.586  34.879  57.810  1.00  0.00     0.008 A 
HETATM   39  C   UNL     1       4.564  33.534  58.187  1.00  0.00     0.017 A 
BRANCH  37  40
HETATM   40  C   UNL     1       3.978  36.754  56.225  1.00  0.00     0.034 C 
HETATM   41  C   UNL     1       5.374  37.356  56.309  1.00  0.00     0.010 C 
ENDBRANCH  37  40
ENDBRANCH   1  34
TORSDOF 7
ENDMDL
MODEL 4
REMARK VINA RESULT:      -8.4      1.751      2.603
REMARK  7 active torsions:
REMARK  status: ('A' for Active; 'I' for Inactive)
REMARK    1  A    between atoms: C_2  and  C_3 
REMARK    2  A    between atoms: C_6  and  C_7 
REMARK       I    between atoms: C_7  and  N_8 
REMARK    3  A    between atoms: C_14  and  C_15 
REMARK       I    between atoms: C_15  and  N_16 
REMARK    4  A    between atoms: N_16  and  C_17 
REMARK    5  A    between atoms: C_17  and  C_18 
REMARK       I    between atoms: N_25  and  C_26 
REMARK    6  A    between atoms: C_26  and  C_27 
REMARK    7  A    between atoms: C_30  and  O_31 
ROOT
HETATM    1  C   UNL     1       8.073  26.541  56.504  1.00  0.00     0.253 C 
HETATM    2  N   UNL     1       7.017  27.361  56.072  1.00  0.00    -0.348 N 
HETATM    3  C   UNL     1       5.819  26.830  55.431  1.00  0.00     0.131 C 
HETATM    4  C   UNL     1       4.623  27.754  55.535  1.00  0.00     0.081 C 
HETATM    5  C   UNL     1       4.904  29.212  55.147  1.00  0.00     0.142 C 
HETATM    6  O   UNL     1       3.820  29.940  55.800  1.00  0.00    -0.358 OA
HETATM    7  C   UNL     1       3.090  30.681  54.825  1.00  0.00     0.206 C 
HETATM    8  C   UNL     1       3.396  30.038  53.491  1.00  0.00     0.206 C 
HETATM    9  N   UNL     1       4.737  29.511  53.714  1.00  0.00    -0.300 N 
HETATM   10  C   UNL     1       5.548  28.936  52.748  1.00  0.00     0.257 C 
HETATM   11  O   UNL     1       6.604  28.362  52.991  1.00  0.00    -0.267 OA
HETATM   12  C   UNL     1       6.190  29.725  55.803  1.00  0.00     0.081 C 
HETATM   13  C   UNL     1       7.365  28.753  55.797  1.00  0.00     0.131 C 
HETATM   14  O   UNL     1       9.096  26.974  57.032  1.00  0.00    -0.267 OA
ENDROOT
BRANCH   8  15
HETATM   15  C   UNL     1       3.081  31.101  52.436  1.00  0.00     0.243 C 
HETATM   16  N   UNL     1       3.373  32.401  52.745  1.00  0.00    -0.354 N 
HETATM   17  H   UNL     1       3.885  32.654  53.585  1.00  0.00     0.162 HD
HETATM   18  O   UNL     1       2.465  30.795  51.414  1.00  0.00    -0.271 OA
BRANCH  16  19
HETATM   19  C   UNL     1       3.084  33.470  51.810  1.00  0.00     0.181 C 
BRANCH  19  20
HETATM   20  C   UNL     1       4.238  33.762  50.878  1.00  0.00     0.051 A 
HETATM   21  N   UNL     1       4.053  33.559  49.545  1.00  0.00    -0.264 NA
HETATM   22  C   UNL     1       5.104  33.816  48.735  1.00  0.00     0.117 A 
HETATM   23  C   UNL     1       6.338  34.257  49.184  1.00  0.00     0.019 A 
HETATM   24  C   UNL     1       6.515  34.444  50.549  1.00  0.00     0.003 A 
HETATM   25  C   UNL     1       5.452  34.191  51.411  1.00  0.00     0.029 A 
ENDBRANCH  19  20
ENDBRANCH  16  19
ENDBRANCH   8  15
BRANCH  10  26
HETATM   26  C   UNL     1       5.215  29.050  51.316  1.00  0.00     0.032 A 
HETATM   27  C   UNL     1       5.761  30.126  50.609  1.00  0.00     0.020 A 
HETATM   28  C   UNL     1       5.521  30.253  49.243  1.00  0.00     0.038 A 
HETATM   29  C   UNL     1       4.762  29.297  48.566  1.00  0.00     0.068 A 
HETATM   30  C   UNL     1       4.238  28.209  49.271  1.00  0.00     0.038 A 
HETATM   31  C   UNL     1       4.474  28.076  50.645  1.00  0.00     0.020 A 
BRANCH  29  32
HETATM   32  O   UNL     1       4.615  29.538  47.228  1.00  0.00    -0.356 OA
HETATM   33  C   UNL     1       4.009  30.770  46.860  1.00  0.00     0.210 C 
ENDBRANCH  29  32
ENDBRANCH  10  26
BRANCH   1  34
HETATM   34  C   UNL     1       7.977  25.073  56.321  1.00  0.00     0.032 A 
HETATM   35  C   UNL     1       7.547  24.534  55.104  1.00  0.00     0.017 A 
HETATM   36  C   UNL     1       7.477  23.150  54.943  1.00  0.00     0.008 A 
HETATM   37  C   UNL     1       7.873  22.291  55.980  1.00  0.00    -0.059 A 
HETATM   38  C   UNL     1       8.342  22.844  57.181  1.00  0.00     0.008 A 
HETATM   39  C   UNL     1       8.398  24.230  57.351  1.00  0.00     0.017 A 
BRANCH  37  40
HETATM   40  C   UNL     1       7.808  20.794  55.799  1.00  0.00     0.034 C 
HETATM   41  C   UNL     1       8.195  20.361  54.392  1.00  0.00     0.010 C 
ENDBRANCH  37  40
ENDBRANCH   1  34
TORSDOF 7
ENDMDL
MODEL 5
REMARK VINA RESULT:      -8.3      3.995      7.867
REMARK  7 active torsions:
REMARK  status: ('A' for Active; 'I' for Inactive)
REMARK    1  A    between atoms: C_2  and  C_3 
REMARK    2  A    between atoms: C_6  and  C_7 
REMARK       I    between atoms: C_7  and  N_8 
REMARK    3  A    between atoms: C_14  and  C_15 
REMARK       I    between atoms: C_15  and  N_16 
REMARK    4  A    between atoms: N_16  and  C_17 
REMARK    5  A    between atoms: C_17  and  C_18 
REMARK       I    between atoms: N_25  and  C_26 
REMARK    6  A    between atoms: C_26  and  C_27 
REMARK    7  A    between atoms: C_30  and  O_31 
ROOT
HETATM    1  C   UNL     1       4.409  34.438  57.301  1.00  0.00     0.253 C 
HETATM    2  N   UNL     1       4.103  33.470  56.330  1.00  0.00    -0.348 N 
HETATM    3  C   UNL     1       3.299  32.288  56.621  1.00  0.00     0.131 C 
HETATM    4  C   UNL     1       2.649  31.687  55.392  1.00  0.00     0.081 C 
HETATM    5  C   UNL     1       3.596  31.478  54.203  1.00  0.00     0.142 C 
HETATM    6  O   UNL     1       2.684  31.401  53.066  1.00  0.00    -0.358 OA
HETATM    7  C   UNL     1       2.879  30.165  52.384  1.00  0.00     0.206 C 
HETATM    8  C   UNL     1       3.560  29.241  53.369  1.00  0.00     0.206 C 
HETATM    9  N   UNL     1       4.302  30.185  54.198  1.00  0.00    -0.300 N 
HETATM   10  C   UNL     1       5.216  29.846  55.184  1.00  0.00     0.257 C 
HETATM   11  O   UNL     1       5.708  30.649  55.969  1.00  0.00    -0.267 OA
HETATM   12  C   UNL     1       4.455  32.722  53.951  1.00  0.00     0.081 C 
HETATM   13  C   UNL     1       5.022  33.395  55.196  1.00  0.00     0.131 C 
HETATM   14  O   UNL     1       5.098  35.432  57.076  1.00  0.00    -0.267 OA
ENDROOT
BRANCH   8  15
HETATM   15  C   UNL     1       4.237  28.159  52.526  1.00  0.00     0.243 C 
HETATM   16  N   UNL     1       4.757  28.536  51.318  1.00  0.00    -0.354 N 
HETATM   17  H   UNL     1       4.807  29.510  51.032  1.00  0.00     0.162 HD
HETATM   18  O   UNL     1       4.182  26.979  52.874  1.00  0.00    -0.271 OA
BRANCH  16  19
HETATM   19  C   UNL     1       5.394  27.567  50.448  1.00  0.00     0.181 C 
BRANCH  19  20
HETATM   20  C   UNL     1       4.525  27.170  49.276  1.00  0.00     0.051 A 
HETATM   21  N   UNL     1       4.130  28.143  48.411  1.00  0.00    -0.264 NA
HETATM   22  C   UNL     1       3.344  27.763  47.379  1.00  0.00     0.117 A 
HETATM   23  C   UNL     1       2.920  26.460  47.168  1.00  0.00     0.019 A 
HETATM   24  C   UNL     1       3.321  25.482  48.069  1.00  0.00     0.003 A 
HETATM   25  C   UNL     1       4.132  25.839  49.142  1.00  0.00     0.029 A 
ENDBRANCH  19  20
ENDBRANCH  16  19
ENDBRANCH   8  15
BRANCH  10  26
HETATM   26  C   UNL     1       5.724  28.467  55.302  1.00  0.00     0.032 A 
HETATM   27  C   UNL     1       6.923  28.162  54.653  1.00  0.00     0.020 A 
HETATM   28  C   UNL     1       7.476  26.889  54.774  1.00  0.00     0.038 A 
HETATM   29  C   UNL     1       6.853  25.920  55.563  1.00  0.00     0.068 A 
HETATM   30  C   UNL     1       5.665  26.236  56.231  1.00  0.00     0.038 A 
HETATM   31  C   UNL     1       5.105  27.514  56.113  1.00  0.00     0.020 A 
BRANCH  29  32
HETATM   32  O   UNL     1       7.506  24.720  55.603  1.00  0.00    -0.356 OA
HETATM   33  C   UNL     1       6.994  23.681  54.779  1.00  0.00     0.210 C 
ENDBRANCH  29  32
ENDBRANCH  10  26
BRANCH   1  34
HETATM   34  C   UNL     1       3.892  34.274  58.681  1.00  0.00     0.032 A 
HETATM   35  C   UNL     1       4.638  33.587  59.644  1.00  0.00     0.017 A 
HETATM   36  C   UNL     1       4.144  33.454  60.942  1.00  0.00     0.008 A 
HETATM   37  C   UNL     1       2.921  34.040  61.302  1.00  0.00    -0.059 A 
HETATM   38  C   UNL     1       2.202  34.762  60.338  1.00  0.00     0.008 A 
HETATM   39  C   UNL     1       2.686  34.883  59.032  1.00  0.00     0.017 A 
BRANCH  37  40
HETATM   40  C   UNL     1       2.395  33.906  62.710  1.00  0.00     0.034 C 
HETATM   41  C   UNL     1       3.429  34.292  63.757  1.00  0.00     0.010 C 
ENDBRANCH  37  40
ENDBRANCH   1  34
TORSDOF 7
ENDMDL
MODEL 6
REMARK VINA RESULT:      -8.3      2.430      9.892
REMARK  7 active torsions:
REMARK  status: ('A' for Active; 'I' for Inactive)
REMARK    1  A    between atoms: C_2  and  C_3 
REMARK    2  A    between atoms: C_6  and  C_7 
REMARK       I    between atoms: C_7  and  N_8 
REMARK    3  A    between atoms: C_14  and  C_15 
REMARK       I    between atoms: C_15  and  N_16 
REMARK    4  A    between atoms: N_16  and  C_17 
REMARK    5  A    between atoms: C_17  and  C_18 
REMARK       I    between atoms: N_25  and  C_26 
REMARK    6  A    between atoms: C_26  and  C_27 
REMARK    7  A    between atoms: C_30  and  O_31 
ROOT
HETATM    1  C   UNL     1       2.618  31.628  49.412  1.00  0.00     0.253 C 
HETATM    2  N   UNL     1       3.173  30.393  49.788  1.00  0.00    -0.348 N 
HETATM    3  C   UNL     1       2.547  29.516  50.771  1.00  0.00     0.131 C 
HETATM    4  C   UNL     1       2.974  28.068  50.640  1.00  0.00     0.081 C 
HETATM    5  C   UNL     1       4.489  27.853  50.536  1.00  0.00     0.142 C 
HETATM    6  O   UNL     1       4.592  26.531  49.924  1.00  0.00    -0.358 OA
HETATM    7  C   UNL     1       5.356  25.675  50.770  1.00  0.00     0.206 C 
HETATM    8  C   UNL     1       5.318  26.298  52.147  1.00  0.00     0.206 C 
HETATM    9  N   UNL     1       5.181  27.715  51.830  1.00  0.00    -0.300 N 
HETATM   10  C   UNL     1       5.236  28.755  52.745  1.00  0.00     0.257 C 
HETATM   11  O   UNL     1       4.964  29.920  52.477  1.00  0.00    -0.267 OA
HETATM   12  C   UNL     1       5.120  28.818  49.528  1.00  0.00     0.081 C 
HETATM   13  C   UNL     1       4.613  30.255  49.583  1.00  0.00     0.131 C 
HETATM   14  O   UNL     1       3.140  32.387  48.596  1.00  0.00    -0.267 OA
ENDROOT
BRANCH   8  15
HETATM   15  C   UNL     1       6.522  25.723  52.897  1.00  0.00     0.243 C 
HETATM   16  N   UNL     1       6.275  25.049  54.061  1.00  0.00    -0.354 N 
HETATM   17  H   UNL     1       5.332  24.828  54.368  1.00  0.00     0.162 HD
HETATM   18  O   UNL     1       7.666  25.985  52.523  1.00  0.00    -0.271 OA
BRANCH  16  19
HETATM   19  C   UNL     1       7.362  24.494  54.843  1.00  0.00     0.181 C 
BRANCH  19  20
HETATM   20  C   UNL     1       7.590  23.025  54.572  1.00  0.00     0.051 A 
HETATM   21  N   UNL     1       7.551  22.164  55.625  1.00  0.00    -0.264 NA
HETATM   22  C   UNL     1       7.770  20.857  55.356  1.00  0.00     0.117 A 
HETATM   23  C   UNL     1       8.038  20.361  54.091  1.00  0.00     0.019 A 
HETATM   24  C   UNL     1       8.089  21.256  53.029  1.00  0.00     0.003 A 
HETATM   25  C   UNL     1       7.867  22.608  53.271  1.00  0.00     0.029 A 
ENDBRANCH  19  20
ENDBRANCH  16  19
ENDBRANCH   8  15
BRANCH  10  26
HETATM   26  C   UNL     1       5.713  28.526  54.121  1.00  0.00     0.032 A 
HETATM   27  C   UNL     1       7.075  28.713  54.373  1.00  0.00     0.020 A 
HETATM   28  C   UNL     1       7.570  28.561  55.667  1.00  0.00     0.038 A 
HETATM   29  C   UNL     1       6.709  28.250  56.721  1.00  0.00     0.068 A 
HETATM   30  C   UNL     1       5.343  28.089  56.470  1.00  0.00     0.038 A 
HETATM   31  C   UNL     1       4.839  28.239  55.172  1.00  0.00     0.020 A 
BRANCH  29  32
HETATM   32  O   UNL     1       7.325  28.141  57.937  1.00  0.00    -0.356 OA
HETATM   33  C   UNL     1       7.923  29.319  58.463  1.00  0.00     0.210 C 
ENDBRANCH  29  32
ENDBRANCH  10  26
BRANCH   1  34
HETATM   34  C   UNL     1       1.340  32.068  50.019  1.00  0.00     0.032 A 
HETATM   35  C   UNL     1       0.117  31.644  49.490  1.00  0.00     0.017 A 
HETATM   36  C   UNL     1      -1.078  32.055  50.082  1.00  0.00     0.008 A 
HETATM   37  C   UNL     1      -1.062  32.860  51.232  1.00  0.00    -0.059 A 
HETATM   38  C   UNL     1       0.171  33.244  51.778  1.00  0.00     0.008 A 
HETATM   39  C   UNL     1       1.369  32.847  51.177  1.00  0.00     0.017 A 
BRANCH  37  40
HETATM   40  C   UNL     1      -2.356  33.292  51.878  1.00  0.00     0.034 C 
HETATM   41  C   UNL     1      -2.824  32.320  52.952  1.00  0.00     0.010 C 
ENDBRANCH  37  40
ENDBRANCH   1  34
TORSDOF 7
ENDMDL
MODEL 7
REMARK VINA RESULT:      -8.2      7.019     10.660
REMARK  7 active torsions:
REMARK  status: ('A' for Active; 'I' for Inactive)
REMARK    1  A    between atoms: C_2  and  C_3 
REMARK    2  A    between atoms: C_6  and  C_7 
REMARK       I    between atoms: C_7  and  N_8 
REMARK    3  A    between atoms: C_14  and  C_15 
REMARK       I    between atoms: C_15  and  N_16 
REMARK    4  A    between atoms: N_16  and  C_17 
REMARK    5  A    between atoms: C_17  and  C_18 
REMARK       I    between atoms: N_25  and  C_26 
REMARK    6  A    between atoms: C_26  and  C_27 
REMARK    7  A    between atoms: C_30  and  O_31 
ROOT
HETATM    1  C   UNL     1       9.568  30.106  57.327  1.00  0.00     0.253 C 
HETATM    2  N   UNL     1       9.116  30.566  58.575  1.00  0.00    -0.348 N 
HETATM    3  C   UNL     1       7.983  29.967  59.272  1.00  0.00     0.131 C 
HETATM    4  C   UNL     1       7.996  30.221  60.765  1.00  0.00     0.081 C 
HETATM    5  C   UNL     1       8.229  31.684  61.165  1.00  0.00     0.142 C 
HETATM    6  O   UNL     1       8.698  31.577  62.544  1.00  0.00    -0.358 OA
HETATM    7  C   UNL     1       7.845  32.337  63.396  1.00  0.00     0.206 C 
HETATM    8  C   UNL     1       6.548  32.522  62.640  1.00  0.00     0.206 C 
HETATM    9  N   UNL     1       7.005  32.500  61.255  1.00  0.00    -0.300 N 
HETATM   10  C   UNL     1       6.222  32.768  60.143  1.00  0.00     0.257 C 
HETATM   11  O   UNL     1       6.587  32.592  58.986  1.00  0.00    -0.267 OA
HETATM   12  C   UNL     1       9.397  32.295  60.384  1.00  0.00     0.081 C 
HETATM   13  C   UNL     1       9.449  31.951  58.900  1.00  0.00     0.131 C 
HETATM   14  O   UNL     1      10.511  30.609  56.719  1.00  0.00    -0.267 OA
ENDROOT
BRANCH   8  15
HETATM   15  C   UNL     1       5.867  33.736  63.275  1.00  0.00     0.243 C 
HETATM   16  N   UNL     1       6.485  34.949  63.139  1.00  0.00    -0.354 N 
HETATM   17  H   UNL     1       7.298  35.075  62.544  1.00  0.00     0.162 HD
HETATM   18  O   UNL     1       4.876  33.584  63.992  1.00  0.00    -0.271 OA
BRANCH  16  19
HETATM   19  C   UNL     1       5.916  36.143  63.730  1.00  0.00     0.181 C 
BRANCH  19  20
HETATM   20  C   UNL     1       5.345  37.093  62.703  1.00  0.00     0.051 A 
HETATM   21  N   UNL     1       6.196  37.648  61.798  1.00  0.00    -0.264 NA
HETATM   22  C   UNL     1       5.661  38.504  60.898  1.00  0.00     0.117 A 
HETATM   23  C   UNL     1       4.319  38.845  60.857  1.00  0.00     0.019 A 
HETATM   24  C   UNL     1       3.466  38.281  61.797  1.00  0.00     0.003 A 
HETATM   25  C   UNL     1       3.984  37.395  62.737  1.00  0.00     0.029 A 
ENDBRANCH  19  20
ENDBRANCH  16  19
ENDBRANCH   8  15
BRANCH  10  26
HETATM   26  C   UNL     1       4.883  33.371  60.289  1.00  0.00     0.032 A 
HETATM   27  C   UNL     1       4.715  34.686  59.846  1.00  0.00     0.020 A 
HETATM   28  C   UNL     1       3.460  35.287  59.912  1.00  0.00     0.038 A 
HETATM   29  C   UNL     1       2.360  34.575  60.393  1.00  0.00     0.068 A 
HETATM   30  C   UNL     1       2.527  33.251  60.813  1.00  0.00     0.038 A 
HETATM   31  C   UNL     1       3.786  32.642  60.750  1.00  0.00     0.020 A 
BRANCH  29  32
HETATM   32  O   UNL     1       1.189  35.280  60.393  1.00  0.00    -0.356 OA
HETATM   33  C   UNL     1       0.014  34.575  60.775  1.00  0.00     0.210 C 
ENDBRANCH  29  32
ENDBRANCH  10  26
BRANCH   1  34
HETATM   34  C   UNL     1       8.886  28.958  56.683  1.00  0.00     0.032 A 
HETATM   35  C   UNL     1       8.470  29.033  55.350  1.00  0.00     0.017 A 
HETATM   36  C   UNL     1       7.843  27.938  54.754  1.00  0.00     0.008 A 
HETATM   37  C   UNL     1       7.661  26.745  55.471  1.00  0.00    -0.059 A 
HETATM   38  C   UNL     1       8.119  26.669  56.794  1.00  0.00     0.008 A 
HETATM   39  C   UNL     1       8.734  27.769  57.398  1.00  0.00     0.017 A 
BRANCH  37  40
HETATM   40  C   UNL     1       6.993  25.558  54.820  1.00  0.00     0.034 C 
HETATM   41  C   UNL     1       7.938  24.376  54.656  1.00  0.00     0.010 C 
ENDBRANCH  37  40
ENDBRANCH   1  34
TORSDOF 7
ENDMDL
MODEL 8
REMARK VINA RESULT:      -8.0      3.828      9.315
REMARK  7 active torsions:
REMARK  status: ('A' for Active; 'I' for Inactive)
REMARK    1  A    between atoms: C_2  and  C_3 
REMARK    2  A    between atoms: C_6  and  C_7 
REMARK       I    between atoms: C_7  and  N_8 
REMARK    3  A    between atoms: C_14  and  C_15 
REMARK       I    between atoms: C_15  and  N_16 
REMARK    4  A    between atoms: N_16  and  C_17 
REMARK    5  A    between atoms: C_17  and  C_18 
REMARK       I    between atoms: N_25  and  C_26 
REMARK    6  A    between atoms: C_26  and  C_27 
REMARK    7  A    between atoms: C_30  and  O_31 
ROOT
HETATM    1  C   UNL     1       4.659  28.303  49.354  1.00  0.00     0.253 C 
HETATM    2  N   UNL     1       4.557  28.442  50.749  1.00  0.00    -0.348 N 
HETATM    3  C   UNL     1       3.274  28.520  51.440  1.00  0.00     0.131 C 
HETATM    4  C   UNL     1       3.357  28.130  52.901  1.00  0.00     0.081 C 
HETATM    5  C   UNL     1       4.492  28.806  53.683  1.00  0.00     0.142 C 
HETATM    6  O   UNL     1       4.672  27.922  54.831  1.00  0.00    -0.358 OA
HETATM    7  C   UNL     1       4.505  28.667  56.034  1.00  0.00     0.206 C 
HETATM    8  C   UNL     1       3.729  29.909  55.658  1.00  0.00     0.206 C 
HETATM    9  N   UNL     1       4.141  30.110  54.273  1.00  0.00    -0.300 N 
HETATM   10  C   UNL     1       3.821  31.206  53.487  1.00  0.00     0.257 C 
HETATM   11  O   UNL     1       4.046  31.278  52.284  1.00  0.00    -0.267 OA
HETATM   12  C   UNL     1       5.813  28.744  52.910  1.00  0.00     0.081 C 
HETATM   13  C   UNL     1       5.717  29.029  51.415  1.00  0.00     0.131 C 
HETATM   14  O   UNL     1       5.731  28.251  48.754  1.00  0.00    -0.267 OA
ENDROOT
BRANCH   8  15
HETATM   15  C   UNL     1       4.008  30.925  56.767  1.00  0.00     0.243 C 
HETATM   16  N   UNL     1       5.315  31.137  57.114  1.00  0.00    -0.354 N 
HETATM   17  H   UNL     1       6.084  30.734  56.587  1.00  0.00     0.162 HD
HETATM   18  O   UNL     1       3.075  31.419  57.403  1.00  0.00    -0.271 OA
BRANCH  16  19
HETATM   19  C   UNL     1       5.662  32.065  58.171  1.00  0.00     0.181 C 
BRANCH  19  20
HETATM   20  C   UNL     1       6.875  31.629  58.961  1.00  0.00     0.051 A 
HETATM   21  N   UNL     1       7.510  30.486  58.583  1.00  0.00    -0.264 NA
HETATM   22  C   UNL     1       8.584  30.112  59.315  1.00  0.00     0.117 A 
HETATM   23  C   UNL     1       9.055  30.812  60.413  1.00  0.00     0.019 A 
HETATM   24  C   UNL     1       8.386  31.968  60.794  1.00  0.00     0.003 A 
HETATM   25  C   UNL     1       7.277  32.383  60.062  1.00  0.00     0.029 A 
ENDBRANCH  19  20
ENDBRANCH  16  19
ENDBRANCH   8  15
BRANCH  10  26
HETATM   26  C   UNL     1       3.238  32.421  54.087  1.00  0.00     0.032 A 
HETATM   27  C   UNL     1       4.107  33.472  54.392  1.00  0.00     0.020 A 
HETATM   28  C   UNL     1       3.603  34.663  54.911  1.00  0.00     0.038 A 
HETATM   29  C   UNL     1       2.230  34.825  55.105  1.00  0.00     0.068 A 
HETATM   30  C   UNL     1       1.361  33.780  54.775  1.00  0.00     0.038 A 
HETATM   31  C   UNL     1       1.861  32.580  54.254  1.00  0.00     0.020 A 
BRANCH  29  32
HETATM   32  O   UNL     1       1.872  36.044  55.609  1.00  0.00    -0.356 OA
HETATM   33  C   UNL     1       2.510  36.454  56.812  1.00  0.00     0.210 C 
ENDBRANCH  29  32
ENDBRANCH  10  26
BRANCH   1  34
HETATM   34  C   UNL     1       3.425  28.218  48.538  1.00  0.00     0.032 A 
HETATM   35  C   UNL     1       2.953  29.334  47.841  1.00  0.00     0.017 A 
HETATM   36  C   UNL     1       1.798  29.234  47.065  1.00  0.00     0.008 A 
HETATM   37  C   UNL     1       1.125  28.008  46.945  1.00  0.00    -0.059 A 
HETATM   38  C   UNL     1       1.632  26.885  47.616  1.00  0.00     0.008 A 
HETATM   39  C   UNL     1       2.780  26.986  48.407  1.00  0.00     0.017 A 
BRANCH  37  40
HETATM   40  C   UNL     1      -0.117  27.898  46.095  1.00  0.00     0.034 C 
HETATM   41  C   UNL     1      -0.936  29.181  46.093  1.00  0.00     0.010 C 
ENDBRANCH  37  40
ENDBRANCH   1  34
TORSDOF 7
ENDMDL
MODEL 9
REMARK VINA RESULT:      -7.8      2.956      5.088
REMARK  7 active torsions:
REMARK  status: ('A' for Active; 'I' for Inactive)
REMARK    1  A    between atoms: C_2  and  C_3 
REMARK    2  A    between atoms: C_6  and  C_7 
REMARK       I    between atoms: C_7  and  N_8 
REMARK    3  A    between atoms: C_14  and  C_15 
REMARK       I    between atoms: C_15  and  N_16 
REMARK    4  A    between atoms: N_16  and  C_17 
REMARK    5  A    between atoms: C_17  and  C_18 
REMARK       I    between atoms: N_25  and  C_26 
REMARK    6  A    between atoms: C_26  and  C_27 
REMARK    7  A    between atoms: C_30  and  O_31 
ROOT
HETATM    1  C   UNL     1       6.354  27.440  56.629  1.00  0.00     0.253 C 
HETATM    2  N   UNL     1       6.177  27.279  55.244  1.00  0.00    -0.348 N 
HETATM    3  C   UNL     1       6.835  28.134  54.262  1.00  0.00     0.131 C 
HETATM    4  C   UNL     1       6.954  27.493  52.895  1.00  0.00     0.081 C 
HETATM    5  C   UNL     1       5.656  26.871  52.362  1.00  0.00     0.142 C 
HETATM    6  O   UNL     1       6.133  25.925  51.357  1.00  0.00    -0.358 OA
HETATM    7  C   UNL     1       5.538  26.229  50.099  1.00  0.00     0.206 C 
HETATM    8  C   UNL     1       5.070  27.665  50.188  1.00  0.00     0.206 C 
HETATM    9  N   UNL     1       4.791  27.799  51.613  1.00  0.00    -0.300 N 
HETATM   10  C   UNL     1       4.198  28.896  52.219  1.00  0.00     0.257 C 
HETATM   11  O   UNL     1       4.116  29.050  53.433  1.00  0.00    -0.267 OA
HETATM   12  C   UNL     1       4.970  26.015  53.432  1.00  0.00     0.081 C 
HETATM   13  C   UNL     1       4.945  26.610  54.835  1.00  0.00     0.131 C 
HETATM   14  O   UNL     1       5.796  26.739  57.471  1.00  0.00    -0.267 OA
ENDROOT
BRANCH   8  15
HETATM   15  C   UNL     1       3.997  27.821  49.109  1.00  0.00     0.243 C 
HETATM   16  N   UNL     1       4.177  28.808  48.179  1.00  0.00    -0.354 N 
HETATM   17  H   UNL     1       5.038  29.345  48.123  1.00  0.00     0.162 HD
HETATM   18  O   UNL     1       2.955  27.166  49.173  1.00  0.00    -0.271 OA
BRANCH  16  19
HETATM   19  C   UNL     1       3.195  29.037  47.138  1.00  0.00     0.181 C 
BRANCH  19  20
HETATM   20  C   UNL     1       3.243  30.443  46.585  1.00  0.00     0.051 A 
HETATM   21  N   UNL     1       2.118  30.942  46.003  1.00  0.00    -0.264 NA
HETATM   22  C   UNL     1       2.192  32.197  45.506  1.00  0.00     0.117 A 
HETATM   23  C   UNL     1       3.333  32.982  45.548  1.00  0.00     0.019 A 
HETATM   24  C   UNL     1       4.476  32.451  46.132  1.00  0.00     0.003 A 
HETATM   25  C   UNL     1       4.435  31.162  46.655  1.00  0.00     0.029 A 
ENDBRANCH  19  20
ENDBRANCH  16  19
ENDBRANCH   8  15
BRANCH  10  26
HETATM   26  C   UNL     1       3.543  29.943  51.412  1.00  0.00     0.032 A 
HETATM   27  C   UNL     1       4.332  31.010  50.975  1.00  0.00     0.020 A 
HETATM   28  C   UNL     1       3.777  31.999  50.166  1.00  0.00     0.038 A 
HETATM   29  C   UNL     1       2.442  31.919  49.765  1.00  0.00     0.068 A 
HETATM   30  C   UNL     1       1.662  30.836  50.185  1.00  0.00     0.038 A 
HETATM   31  C   UNL     1       2.214  29.839  50.999  1.00  0.00     0.020 A 
BRANCH  29  32
HETATM   32  O   UNL     1       2.030  32.948  48.966  1.00  0.00    -0.356 OA
HETATM   33  C   UNL     1       0.632  33.198  48.908  1.00  0.00     0.210 C 
ENDBRANCH  29  32
ENDBRANCH  10  26
BRANCH   1  34
HETATM   34  C   UNL     1       7.252  28.509  57.129  1.00  0.00     0.032 A 
HETATM   35  C   UNL     1       6.726  29.662  57.718  1.00  0.00     0.017 A 
HETATM   36  C   UNL     1       7.586  30.652  58.198  1.00  0.00     0.008 A 
HETATM   37  C   UNL     1       8.977  30.481  58.130  1.00  0.00    -0.059 A 
HETATM   38  C   UNL     1       9.492  29.301  57.574  1.00  0.00     0.008 A 
HETATM   39  C   UNL     1       8.634  28.315  57.079  1.00  0.00     0.017 A 
BRANCH  37  40
HETATM   40  C   UNL     1       9.904  31.547  58.660  1.00  0.00     0.034 C 
HETATM   41  C   UNL     1       9.526  32.002  60.063  1.00  0.00     0.010 C 
ENDBRANCH  37  40
ENDBRANCH   1  34
TORSDOF 7
ENDMDL
MODEL 10
REMARK VINA RESULT:      -7.7      3.686      9.063
REMARK  7 active torsions:
REMARK  status: ('A' for Active; 'I' for Inactive)
REMARK    1  A    between atoms: C_2  and  C_3 
REMARK    2  A    between atoms: C_6  and  C_7 
REMARK       I    between atoms: C_7  and  N_8 
REMARK    3  A    between atoms: C_14  and  C_15 
REMARK       I    between atoms: C_15  and  N_16 
REMARK    4  A    between atoms: N_16  and  C_17 
REMARK    5  A    between atoms: C_17  and  C_18 
REMARK       I    between atoms: N_25  and  C_26 
REMARK    6  A    between atoms: C_26  and  C_27 
REMARK    7  A    between atoms: C_30  and  O_31 
ROOT
HETATM    1  C   UNL     1       2.311  34.118  55.903  1.00  0.00     0.253 C 
HETATM    2  N   UNL     1       3.081  32.947  55.797  1.00  0.00    -0.348 N 
HETATM    3  C   UNL     1       4.406  32.929  55.187  1.00  0.00     0.131 C 
HETATM    4  C   UNL     1       5.258  31.761  55.639  1.00  0.00     0.081 C 
HETATM    5  C   UNL     1       4.559  30.395  55.576  1.00  0.00     0.142 C 
HETATM    6  O   UNL     1       5.346  29.582  56.499  1.00  0.00    -0.358 OA
HETATM    7  C   UNL     1       5.848  28.438  55.814  1.00  0.00     0.206 C 
HETATM    8  C   UNL     1       5.801  28.774  54.340  1.00  0.00     0.206 C 
HETATM    9  N   UNL     1       4.678  29.702  54.281  1.00  0.00    -0.300 N 
HETATM   10  C   UNL     1       4.116  30.216  53.123  1.00  0.00     0.257 C 
HETATM   11  O   UNL     1       3.278  31.111  53.104  1.00  0.00    -0.267 OA
HETATM   12  C   UNL     1       3.156  30.461  56.186  1.00  0.00     0.081 C 
HETATM   13  C   UNL     1       2.334  31.692  55.821  1.00  0.00     0.131 C 
HETATM   14  O   UNL     1       1.187  34.148  56.401  1.00  0.00    -0.267 OA
ENDROOT
BRANCH   8  15
HETATM   15  C   UNL     1       5.813  27.431  53.607  1.00  0.00     0.243 C 
HETATM   16  N   UNL     1       5.048  26.423  54.126  1.00  0.00    -0.354 N 
HETATM   17  H   UNL     1       4.401  26.578  54.894  1.00  0.00     0.162 HD
HETATM   18  O   UNL     1       6.593  27.244  52.671  1.00  0.00    -0.271 OA
BRANCH  16  19
HETATM   19  C   UNL     1       5.022  25.114  53.505  1.00  0.00     0.181 C 
BRANCH  19  20
HETATM   20  C   UNL     1       6.250  24.290  53.820  1.00  0.00     0.051 A 
HETATM   21  N   UNL     1       6.619  24.159  55.123  1.00  0.00    -0.264 NA
HETATM   22  C   UNL     1       7.727  23.429  55.375  1.00  0.00     0.117 A 
HETATM   23  C   UNL     1       8.498  22.826  54.394  1.00  0.00     0.019 A 
HETATM   24  C   UNL     1       8.116  22.983  53.068  1.00  0.00     0.003 A 
HETATM   25  C   UNL     1       6.979  23.728  52.772  1.00  0.00     0.029 A 
ENDBRANCH  19  20
ENDBRANCH  16  19
ENDBRANCH   8  15
BRANCH  10  26
HETATM   26  C   UNL     1       4.448  29.645  51.804  1.00  0.00     0.032 A 
HETATM   27  C   UNL     1       3.633  28.619  51.320  1.00  0.00     0.020 A 
HETATM   28  C   UNL     1       3.871  28.079  50.057  1.00  0.00     0.038 A 
HETATM   29  C   UNL     1       4.903  28.576  49.259  1.00  0.00     0.068 A 
HETATM   30  C   UNL     1       5.701  29.620  49.737  1.00  0.00     0.038 A 
HETATM   31  C   UNL     1       5.468  30.166  51.006  1.00  0.00     0.020 A 
BRANCH  29  32
HETATM   32  O   UNL     1       5.017  27.965  48.042  1.00  0.00    -0.356 OA
HETATM   33  C   UNL     1       4.556  26.623  47.950  1.00  0.00     0.210 C 
ENDBRANCH  29  32
ENDBRANCH  10  26
BRANCH   1  34
HETATM   34  C   UNL     1       2.857  35.398  55.392  1.00  0.00     0.032 A 
HETATM   35  C   UNL     1       3.649  36.211  56.208  1.00  0.00     0.017 A 
HETATM   36  C   UNL     1       4.168  37.406  55.706  1.00  0.00     0.008 A 
HETATM   37  C   UNL     1       3.934  37.779  54.374  1.00  0.00    -0.059 A 
HETATM   38  C   UNL     1       3.173  36.934  53.553  1.00  0.00     0.008 A 
HETATM   39  C   UNL     1       2.639  35.745  54.057  1.00  0.00     0.017 A 
BRANCH  37  40
HETATM   40  C   UNL     1       4.507  39.065  53.830  1.00  0.00     0.034 C 
HETATM   41  C   UNL     1       5.943  39.299  54.277  1.00  0.00     0.010 C 
ENDBRANCH  37  40
ENDBRANCH   1  34
TORSDOF 7
ENDMDL
