MODEL 1
REMARK VINA RESULT:      -8.7      0.000      0.000
REMARK  6 active torsions:
REMARK  status: ('A' for Active; 'I' for Inactive)
REMARK    1  A    between atoms: C_2  and  N_3 
REMARK    2  A    between atoms: C_4  and  C_20 
REMARK    3  A    between atoms: C_10  and  C_11 
REMARK    4  A    between atoms: C_14  and  C_15 
REMARK    5  A    between atoms: C_15  and  N_16 
REMARK    6  A    between atoms: C_24  and  N_25 
ROOT
HETATM    1  N   UNL     1       7.600  26.910  55.924  1.00  0.00    -0.327 N 
HETATM    2  C   UNL     1       7.482  28.242  56.288  1.00  0.00     0.166 A 
HETATM    3  N   UNL     1       6.507  28.823  55.612  1.00  0.00    -0.225 NA
HETATM    4  C   UNL     1       5.974  27.856  54.803  1.00  0.00     0.104 A 
HETATM    5  C   UNL     1       4.901  27.959  53.911  1.00  0.00     0.150 A 
HETATM    6  N   UNL     1       4.509  26.892  53.178  1.00  0.00    -0.270 NA
HETATM    7  C   UNL     1       5.192  25.734  53.326  1.00  0.00     0.131 A 
HETATM    8  C   UNL     1       6.282  25.515  54.181  1.00  0.00     0.021 A 
HETATM    9  C   UNL     1       6.652  26.641  54.946  1.00  0.00     0.079 A 
ENDROOT
BRANCH   8  10
HETATM   10  C   UNL     1       6.949  24.220  54.206  1.00  0.00    -0.022 A 
HETATM   11  C   UNL     1       7.603  23.730  53.066  1.00  0.00     0.013 A 
HETATM   12  C   UNL     1       8.201  22.466  53.067  1.00  0.00     0.010 A 
HETATM   13  C   UNL     1       8.152  21.654  54.208  1.00  0.00    -0.031 A 
HETATM   14  C   UNL     1       7.475  22.132  55.338  1.00  0.00     0.010 A 
HETATM   15  C   UNL     1       6.889  23.401  55.341  1.00  0.00     0.013 A 
BRANCH  13  16
HETATM   16  C   UNL     1       8.734  20.260  54.162  1.00  0.00     0.305 C 
BRANCH  16  17
HETATM   17  N   UNL     1       9.048  19.729  55.484  1.00  0.00     0.082 N 
HETATM   18  H   UNL     1       9.512  20.456  56.027  1.00  0.00     0.313 HD
HETATM   19  H   UNL     1       9.720  18.971  55.385  1.00  0.00     0.313 HD
ENDBRANCH  16  17
ENDBRANCH  13  16
ENDBRANCH   8  10
BRANCH   1  20
HETATM   20  C   UNL     1       8.523  25.955  56.510  1.00  0.00     0.126 C 
HETATM   21  C   UNL     1       8.047  25.436  57.856  1.00  0.00     0.027 C 
ENDBRANCH   1  20
BRANCH   2  22
HETATM   22  C   UNL     1       8.298  29.005  57.294  1.00  0.00     0.179 A 
HETATM   23  N   UNL     1       7.976  29.152  58.581  1.00  0.00    -0.097 NA
HETATM   24  O   UNL     1       9.017  29.895  59.129  1.00  0.00    -0.104 OA
HETATM   25  N   UNL     1       9.979  30.201  58.176  1.00  0.00    -0.085 NA
HETATM   26  C   UNL     1       9.529  29.666  57.043  1.00  0.00     0.186 A 
BRANCH  26  27
HETATM   27  N   UNL     1      10.159  29.739  55.854  1.00  0.00    -0.380 N 
HETATM   28  H   UNL     1      11.167  29.663  55.805  1.00  0.00     0.158 HD
HETATM   29  H   UNL     1       9.653  29.493  55.004  1.00  0.00     0.158 HD
ENDBRANCH  26  27
ENDBRANCH   2  22
TORSDOF 6
ENDMDL
MODEL 2
REMARK VINA RESULT:      -8.5      3.099      7.190
REMARK  6 active torsions:
REMARK  status: ('A' for Active; 'I' for Inactive)
REMARK    1  A    between atoms: C_2  and  N_3 
REMARK    2  A    between atoms: C_4  and  C_20 
REMARK    3  A    between atoms: C_10  and  C_11 
REMARK    4  A    between atoms: C_14  and  C_15 
REMARK    5  A    between atoms: C_15  and  N_16 
REMARK    6  A    between atoms: C_24  and  N_25 
ROOT
HETATM    1  N   UNL     1       7.347  24.155  54.505  1.00  0.00    -0.327 N 
HETATM    2  C   UNL     1       8.090  23.074  54.956  1.00  0.00     0.166 A 
HETATM    3  N   UNL     1       8.639  23.346  56.126  1.00  0.00    -0.225 NA
HETATM    4  C   UNL     1       8.244  24.616  56.449  1.00  0.00     0.104 A 
HETATM    5  C   UNL     1       8.537  25.354  57.600  1.00  0.00     0.150 A 
HETATM    6  N   UNL     1       8.064  26.612  57.753  1.00  0.00    -0.270 NA
HETATM    7  C   UNL     1       7.313  27.133  56.756  1.00  0.00     0.131 A 
HETATM    8  C   UNL     1       6.960  26.491  55.559  1.00  0.00     0.021 A 
HETATM    9  C   UNL     1       7.452  25.175  55.441  1.00  0.00     0.079 A 
ENDROOT
BRANCH   8  10
HETATM   10  C   UNL     1       6.175  27.193  54.552  1.00  0.00    -0.022 A 
HETATM   11  C   UNL     1       4.773  27.136  54.569  1.00  0.00     0.013 A 
HETATM   12  C   UNL     1       4.016  27.764  53.575  1.00  0.00     0.010 A 
HETATM   13  C   UNL     1       4.641  28.458  52.531  1.00  0.00    -0.031 A 
HETATM   14  C   UNL     1       6.042  28.493  52.499  1.00  0.00     0.010 A 
HETATM   15  C   UNL     1       6.799  27.875  53.500  1.00  0.00     0.013 A 
BRANCH  13  16
HETATM   16  C   UNL     1       3.807  29.061  51.426  1.00  0.00     0.305 C 
BRANCH  16  17
HETATM   17  N   UNL     1       2.374  28.867  51.622  1.00  0.00     0.082 N 
HETATM   18  H   UNL     1       2.231  28.283  52.444  1.00  0.00     0.313 HD
HETATM   19  H   UNL     1       1.999  28.348  50.831  1.00  0.00     0.313 HD
ENDBRANCH  16  17
ENDBRANCH  13  16
ENDBRANCH   8  10
BRANCH   1  20
HETATM   20  C   UNL     1       6.557  24.184  53.288  1.00  0.00     0.126 C 
HETATM   21  C   UNL     1       7.340  24.708  52.097  1.00  0.00     0.027 C 
ENDBRANCH   1  20
BRANCH   2  22
HETATM   22  C   UNL     1       8.298  21.746  54.284  1.00  0.00     0.179 A 
HETATM   23  N   UNL     1       8.025  21.489  53.003  1.00  0.00    -0.097 NA
HETATM   24  O   UNL     1       8.398  20.162  52.815  1.00  0.00    -0.104 OA
HETATM   25  N   UNL     1       8.902  19.606  53.983  1.00  0.00    -0.085 NA
HETATM   26  C   UNL     1       8.828  20.577  54.891  1.00  0.00     0.186 A 
BRANCH  26  27
HETATM   27  N   UNL     1       9.208  20.457  56.178  1.00  0.00    -0.380 N 
HETATM   28  H   UNL     1       8.519  20.486  56.918  1.00  0.00     0.158 HD
HETATM   29  H   UNL     1      10.079  19.975  56.400  1.00  0.00     0.158 HD
ENDBRANCH  26  27
ENDBRANCH   2  22
TORSDOF 6
ENDMDL
MODEL 3
REMARK VINA RESULT:      -8.3      1.750      4.156
REMARK  6 active torsions:
REMARK  status: ('A' for Active; 'I' for Inactive)
REMARK    1  A    between atoms: C_2  and  N_3 
REMARK    2  A    between atoms: C_4  and  C_20 
REMARK    3  A    between atoms: C_10  and  C_11 
REMARK    4  A    between atoms: C_14  and  C_15 
REMARK    5  A    between atoms: C_15  and  N_16 
REMARK    6  A    between atoms: C_24  and  N_25 
ROOT
HETATM    1  N   UNL     1       7.693  27.066  55.928  1.00  0.00    -0.327 N 
HETATM    2  C   UNL     1       8.230  27.450  57.148  1.00  0.00     0.166 A 
HETATM    3  N   UNL     1       8.568  26.390  57.859  1.00  0.00    -0.225 NA
HETATM    4  C   UNL     1       8.259  25.299  57.092  1.00  0.00     0.104 A 
HETATM    5  C   UNL     1       8.448  23.944  57.384  1.00  0.00     0.150 A 
HETATM    6  N   UNL     1       8.073  22.990  56.504  1.00  0.00    -0.270 NA
HETATM    7  C   UNL     1       7.499  23.384  55.344  1.00  0.00     0.131 A 
HETATM    8  C   UNL     1       7.254  24.707  54.947  1.00  0.00     0.021 A 
HETATM    9  C   UNL     1       7.677  25.679  55.878  1.00  0.00     0.079 A 
ENDROOT
BRANCH   8  10
HETATM   10  C   UNL     1       6.589  24.984  53.680  1.00  0.00    -0.022 A 
HETATM   11  C   UNL     1       7.335  25.266  52.526  1.00  0.00     0.013 A 
HETATM   12  C   UNL     1       6.702  25.583  51.321  1.00  0.00     0.010 A 
HETATM   13  C   UNL     1       5.304  25.637  51.239  1.00  0.00    -0.031 A 
HETATM   14  C   UNL     1       4.559  25.381  52.399  1.00  0.00     0.010 A 
HETATM   15  C   UNL     1       5.192  25.052  53.601  1.00  0.00     0.013 A 
BRANCH  13  16
HETATM   16  C   UNL     1       4.643  26.059  49.949  1.00  0.00     0.305 C 
BRANCH  16  17
HETATM   17  N   UNL     1       5.338  27.158  49.284  1.00  0.00     0.082 N 
HETATM   18  H   UNL     1       6.340  27.049  49.433  1.00  0.00     0.313 HD
HETATM   19  H   UNL     1       5.074  28.034  49.731  1.00  0.00     0.313 HD
ENDBRANCH  16  17
ENDBRANCH  13  16
ENDBRANCH   8  10
BRANCH   1  20
HETATM   20  C   UNL     1       7.273  27.969  54.871  1.00  0.00     0.126 C 
HETATM   21  C   UNL     1       5.831  28.417  55.028  1.00  0.00     0.027 C 
ENDBRANCH   1  20
BRANCH   2  22
HETATM   22  C   UNL     1       8.437  28.842  57.674  1.00  0.00     0.179 A 
HETATM   23  N   UNL     1       7.546  29.524  58.397  1.00  0.00    -0.097 NA
HETATM   24  O   UNL     1       8.166  30.736  58.684  1.00  0.00    -0.104 OA
HETATM   25  N   UNL     1       9.441  30.795  58.136  1.00  0.00    -0.085 NA
HETATM   26  C   UNL     1       9.602  29.636  57.503  1.00  0.00     0.186 A 
BRANCH  26  27
HETATM   27  N   UNL     1      10.707  29.279  56.818  1.00  0.00    -0.380 N 
HETATM   28  H   UNL     1      11.626  29.478  57.193  1.00  0.00     0.158 HD
HETATM   29  H   UNL     1      10.656  28.511  56.150  1.00  0.00     0.158 HD
ENDBRANCH  26  27
ENDBRANCH   2  22
TORSDOF 6
ENDMDL
MODEL 4
REMARK VINA RESULT:      -8.2      2.883      5.330
REMARK  6 active torsions:
REMARK  status: ('A' for Active; 'I' for Inactive)
REMARK    1  A    between atoms: C_2  and  N_3 
REMARK    2  A    between atoms: C_4  and  C_20 
REMARK    3  A    between atoms: C_10  and  C_11 
REMARK    4  A    between atoms: C_14  and  C_15 
REMARK    5  A    between atoms: C_15  and  N_16 
REMARK    6  A    between atoms: C_24  and  N_25 
ROOT
HETATM    1  N   UNL     1       5.992  26.731  52.723  1.00  0.00    -0.327 N 
HETATM    2  C   UNL     1       5.436  27.958  52.398  1.00  0.00     0.166 A 
HETATM    3  N   UNL     1       5.635  28.829  53.370  1.00  0.00    -0.225 NA
HETATM    4  C   UNL     1       6.340  28.167  54.339  1.00  0.00     0.104 A 
HETATM    5  C   UNL     1       6.818  28.657  55.559  1.00  0.00     0.150 A 
HETATM    6  N   UNL     1       7.496  27.852  56.407  1.00  0.00    -0.270 NA
HETATM    7  C   UNL     1       7.683  26.562  56.047  1.00  0.00     0.131 A 
HETATM    8  C   UNL     1       7.246  25.960  54.857  1.00  0.00     0.021 A 
HETATM    9  C   UNL     1       6.561  26.833  53.985  1.00  0.00     0.079 A 
ENDROOT
BRANCH   8  10
HETATM   10  C   UNL     1       7.485  24.543  54.618  1.00  0.00    -0.022 A 
HETATM   11  C   UNL     1       7.137  23.586  55.584  1.00  0.00     0.013 A 
HETATM   12  C   UNL     1       7.411  22.230  55.383  1.00  0.00     0.010 A 
HETATM   13  C   UNL     1       8.049  21.795  54.214  1.00  0.00    -0.031 A 
HETATM   14  C   UNL     1       8.421  22.753  53.262  1.00  0.00     0.010 A 
HETATM   15  C   UNL     1       8.136  24.108  53.457  1.00  0.00     0.013 A 
BRANCH  13  16
HETATM   16  C   UNL     1       8.407  20.336  54.054  1.00  0.00     0.305 C 
BRANCH  16  17
HETATM   17  N   UNL     1       8.906  19.732  55.285  1.00  0.00     0.082 N 
HETATM   18  H   UNL     1       9.152  18.761  55.097  1.00  0.00     0.313 HD
HETATM   19  H   UNL     1       8.154  19.710  55.971  1.00  0.00     0.313 HD
ENDBRANCH  16  17
ENDBRANCH  13  16
ENDBRANCH   8  10
BRANCH   1  20
HETATM   20  C   UNL     1       6.018  25.563  51.861  1.00  0.00     0.126 C 
HETATM   21  C   UNL     1       4.800  24.675  52.048  1.00  0.00     0.027 C 
ENDBRANCH   1  20
BRANCH   2  22
HETATM   22  C   UNL     1       4.695  28.339  51.147  1.00  0.00     0.179 A 
HETATM   23  N   UNL     1       5.238  28.403  49.929  1.00  0.00    -0.097 NA
HETATM   24  O   UNL     1       4.190  28.762  49.087  1.00  0.00    -0.104 OA
HETATM   25  N   UNL     1       3.003  28.916  49.790  1.00  0.00    -0.085 NA
HETATM   26  C   UNL     1       3.316  28.670  51.060  1.00  0.00     0.186 A 
BRANCH  26  27
HETATM   27  N   UNL     1       2.449  28.721  52.091  1.00  0.00    -0.380 N 
HETATM   28  H   UNL     1       1.944  27.891  52.373  1.00  0.00     0.158 HD
HETATM   29  H   UNL     1       2.566  29.436  52.808  1.00  0.00     0.158 HD
ENDBRANCH  26  27
ENDBRANCH   2  22
TORSDOF 6
ENDMDL
MODEL 5
REMARK VINA RESULT:      -8.0      2.702      6.774
REMARK  6 active torsions:
REMARK  status: ('A' for Active; 'I' for Inactive)
REMARK    1  A    between atoms: C_2  and  N_3 
REMARK    2  A    between atoms: C_4  and  C_20 
REMARK    3  A    between atoms: C_10  and  C_11 
REMARK    4  A    between atoms: C_14  and  C_15 
REMARK    5  A    between atoms: C_15  and  N_16 
REMARK    6  A    between atoms: C_24  and  N_25 
ROOT
HETATM    1  N   UNL     1       7.526  24.553  54.795  1.00  0.00    -0.327 N 
HETATM    2  C   UNL     1       7.505  23.306  54.189  1.00  0.00     0.166 A 
HETATM    3  N   UNL     1       6.992  23.391  52.975  1.00  0.00    -0.225 NA
HETATM    4  C   UNL     1       6.683  24.710  52.780  1.00  0.00     0.104 A 
HETATM    5  C   UNL     1       6.139  25.321  51.645  1.00  0.00     0.150 A 
HETATM    6  N   UNL     1       5.888  26.649  51.630  1.00  0.00    -0.270 NA
HETATM    7  C   UNL     1       6.167  27.361  52.746  1.00  0.00     0.131 A 
HETATM    8  C   UNL     1       6.707  26.859  53.939  1.00  0.00     0.021 A 
HETATM    9  C   UNL     1       6.976  25.474  53.914  1.00  0.00     0.079 A 
ENDROOT
BRANCH   8  10
HETATM   10  C   UNL     1       6.919  27.740  55.080  1.00  0.00    -0.022 A 
HETATM   11  C   UNL     1       5.903  27.941  56.027  1.00  0.00     0.013 A 
HETATM   12  C   UNL     1       6.081  28.825  57.095  1.00  0.00     0.010 A 
HETATM   13  C   UNL     1       7.278  29.540  57.240  1.00  0.00    -0.031 A 
HETATM   14  C   UNL     1       8.282  29.360  56.279  1.00  0.00     0.010 A 
HETATM   15  C   UNL     1       8.109  28.466  55.218  1.00  0.00     0.013 A 
BRANCH  13  16
HETATM   16  C   UNL     1       7.418  30.549  58.355  1.00  0.00     0.305 C 
BRANCH  16  17
HETATM   17  N   UNL     1       7.982  29.978  59.574  1.00  0.00     0.082 N 
HETATM   18  H   UNL     1       7.396  30.247  60.363  1.00  0.00     0.313 HD
HETATM   19  H   UNL     1       8.896  30.392  59.742  1.00  0.00     0.313 HD
ENDBRANCH  16  17
ENDBRANCH  13  16
ENDBRANCH   8  10
BRANCH   1  20
HETATM   20  C   UNL     1       8.081  24.843  56.105  1.00  0.00     0.126 C 
HETATM   21  C   UNL     1       7.030  24.813  57.201  1.00  0.00     0.027 C 
ENDBRANCH   1  20
BRANCH   2  22
HETATM   22  C   UNL     1       7.975  21.993  54.749  1.00  0.00     0.179 A 
HETATM   23  N   UNL     1       8.334  21.792  56.019  1.00  0.00    -0.097 NA
HETATM   24  O   UNL     1       8.662  20.442  56.090  1.00  0.00    -0.104 OA
HETATM   25  N   UNL     1       8.502  19.815  54.861  1.00  0.00    -0.085 NA
HETATM   26  C   UNL     1       8.093  20.773  54.032  1.00  0.00     0.186 A 
BRANCH  26  27
HETATM   27  N   UNL     1       7.826  20.597  52.723  1.00  0.00    -0.380 N 
HETATM   28  H   UNL     1       7.344  21.315  52.199  1.00  0.00     0.158 HD
HETATM   29  H   UNL     1       8.407  19.961  52.176  1.00  0.00     0.158 HD
ENDBRANCH  26  27
ENDBRANCH   2  22
TORSDOF 6
ENDMDL
MODEL 6
REMARK VINA RESULT:      -7.8      2.524      4.563
REMARK  6 active torsions:
REMARK  status: ('A' for Active; 'I' for Inactive)
REMARK    1  A    between atoms: C_2  and  N_3 
REMARK    2  A    between atoms: C_4  and  C_20 
REMARK    3  A    between atoms: C_10  and  C_11 
REMARK    4  A    between atoms: C_14  and  C_15 
REMARK    5  A    between atoms: C_15  and  N_16 
REMARK    6  A    between atoms: C_24  and  N_25 
ROOT
HETATM    1  N   UNL     1       5.912  26.929  54.314  1.00  0.00    -0.327 N 
HETATM    2  C   UNL     1       5.348  28.194  54.372  1.00  0.00     0.166 A 
HETATM    3  N   UNL     1       5.751  28.832  55.456  1.00  0.00    -0.225 NA
HETATM    4  C   UNL     1       6.598  27.979  56.110  1.00  0.00     0.104 A 
HETATM    5  C   UNL     1       7.309  28.193  57.296  1.00  0.00     0.150 A 
HETATM    6  N   UNL     1       8.102  27.226  57.809  1.00  0.00    -0.270 NA
HETATM    7  C   UNL     1       8.176  26.048  57.149  1.00  0.00     0.131 A 
HETATM    8  C   UNL     1       7.509  25.719  55.959  1.00  0.00     0.021 A 
HETATM    9  C   UNL     1       6.706  26.756  55.440  1.00  0.00     0.079 A 
ENDROOT
BRANCH   8  10
HETATM   10  C   UNL     1       7.651  24.390  55.379  1.00  0.00    -0.022 A 
HETATM   11  C   UNL     1       7.376  23.243  56.141  1.00  0.00     0.013 A 
HETATM   12  C   UNL     1       7.561  21.965  55.606  1.00  0.00     0.010 A 
HETATM   13  C   UNL     1       8.036  21.798  54.298  1.00  0.00    -0.031 A 
HETATM   14  C   UNL     1       8.336  22.942  53.547  1.00  0.00     0.010 A 
HETATM   15  C   UNL     1       8.139  24.221  54.077  1.00  0.00     0.013 A 
BRANCH  13  16
HETATM   16  C   UNL     1       8.304  20.409  53.769  1.00  0.00     0.305 C 
BRANCH  16  17
HETATM   17  N   UNL     1       8.199  20.321  52.316  1.00  0.00     0.082 N 
HETATM   18  H   UNL     1       9.108  20.535  51.908  1.00  0.00     0.313 HD
HETATM   19  H   UNL     1       7.559  21.041  51.986  1.00  0.00     0.313 HD
ENDBRANCH  16  17
ENDBRANCH  13  16
ENDBRANCH   8  10
BRANCH   1  20
HETATM   20  C   UNL     1       5.740  25.979  53.231  1.00  0.00     0.126 C 
HETATM   21  C   UNL     1       4.613  24.996  53.492  1.00  0.00     0.027 C 
ENDBRANCH   1  20
BRANCH   2  22
HETATM   22  C   UNL     1       4.404  28.835  53.394  1.00  0.00     0.179 A 
HETATM   23  N   UNL     1       3.632  28.169  52.532  1.00  0.00    -0.097 NA
HETATM   24  O   UNL     1       2.914  29.151  51.858  1.00  0.00    -0.104 OA
HETATM   25  N   UNL     1       3.245  30.422  52.311  1.00  0.00    -0.085 NA
HETATM   26  C   UNL     1       4.172  30.228  53.246  1.00  0.00     0.186 A 
BRANCH  26  27
HETATM   27  N   UNL     1       4.780  31.208  53.942  1.00  0.00    -0.380 N 
HETATM   28  H   UNL     1       5.721  31.494  53.705  1.00  0.00     0.158 HD
HETATM   29  H   UNL     1       4.213  31.904  54.426  1.00  0.00     0.158 HD
ENDBRANCH  26  27
ENDBRANCH   2  22
TORSDOF 6
ENDMDL
MODEL 7
REMARK VINA RESULT:      -7.6      3.077      7.212
REMARK  6 active torsions:
REMARK  status: ('A' for Active; 'I' for Inactive)
REMARK    1  A    between atoms: C_2  and  N_3 
REMARK    2  A    between atoms: C_4  and  C_20 
REMARK    3  A    between atoms: C_10  and  C_11 
REMARK    4  A    between atoms: C_14  and  C_15 
REMARK    5  A    between atoms: C_15  and  N_16 
REMARK    6  A    between atoms: C_24  and  N_25 
ROOT
HETATM    1  N   UNL     1       6.920  27.155  54.454  1.00  0.00    -0.327 N 
HETATM    2  C   UNL     1       6.442  26.306  53.468  1.00  0.00     0.166 A 
HETATM    3  N   UNL     1       6.586  25.045  53.834  1.00  0.00    -0.225 NA
HETATM    4  C   UNL     1       7.156  25.069  55.078  1.00  0.00     0.104 A 
HETATM    5  C   UNL     1       7.487  23.992  55.907  1.00  0.00     0.150 A 
HETATM    6  N   UNL     1       8.058  24.202  57.114  1.00  0.00    -0.270 NA
HETATM    7  C   UNL     1       8.307  25.478  57.487  1.00  0.00     0.131 A 
HETATM    8  C   UNL     1       8.024  26.632  56.740  1.00  0.00     0.021 A 
HETATM    9  C   UNL     1       7.411  26.379  55.495  1.00  0.00     0.079 A 
ENDROOT
BRANCH   8  10
HETATM   10  C   UNL     1       8.387  27.947  57.252  1.00  0.00    -0.022 A 
HETATM   11  C   UNL     1       9.608  28.541  56.897  1.00  0.00     0.013 A 
HETATM   12  C   UNL     1       9.985  29.779  57.425  1.00  0.00     0.010 A 
HETATM   13  C   UNL     1       9.155  30.453  58.331  1.00  0.00    -0.031 A 
HETATM   14  C   UNL     1       7.948  29.847  58.706  1.00  0.00     0.010 A 
HETATM   15  C   UNL     1       7.565  28.615  58.168  1.00  0.00     0.013 A 
BRANCH  13  16
HETATM   16  C   UNL     1       9.618  31.750  58.951  1.00  0.00     0.305 C 
BRANCH  16  17
HETATM   17  N   UNL     1       8.663  32.297  59.910  1.00  0.00     0.082 N 
HETATM   18  H   UNL     1       9.012  33.195  60.243  1.00  0.00     0.313 HD
HETATM   19  H   UNL     1       8.622  31.685  60.722  1.00  0.00     0.313 HD
ENDBRANCH  16  17
ENDBRANCH  13  16
ENDBRANCH   8  10
BRANCH   1  20
HETATM   20  C   UNL     1       6.863  28.605  54.416  1.00  0.00     0.126 C 
HETATM   21  C   UNL     1       5.596  29.154  55.048  1.00  0.00     0.027 C 
ENDBRANCH   1  20
BRANCH   2  22
HETATM   22  C   UNL     1       5.831  26.671  52.144  1.00  0.00     0.179 A 
HETATM   23  N   UNL     1       6.031  27.826  51.506  1.00  0.00    -0.097 NA
HETATM   24  O   UNL     1       5.304  27.715  50.325  1.00  0.00    -0.104 OA
HETATM   25  N   UNL     1       4.659  26.488  50.239  1.00  0.00    -0.085 NA
HETATM   26  C   UNL     1       4.972  25.851  51.365  1.00  0.00     0.186 A 
BRANCH  26  27
HETATM   27  N   UNL     1       4.542  24.617  51.697  1.00  0.00    -0.380 N 
HETATM   28  H   UNL     1       4.027  24.471  52.555  1.00  0.00     0.158 HD
HETATM   29  H   UNL     1       4.390  23.927  50.963  1.00  0.00     0.158 HD
ENDBRANCH  26  27
ENDBRANCH   2  22
TORSDOF 6
ENDMDL
MODEL 8
REMARK VINA RESULT:      -7.4      2.725      5.279
REMARK  6 active torsions:
REMARK  status: ('A' for Active; 'I' for Inactive)
REMARK    1  A    between atoms: C_2  and  N_3 
REMARK    2  A    between atoms: C_4  and  C_20 
REMARK    3  A    between atoms: C_10  and  C_11 
REMARK    4  A    between atoms: C_14  and  C_15 
REMARK    5  A    between atoms: C_15  and  N_16 
REMARK    6  A    between atoms: C_24  and  N_25 
ROOT
HETATM    1  N   UNL     1       7.069  29.258  56.585  1.00  0.00    -0.327 N 
HETATM    2  C   UNL     1       7.781  29.451  57.759  1.00  0.00     0.166 A 
HETATM    3  N   UNL     1       8.305  28.312  58.175  1.00  0.00    -0.225 NA
HETATM    4  C   UNL     1       7.939  27.364  57.258  1.00  0.00     0.104 A 
HETATM    5  C   UNL     1       8.263  26.004  57.232  1.00  0.00     0.150 A 
HETATM    6  N   UNL     1       7.804  25.204  56.243  1.00  0.00    -0.270 NA
HETATM    7  C   UNL     1       7.015  25.756  55.293  1.00  0.00     0.131 A 
HETATM    8  C   UNL     1       6.621  27.101  55.219  1.00  0.00     0.021 A 
HETATM    9  C   UNL     1       7.134  27.911  56.253  1.00  0.00     0.079 A 
ENDROOT
BRANCH   8  10
HETATM   10  C   UNL     1       5.731  27.549  54.157  1.00  0.00    -0.022 A 
HETATM   11  C   UNL     1       6.246  27.957  52.917  1.00  0.00     0.013 A 
HETATM   12  C   UNL     1       5.402  28.437  51.911  1.00  0.00     0.010 A 
HETATM   13  C   UNL     1       4.020  28.532  52.122  1.00  0.00    -0.031 A 
HETATM   14  C   UNL     1       3.508  28.150  53.370  1.00  0.00     0.010 A 
HETATM   15  C   UNL     1       4.351  27.657  54.371  1.00  0.00     0.013 A 
BRANCH  13  16
HETATM   16  C   UNL     1       3.137  29.128  51.051  1.00  0.00     0.305 C 
BRANCH  16  17
HETATM   17  N   UNL     1       1.729  28.778  51.212  1.00  0.00     0.082 N 
HETATM   18  H   UNL     1       1.176  29.634  51.214  1.00  0.00     0.313 HD
HETATM   19  H   UNL     1       1.597  28.349  52.126  1.00  0.00     0.313 HD
ENDBRANCH  16  17
ENDBRANCH  13  16
ENDBRANCH   8  10
BRANCH   1  20
HETATM   20  C   UNL     1       6.416  30.301  55.815  1.00  0.00     0.126 C 
HETATM   21  C   UNL     1       5.012  30.599  56.311  1.00  0.00     0.027 C 
ENDBRANCH   1  20
BRANCH   2  22
HETATM   22  C   UNL     1       7.986  30.729  58.521  1.00  0.00     0.179 A 
HETATM   23  N   UNL     1       7.033  31.372  59.200  1.00  0.00    -0.097 NA
HETATM   24  O   UNL     1       7.671  32.472  59.763  1.00  0.00    -0.104 OA
HETATM   25  N   UNL     1       9.019  32.502  59.429  1.00  0.00    -0.085 NA
HETATM   26  C   UNL     1       9.209  31.437  58.654  1.00  0.00     0.186 A 
BRANCH  26  27
HETATM   27  N   UNL     1      10.387  31.092  58.096  1.00  0.00    -0.380 N 
HETATM   28  H   UNL     1      11.231  31.595  58.334  1.00  0.00     0.158 HD
HETATM   29  H   UNL     1      10.518  30.140  57.754  1.00  0.00     0.158 HD
ENDBRANCH  26  27
ENDBRANCH   2  22
TORSDOF 6
ENDMDL
MODEL 9
REMARK VINA RESULT:      -7.3      3.458      7.500
REMARK  6 active torsions:
REMARK  status: ('A' for Active; 'I' for Inactive)
REMARK    1  A    between atoms: C_2  and  N_3 
REMARK    2  A    between atoms: C_4  and  C_20 
REMARK    3  A    between atoms: C_10  and  C_11 
REMARK    4  A    between atoms: C_14  and  C_15 
REMARK    5  A    between atoms: C_15  and  N_16 
REMARK    6  A    between atoms: C_24  and  N_25 
ROOT
HETATM    1  N   UNL     1       5.684  27.420  52.524  1.00  0.00    -0.327 N 
HETATM    2  C   UNL     1       5.544  26.847  51.269  1.00  0.00     0.166 A 
HETATM    3  N   UNL     1       5.833  25.559  51.314  1.00  0.00    -0.225 NA
HETATM    4  C   UNL     1       6.156  25.283  52.615  1.00  0.00     0.104 A 
HETATM    5  C   UNL     1       6.511  24.056  53.184  1.00  0.00     0.150 A 
HETATM    6  N   UNL     1       6.810  23.967  54.500  1.00  0.00    -0.270 NA
HETATM    7  C   UNL     1       6.766  25.099  55.240  1.00  0.00     0.131 A 
HETATM    8  C   UNL     1       6.430  26.381  54.778  1.00  0.00     0.021 A 
HETATM    9  C   UNL     1       6.104  26.435  53.407  1.00  0.00     0.079 A 
ENDROOT
BRANCH   8  10
HETATM   10  C   UNL     1       6.464  27.521  55.684  1.00  0.00    -0.022 A 
HETATM   11  C   UNL     1       5.355  27.833  56.485  1.00  0.00     0.013 A 
HETATM   12  C   UNL     1       5.363  28.956  57.317  1.00  0.00     0.010 A 
HETATM   13  C   UNL     1       6.477  29.804  57.365  1.00  0.00    -0.031 A 
HETATM   14  C   UNL     1       7.575  29.507  56.545  1.00  0.00     0.010 A 
HETATM   15  C   UNL     1       7.573  28.377  55.722  1.00  0.00     0.013 A 
BRANCH  13  16
HETATM   16  C   UNL     1       6.433  31.055  58.210  1.00  0.00     0.305 C 
BRANCH  16  17
HETATM   17  N   UNL     1       7.121  30.904  59.489  1.00  0.00     0.082 N 
HETATM   18  H   UNL     1       6.445  31.031  60.241  1.00  0.00     0.313 HD
HETATM   19  H   UNL     1       7.804  31.652  59.587  1.00  0.00     0.313 HD
ENDBRANCH  16  17
ENDBRANCH  13  16
ENDBRANCH   8  10
BRANCH   1  20
HETATM   20  C   UNL     1       5.388  28.802  52.856  1.00  0.00     0.126 C 
HETATM   21  C   UNL     1       3.938  29.006  53.257  1.00  0.00     0.027 C 
ENDBRANCH   1  20
BRANCH   2  22
HETATM   22  C   UNL     1       5.129  27.511  49.986  1.00  0.00     0.179 A 
HETATM   23  N   UNL     1       5.543  28.715  49.583  1.00  0.00    -0.097 NA
HETATM   24  O   UNL     1       4.937  28.908  48.346  1.00  0.00    -0.104 OA
HETATM   25  N   UNL     1       4.152  27.819  47.990  1.00  0.00    -0.085 NA
HETATM   26  C   UNL     1       4.259  26.966  49.006  1.00  0.00     0.186 A 
BRANCH  26  27
HETATM   27  N   UNL     1       3.641  25.770  49.075  1.00  0.00    -0.380 N 
HETATM   28  H   UNL     1       4.109  24.978  49.495  1.00  0.00     0.158 HD
HETATM   29  H   UNL     1       2.622  25.733  49.070  1.00  0.00     0.158 HD
ENDBRANCH  26  27
ENDBRANCH   2  22
TORSDOF 6
ENDMDL
MODEL 10
REMARK VINA RESULT:      -6.9      2.978      6.450
REMARK  6 active torsions:
REMARK  status: ('A' for Active; 'I' for Inactive)
REMARK    1  A    between atoms: C_2  and  N_3 
REMARK    2  A    between atoms: C_4  and  C_20 
REMARK    3  A    between atoms: C_10  and  C_11 
REMARK    4  A    between atoms: C_14  and  C_15 
REMARK    5  A    between atoms: C_15  and  N_16 
REMARK    6  A    between atoms: C_24  and  N_25 
ROOT
HETATM    1  N   UNL     1       6.382  25.948  54.934  1.00  0.00    -0.327 N 
HETATM    2  C   UNL     1       7.124  25.301  55.911  1.00  0.00     0.166 A 
HETATM    3  N   UNL     1       7.473  26.147  56.863  1.00  0.00    -0.225 NA
HETATM    4  C   UNL     1       6.945  27.360  56.510  1.00  0.00     0.104 A 
HETATM    5  C   UNL     1       7.011  28.574  57.201  1.00  0.00     0.150 A 
HETATM    6  N   UNL     1       6.433  29.687  56.697  1.00  0.00    -0.270 NA
HETATM    7  C   UNL     1       5.803  29.591  55.503  1.00  0.00     0.131 A 
HETATM    8  C   UNL     1       5.678  28.433  54.721  1.00  0.00     0.021 A 
HETATM    9  C   UNL     1       6.274  27.286  55.286  1.00  0.00     0.079 A 
ENDROOT
BRANCH   8  10
HETATM   10  C   UNL     1       5.004  28.487  53.431  1.00  0.00    -0.022 A 
HETATM   11  C   UNL     1       5.739  28.643  52.245  1.00  0.00     0.013 A 
HETATM   12  C   UNL     1       5.094  28.747  51.009  1.00  0.00     0.010 A 
HETATM   13  C   UNL     1       3.696  28.707  50.925  1.00  0.00    -0.031 A 
HETATM   14  C   UNL     1       2.961  28.578  52.112  1.00  0.00     0.010 A 
HETATM   15  C   UNL     1       3.605  28.462  53.347  1.00  0.00     0.013 A 
BRANCH  13  16
HETATM   16  C   UNL     1       3.019  28.902  49.589  1.00  0.00     0.305 C 
BRANCH  16  17
HETATM   17  N   UNL     1       1.969  27.920  49.333  1.00  0.00     0.082 N 
HETATM   18  H   UNL     1       2.297  27.004  49.636  1.00  0.00     0.313 HD
HETATM   19  H   UNL     1       1.817  27.853  48.329  1.00  0.00     0.313 HD
ENDBRANCH  16  17
ENDBRANCH  13  16
ENDBRANCH   8  10
BRANCH   1  20
HETATM   20  C   UNL     1       5.780  25.313  53.775  1.00  0.00     0.126 C 
HETATM   21  C   UNL     1       6.718  25.272  52.582  1.00  0.00     0.027 C 
ENDBRANCH   1  20
BRANCH   2  22
HETATM   22  C   UNL     1       7.523  23.853  55.967  1.00  0.00     0.179 A 
HETATM   23  N   UNL     1       7.233  22.946  55.031  1.00  0.00    -0.097 NA
HETATM   24  O   UNL     1       7.818  21.767  55.480  1.00  0.00    -0.104 OA
HETATM   25  N   UNL     1       8.469  21.953  56.692  1.00  0.00    -0.085 NA
HETATM   26  C   UNL     1       8.276  23.233  56.999  1.00  0.00     0.186 A 
BRANCH  26  27
HETATM   27  N   UNL     1       8.736  23.836  58.113  1.00  0.00    -0.380 N 
HETATM   28  H   UNL     1       8.763  24.846  58.172  1.00  0.00     0.158 HD
HETATM   29  H   UNL     1       8.699  23.339  59.002  1.00  0.00     0.158 HD
ENDBRANCH  26  27
ENDBRANCH   2  22
TORSDOF 6
ENDMDL
