MODEL 1
REMARK VINA RESULT:      -8.9      0.000      0.000
REMARK  6 active torsions:
REMARK  status: ('A' for Active; 'I' for Inactive)
REMARK    1  A    between atoms: C_2  and  C_3 
REMARK    2  A    between atoms: C_3  and  N_4 
REMARK    3  A    between atoms: C_3  and  C_11 
REMARK    4  A    between atoms: N_4  and  C_5 
REMARK       I    between atoms: C_11  and  N_12 
REMARK    5  A    between atoms: N_12  and  N_13 
REMARK    6  A    between atoms: C_14  and  C_15 
ROOT
HETATM    1  C   UNL     1       6.730  25.569  56.245  1.00  0.00     0.255 C 
HETATM    2  N   UNL     1       7.530  26.627  55.824  1.00  0.00    -0.246 N 
HETATM    3  O   UNL     1       6.448  25.286  57.407  1.00  0.00    -0.270 OA
HETATM    4  H   UNL     1       7.597  26.773  54.817  1.00  0.00     0.192 HD
ENDROOT
BRANCH   2   5
HETATM    5  N   UNL     1       8.215  27.536  56.583  1.00  0.00    -0.184 NA
HETATM    6  C   UNL     1       8.553  28.678  56.079  1.00  0.00     0.152 C 
BRANCH   6   7
HETATM    7  C   UNL     1       9.274  29.630  56.906  1.00  0.00     0.011 A 
HETATM    8  C   UNL     1       8.737  30.425  57.969  1.00  0.00     0.004 A 
HETATM    9  C   UNL     1       9.785  31.180  58.499  1.00  0.00     0.043 A 
HETATM   10  C   UNL     1       7.453  30.570  58.538  1.00  0.00     0.014 A 
HETATM   11  C   UNL     1       9.617  32.068  59.568  1.00  0.00     0.030 A 
HETATM   12  N   UNL     1      10.915  30.863  57.780  1.00  0.00    -0.364 N 
HETATM   13  C   UNL     1       8.335  32.191  60.112  1.00  0.00     0.002 A 
HETATM   14  C   UNL     1       7.268  31.456  59.607  1.00  0.00     0.001 A 
HETATM   15  H   UNL     1      11.829  31.261  57.945  1.00  0.00     0.165 HD
HETATM   16  C   UNL     1      10.620  29.932  56.821  1.00  0.00     0.102 A 
ENDBRANCH   6   7
ENDBRANCH   2   5
BRANCH   1  17
HETATM   17  C   UNL     1       6.168  24.753  55.056  1.00  0.00     0.154 C 
BRANCH  17  18
HETATM   18  C   UNL     1       5.230  25.629  54.211  1.00  0.00     0.025 C 
HETATM   19  C   UNL     1       4.872  24.989  52.876  1.00  0.00     0.007 C 
ENDBRANCH  17  18
BRANCH  17  20
HETATM   20  N   UNL     1       7.314  24.286  54.218  1.00  0.00    -0.280 NA
HETATM   21  H   UNL     1       8.174  24.729  54.555  1.00  0.00     0.128 HD
BRANCH  20  22
HETATM   22  C   UNL     1       7.562  22.898  54.249  1.00  0.00     0.009 A 
HETATM   23  C   UNL     1       7.880  22.253  53.050  1.00  0.00     0.023 A 
HETATM   24  C   UNL     1       8.209  20.896  53.031  1.00  0.00     0.002 A 
HETATM   25  C   UNL     1       8.248  20.174  54.221  1.00  0.00     0.000 A 
HETATM   26  C   UNL     1       7.965  20.811  55.427  1.00  0.00     0.002 A 
HETATM   27  C   UNL     1       7.633  22.169  55.442  1.00  0.00     0.023 A 
ENDBRANCH  20  22
ENDBRANCH  17  20
ENDBRANCH   1  17
TORSDOF 6
ENDMDL
MODEL 2
REMARK VINA RESULT:      -8.7      4.391      7.903
REMARK  6 active torsions:
REMARK  status: ('A' for Active; 'I' for Inactive)
REMARK    1  A    between atoms: C_2  and  C_3 
REMARK    2  A    between atoms: C_3  and  N_4 
REMARK    3  A    between atoms: C_3  and  C_11 
REMARK    4  A    between atoms: N_4  and  C_5 
REMARK       I    between atoms: C_11  and  N_12 
REMARK    5  A    between atoms: N_12  and  N_13 
REMARK    6  A    between atoms: C_14  and  C_15 
ROOT
HETATM    1  C   UNL     1       7.345  26.016  54.414  1.00  0.00     0.255 C 
HETATM    2  N   UNL     1       6.779  25.647  53.197  1.00  0.00    -0.246 N 
HETATM    3  O   UNL     1       7.463  27.160  54.847  1.00  0.00    -0.270 OA
HETATM    4  H   UNL     1       6.683  24.647  53.025  1.00  0.00     0.192 HD
ENDROOT
BRANCH   2   5
HETATM    5  N   UNL     1       6.287  26.451  52.205  1.00  0.00    -0.184 NA
HETATM    6  C   UNL     1       5.533  25.953  51.281  1.00  0.00     0.152 C 
BRANCH   6   7
HETATM    7  C   UNL     1       5.017  26.825  50.241  1.00  0.00     0.011 A 
HETATM    8  C   UNL     1       4.175  26.453  49.145  1.00  0.00     0.004 A 
HETATM    9  C   UNL     1       3.909  27.609  48.408  1.00  0.00     0.043 A 
HETATM   10  C   UNL     1       3.606  25.235  48.709  1.00  0.00     0.014 A 
HETATM   11  C   UNL     1       3.102  27.611  47.264  1.00  0.00     0.030 A 
HETATM   12  N   UNL     1       4.570  28.643  49.028  1.00  0.00    -0.364 N 
HETATM   13  C   UNL     1       2.552  26.393  46.857  1.00  0.00     0.002 A 
HETATM   14  C   UNL     1       2.799  25.221  47.566  1.00  0.00     0.001 A 
HETATM   15  H   UNL     1       4.557  29.603  48.711  1.00  0.00     0.165 HD
HETATM   16  C   UNL     1       5.238  28.185  50.130  1.00  0.00     0.102 A 
ENDBRANCH   6   7
ENDBRANCH   2   5
BRANCH   1  17
HETATM   17  C   UNL     1       7.813  24.789  55.235  1.00  0.00     0.154 C 
BRANCH  17  18
HETATM   18  C   UNL     1       7.737  25.100  56.738  1.00  0.00     0.025 C 
HETATM   19  C   UNL     1       8.918  24.532  57.515  1.00  0.00     0.007 C 
ENDBRANCH  17  18
BRANCH  17  20
HETATM   20  N   UNL     1       6.920  23.635  54.913  1.00  0.00    -0.280 NA
HETATM   21  H   UNL     1       6.358  23.869  54.089  1.00  0.00     0.128 HD
BRANCH  20  22
HETATM   22  C   UNL     1       7.580  22.429  54.593  1.00  0.00     0.009 A 
HETATM   23  C   UNL     1       7.835  21.519  55.624  1.00  0.00     0.023 A 
HETATM   24  C   UNL     1       8.417  20.278  55.356  1.00  0.00     0.002 A 
HETATM   25  C   UNL     1       8.727  19.924  54.045  1.00  0.00     0.000 A 
HETATM   26  C   UNL     1       8.448  20.809  53.005  1.00  0.00     0.002 A 
HETATM   27  C   UNL     1       7.869  22.051  53.277  1.00  0.00     0.023 A 
ENDBRANCH  20  22
ENDBRANCH  17  20
ENDBRANCH   1  17
TORSDOF 6
ENDMDL
MODEL 3
REMARK VINA RESULT:      -8.6      5.328      9.307
REMARK  6 active torsions:
REMARK  status: ('A' for Active; 'I' for Inactive)
REMARK    1  A    between atoms: C_2  and  C_3 
REMARK    2  A    between atoms: C_3  and  N_4 
REMARK    3  A    between atoms: C_3  and  C_11 
REMARK    4  A    between atoms: N_4  and  C_5 
REMARK       I    between atoms: C_11  and  N_12 
REMARK    5  A    between atoms: N_12  and  N_13 
REMARK    6  A    between atoms: C_14  and  C_15 
ROOT
HETATM    1  C   UNL     1       4.819  27.198  51.190  1.00  0.00     0.255 C 
HETATM    2  N   UNL     1       4.847  25.821  51.391  1.00  0.00    -0.246 N 
HETATM    3  O   UNL     1       5.186  28.059  51.985  1.00  0.00    -0.270 OA
HETATM    4  H   UNL     1       4.583  25.240  50.596  1.00  0.00     0.192 HD
ENDROOT
BRANCH   2   5
HETATM    5  N   UNL     1       5.226  25.128  52.509  1.00  0.00    -0.184 NA
HETATM    6  C   UNL     1       6.431  24.670  52.610  1.00  0.00     0.152 C 
BRANCH   6   7
HETATM    7  C   UNL     1       6.813  23.943  53.807  1.00  0.00     0.011 A 
HETATM    8  C   UNL     1       7.433  22.653  53.870  1.00  0.00     0.004 A 
HETATM    9  C   UNL     1       7.637  22.351  55.217  1.00  0.00     0.043 A 
HETATM   10  C   UNL     1       7.846  21.711  52.902  1.00  0.00     0.014 A 
HETATM   11  C   UNL     1       8.235  21.160  55.646  1.00  0.00     0.030 A 
HETATM   12  N   UNL     1       7.154  23.412  55.947  1.00  0.00    -0.364 N 
HETATM   13  C   UNL     1       8.636  20.247  54.666  1.00  0.00     0.002 A 
HETATM   14  C   UNL     1       8.444  20.515  53.314  1.00  0.00     0.001 A 
HETATM   15  H   UNL     1       7.169  23.468  56.956  1.00  0.00     0.165 HD
HETATM   16  C   UNL     1       6.657  24.374  55.111  1.00  0.00     0.102 A 
ENDBRANCH   6   7
ENDBRANCH   2   5
BRANCH   1  17
HETATM   17  C   UNL     1       4.283  27.570  49.786  1.00  0.00     0.154 C 
BRANCH  17  18
HETATM   18  C   UNL     1       4.503  26.403  48.810  1.00  0.00     0.025 C 
HETATM   19  C   UNL     1       5.116  26.849  47.490  1.00  0.00     0.007 C 
ENDBRANCH  17  18
BRANCH  17  20
HETATM   20  N   UNL     1       2.823  27.866  49.898  1.00  0.00    -0.280 NA
HETATM   21  H   UNL     1       2.696  28.692  50.493  1.00  0.00     0.128 HD
BRANCH  20  22
HETATM   22  C   UNL     1       2.170  28.167  48.684  1.00  0.00     0.009 A 
HETATM   23  C   UNL     1       1.188  27.285  48.223  1.00  0.00     0.023 A 
HETATM   24  C   UNL     1       0.456  27.569  47.068  1.00  0.00     0.002 A 
HETATM   25  C   UNL     1       0.684  28.755  46.374  1.00  0.00     0.000 A 
HETATM   26  C   UNL     1       1.637  29.658  46.841  1.00  0.00     0.002 A 
HETATM   27  C   UNL     1       2.369  29.369  47.996  1.00  0.00     0.023 A 
ENDBRANCH  20  22
ENDBRANCH  17  20
ENDBRANCH   1  17
TORSDOF 6
ENDMDL
MODEL 4
REMARK VINA RESULT:      -8.5      1.897      8.488
REMARK  6 active torsions:
REMARK  status: ('A' for Active; 'I' for Inactive)
REMARK    1  A    between atoms: C_2  and  C_3 
REMARK    2  A    between atoms: C_3  and  N_4 
REMARK    3  A    between atoms: C_3  and  C_11 
REMARK    4  A    between atoms: N_4  and  C_5 
REMARK       I    between atoms: C_11  and  N_12 
REMARK    5  A    between atoms: N_12  and  N_13 
REMARK    6  A    between atoms: C_14  and  C_15 
ROOT
HETATM    1  C   UNL     1       6.206  27.499  56.280  1.00  0.00     0.255 C 
HETATM    2  N   UNL     1       6.705  26.594  57.212  1.00  0.00    -0.246 N 
HETATM    3  O   UNL     1       5.790  27.233  55.155  1.00  0.00    -0.270 OA
HETATM    4  H   UNL     1       6.933  26.968  58.132  1.00  0.00     0.192 HD
ENDROOT
BRANCH   2   5
HETATM    5  N   UNL     1       6.894  25.245  57.077  1.00  0.00    -0.184 NA
HETATM    6  C   UNL     1       7.904  24.795  56.408  1.00  0.00     0.152 C 
BRANCH   6   7
HETATM    7  C   UNL     1       8.088  23.360  56.283  1.00  0.00     0.011 A 
HETATM    8  C   UNL     1       8.050  22.590  55.076  1.00  0.00     0.004 A 
HETATM    9  C   UNL     1       8.296  21.259  55.421  1.00  0.00     0.043 A 
HETATM   10  C   UNL     1       7.834  22.901  53.716  1.00  0.00     0.014 A 
HETATM   11  C   UNL     1       8.340  20.227  54.476  1.00  0.00     0.030 A 
HETATM   12  N   UNL     1       8.468  21.220  56.785  1.00  0.00    -0.364 N 
HETATM   13  C   UNL     1       8.124  20.563  53.137  1.00  0.00     0.002 A 
HETATM   14  C   UNL     1       7.874  21.879  52.760  1.00  0.00     0.001 A 
HETATM   15  H   UNL     1       8.661  20.381  57.314  1.00  0.00     0.165 HD
HETATM   16  C   UNL     1       8.347  22.476  57.313  1.00  0.00     0.102 A 
ENDBRANCH   6   7
ENDBRANCH   2   5
BRANCH   1  17
HETATM   17  C   UNL     1       6.193  28.948  56.824  1.00  0.00     0.154 C 
BRANCH  17  18
HETATM   18  C   UNL     1       4.755  29.370  57.167  1.00  0.00     0.025 C 
HETATM   19  C   UNL     1       4.686  30.746  57.816  1.00  0.00     0.007 C 
ENDBRANCH  17  18
BRANCH  17  20
HETATM   20  N   UNL     1       7.040  29.001  58.054  1.00  0.00    -0.280 NA
HETATM   21  H   UNL     1       7.290  28.045  58.326  1.00  0.00     0.128 HD
BRANCH  20  22
HETATM   22  C   UNL     1       8.264  29.690  57.918  1.00  0.00     0.009 A 
HETATM   23  C   UNL     1       8.465  30.843  58.683  1.00  0.00     0.023 A 
HETATM   24  C   UNL     1       9.684  31.524  58.646  1.00  0.00     0.002 A 
HETATM   25  C   UNL     1      10.726  31.041  57.859  1.00  0.00     0.000 A 
HETATM   26  C   UNL     1      10.550  29.875  57.116  1.00  0.00     0.002 A 
HETATM   27  C   UNL     1       9.328  29.198  57.153  1.00  0.00     0.023 A 
ENDBRANCH  20  22
ENDBRANCH  17  20
ENDBRANCH   1  17
TORSDOF 6
ENDMDL
MODEL 5
REMARK VINA RESULT:      -8.4      1.609      2.430
REMARK  6 active torsions:
REMARK  status: ('A' for Active; 'I' for Inactive)
REMARK    1  A    between atoms: C_2  and  C_3 
REMARK    2  A    between atoms: C_3  and  N_4 
REMARK    3  A    between atoms: C_3  and  C_11 
REMARK    4  A    between atoms: N_4  and  C_5 
REMARK       I    between atoms: C_11  and  N_12 
REMARK    5  A    between atoms: N_12  and  N_13 
REMARK    6  A    between atoms: C_14  and  C_15 
ROOT
HETATM    1  C   UNL     1       6.083  25.321  55.380  1.00  0.00     0.255 C 
HETATM    2  N   UNL     1       5.968  26.665  55.037  1.00  0.00    -0.246 N 
HETATM    3  O   UNL     1       5.966  24.843  56.505  1.00  0.00    -0.270 OA
HETATM    4  H   UNL     1       6.011  26.885  54.042  1.00  0.00     0.192 HD
ENDROOT
BRANCH   2   5
HETATM    5  N   UNL     1       5.759  27.741  55.855  1.00  0.00    -0.184 NA
HETATM    6  C   UNL     1       6.741  28.244  56.530  1.00  0.00     0.152 C 
BRANCH   6   7
HETATM    7  C   UNL     1       6.498  29.390  57.387  1.00  0.00     0.011 A 
HETATM    8  C   UNL     1       7.475  30.146  58.111  1.00  0.00     0.004 A 
HETATM    9  C   UNL     1       6.801  31.165  58.786  1.00  0.00     0.043 A 
HETATM   10  C   UNL     1       8.878  30.061  58.253  1.00  0.00     0.014 A 
HETATM   11  C   UNL     1       7.456  32.105  59.590  1.00  0.00     0.030 A 
HETATM   12  N   UNL     1       5.465  31.031  58.490  1.00  0.00    -0.364 N 
HETATM   13  C   UNL     1       8.845  31.999  59.712  1.00  0.00     0.002 A 
HETATM   14  C   UNL     1       9.547  30.993  59.056  1.00  0.00     0.001 A 
HETATM   15  H   UNL     1       4.736  31.636  58.843  1.00  0.00     0.165 HD
HETATM   16  C   UNL     1       5.270  29.969  57.650  1.00  0.00     0.102 A 
ENDBRANCH   6   7
ENDBRANCH   2   5
BRANCH   1  17
HETATM   17  C   UNL     1       6.357  24.426  54.147  1.00  0.00     0.154 C 
BRANCH  17  18
HETATM   18  C   UNL     1       5.953  25.163  52.859  1.00  0.00     0.025 C 
HETATM   19  C   UNL     1       7.101  25.284  51.867  1.00  0.00     0.007 C 
ENDBRANCH  17  18
BRANCH  17  20
HETATM   20  N   UNL     1       7.816  24.105  54.107  1.00  0.00    -0.280 NA
HETATM   21  H   UNL     1       8.279  24.572  54.894  1.00  0.00     0.128 HD
BRANCH  20  22
HETATM   22  C   UNL     1       8.140  22.738  54.231  1.00  0.00     0.009 A 
HETATM   23  C   UNL     1       8.344  22.218  55.513  1.00  0.00     0.023 A 
HETATM   24  C   UNL     1       8.593  20.857  55.703  1.00  0.00     0.002 A 
HETATM   25  C   UNL     1       8.616  19.996  54.609  1.00  0.00     0.000 A 
HETATM   26  C   UNL     1       8.382  20.495  53.329  1.00  0.00     0.002 A 
HETATM   27  C   UNL     1       8.136  21.858  53.143  1.00  0.00     0.023 A 
ENDBRANCH  20  22
ENDBRANCH  17  20
ENDBRANCH   1  17
TORSDOF 6
ENDMDL
MODEL 6
REMARK VINA RESULT:      -8.4      2.040      9.048
REMARK  6 active torsions:
REMARK  status: ('A' for Active; 'I' for Inactive)
REMARK    1  A    between atoms: C_2  and  C_3 
REMARK    2  A    between atoms: C_3  and  N_4 
REMARK    3  A    between atoms: C_3  and  C_11 
REMARK    4  A    between atoms: N_4  and  C_5 
REMARK       I    between atoms: C_11  and  N_12 
REMARK    5  A    between atoms: N_12  and  N_13 
REMARK    6  A    between atoms: C_14  and  C_15 
ROOT
HETATM    1  C   UNL     1       8.890  29.489  57.619  1.00  0.00     0.255 C 
HETATM    2  N   UNL     1       7.948  28.469  57.722  1.00  0.00    -0.246 N 
HETATM    3  O   UNL     1      10.077  29.359  57.331  1.00  0.00    -0.270 OA
HETATM    4  H   UNL     1       6.984  28.756  57.889  1.00  0.00     0.192 HD
ENDROOT
BRANCH   2   5
HETATM    5  N   UNL     1       8.131  27.120  57.586  1.00  0.00    -0.184 NA
HETATM    6  C   UNL     1       7.837  26.535  56.471  1.00  0.00     0.152 C 
BRANCH   6   7
HETATM    7  C   UNL     1       8.045  25.103  56.347  1.00  0.00     0.011 A 
HETATM    8  C   UNL     1       7.945  24.320  55.152  1.00  0.00     0.004 A 
HETATM    9  C   UNL     1       8.244  22.999  55.491  1.00  0.00     0.043 A 
HETATM   10  C   UNL     1       7.632  24.612  53.806  1.00  0.00     0.014 A 
HETATM   11  C   UNL     1       8.249  21.957  54.555  1.00  0.00     0.030 A 
HETATM   12  N   UNL     1       8.508  22.978  56.841  1.00  0.00    -0.364 N 
HETATM   13  C   UNL     1       7.936  22.275  53.230  1.00  0.00     0.002 A 
HETATM   14  C   UNL     1       7.631  23.581  52.859  1.00  0.00     0.001 A 
HETATM   15  H   UNL     1       8.755  22.148  57.363  1.00  0.00     0.165 HD
HETATM   16  C   UNL     1       8.393  24.236  57.365  1.00  0.00     0.102 A 
ENDBRANCH   6   7
ENDBRANCH   2   5
BRANCH   1  17
HETATM   17  C   UNL     1       8.270  30.883  57.883  1.00  0.00     0.154 C 
BRANCH  17  18
HETATM   18  C   UNL     1       6.871  30.730  58.501  1.00  0.00     0.025 C 
HETATM   19  C   UNL     1       5.825  31.590  57.805  1.00  0.00     0.007 C 
ENDBRANCH  17  18
BRANCH  17  20
HETATM   20  N   UNL     1       9.159  31.626  58.827  1.00  0.00    -0.280 NA
HETATM   21  H   UNL     1       9.195  32.611  58.543  1.00  0.00     0.128 HD
BRANCH  20  22
HETATM   22  C   UNL     1       8.742  31.634  60.174  1.00  0.00     0.009 A 
HETATM   23  C   UNL     1       9.191  30.609  61.014  1.00  0.00     0.023 A 
HETATM   24  C   UNL     1       8.872  30.606  62.373  1.00  0.00     0.002 A 
HETATM   25  C   UNL     1       8.119  31.645  62.913  1.00  0.00     0.000 A 
HETATM   26  C   UNL     1       7.693  32.689  62.095  1.00  0.00     0.002 A 
HETATM   27  C   UNL     1       8.011  32.688  60.734  1.00  0.00     0.023 A 
ENDBRANCH  20  22
ENDBRANCH  17  20
ENDBRANCH   1  17
TORSDOF 6
ENDMDL
MODEL 7
REMARK VINA RESULT:      -8.4      5.091      8.334
REMARK  6 active torsions:
REMARK  status: ('A' for Active; 'I' for Inactive)
REMARK    1  A    between atoms: C_2  and  C_3 
REMARK    2  A    between atoms: C_3  and  N_4 
REMARK    3  A    between atoms: C_3  and  C_11 
REMARK    4  A    between atoms: N_4  and  C_5 
REMARK       I    between atoms: C_11  and  N_12 
REMARK    5  A    between atoms: N_12  and  N_13 
REMARK    6  A    between atoms: C_14  and  C_15 
ROOT
HETATM    1  C   UNL     1       5.417  26.233  51.958  1.00  0.00     0.255 C 
HETATM    2  N   UNL     1       5.204  25.923  53.298  1.00  0.00    -0.246 N 
HETATM    3  O   UNL     1       6.114  25.603  51.166  1.00  0.00    -0.270 OA
HETATM    4  H   UNL     1       4.530  26.503  53.797  1.00  0.00     0.192 HD
ENDROOT
BRANCH   2   5
HETATM    5  N   UNL     1       5.748  24.908  54.038  1.00  0.00    -0.184 NA
HETATM    6  C   UNL     1       6.935  25.032  54.534  1.00  0.00     0.152 C 
BRANCH   6   7
HETATM    7  C   UNL     1       7.489  23.945  55.321  1.00  0.00     0.011 A 
HETATM    8  C   UNL     1       7.842  22.638  54.854  1.00  0.00     0.004 A 
HETATM    9  C   UNL     1       8.353  21.927  55.942  1.00  0.00     0.043 A 
HETATM   10  C   UNL     1       7.779  21.990  53.601  1.00  0.00     0.014 A 
HETATM   11  C   UNL     1       8.807  20.607  55.841  1.00  0.00     0.030 A 
HETATM   12  N   UNL     1       8.306  22.767  57.031  1.00  0.00    -0.364 N 
HETATM   13  C   UNL     1       8.734  19.991  54.588  1.00  0.00     0.002 A 
HETATM   14  C   UNL     1       8.227  20.669  53.484  1.00  0.00     0.001 A 
HETATM   15  H   UNL     1       8.613  22.517  57.961  1.00  0.00     0.165 HD
HETATM   16  C   UNL     1       7.790  23.981  56.670  1.00  0.00     0.102 A 
ENDBRANCH   6   7
ENDBRANCH   2   5
BRANCH   1  17
HETATM   17  C   UNL     1       4.632  27.492  51.519  1.00  0.00     0.154 C 
BRANCH  17  18
HETATM   18  C   UNL     1       5.078  28.707  52.349  1.00  0.00     0.025 C 
HETATM   19  C   UNL     1       4.123  29.887  52.222  1.00  0.00     0.007 C 
ENDBRANCH  17  18
BRANCH  17  20
HETATM   20  N   UNL     1       4.906  27.743  50.071  1.00  0.00    -0.280 NA
HETATM   21  H   UNL     1       5.693  27.155  49.776  1.00  0.00     0.128 HD
BRANCH  20  22
HETATM   22  C   UNL     1       3.849  27.432  49.191  1.00  0.00     0.009 A 
HETATM   23  C   UNL     1       3.952  26.275  48.412  1.00  0.00     0.023 A 
HETATM   24  C   UNL     1       2.905  25.877  47.578  1.00  0.00     0.002 A 
HETATM   25  C   UNL     1       1.729  26.621  47.536  1.00  0.00     0.000 A 
HETATM   26  C   UNL     1       1.600  27.758  48.332  1.00  0.00     0.002 A 
HETATM   27  C   UNL     1       2.651  28.155  49.162  1.00  0.00     0.023 A 
ENDBRANCH  20  22
ENDBRANCH  17  20
ENDBRANCH   1  17
TORSDOF 6
ENDMDL
MODEL 8
REMARK VINA RESULT:      -8.3      3.405     10.146
REMARK  6 active torsions:
REMARK  status: ('A' for Active; 'I' for Inactive)
REMARK    1  A    between atoms: C_2  and  C_3 
REMARK    2  A    between atoms: C_3  and  N_4 
REMARK    3  A    between atoms: C_3  and  C_11 
REMARK    4  A    between atoms: N_4  and  C_5 
REMARK       I    between atoms: C_11  and  N_12 
REMARK    5  A    between atoms: N_12  and  N_13 
REMARK    6  A    between atoms: C_14  and  C_15 
ROOT
HETATM    1  C   UNL     1       7.467  31.226  59.762  1.00  0.00     0.255 C 
HETATM    2  N   UNL     1       7.812  29.958  59.305  1.00  0.00    -0.246 N 
HETATM    3  O   UNL     1       7.056  32.161  59.079  1.00  0.00    -0.270 OA
HETATM    4  H   UNL     1       8.057  29.269  60.016  1.00  0.00     0.192 HD
ENDROOT
BRANCH   2   5
HETATM    5  N   UNL     1       7.826  29.487  58.020  1.00  0.00    -0.184 NA
HETATM    6  C   UNL     1       7.539  28.249  57.780  1.00  0.00     0.152 C 
BRANCH   6   7
HETATM    7  C   UNL     1       7.554  27.773  56.409  1.00  0.00     0.011 A 
HETATM    8  C   UNL     1       7.366  26.424  55.964  1.00  0.00     0.004 A 
HETATM    9  C   UNL     1       7.440  26.428  54.570  1.00  0.00     0.043 A 
HETATM   10  C   UNL     1       7.132  25.195  56.620  1.00  0.00     0.014 A 
HETATM   11  C   UNL     1       7.290  25.269  53.799  1.00  0.00     0.030 A 
HETATM   12  N   UNL     1       7.672  27.726  54.182  1.00  0.00    -0.364 N 
HETATM   13  C   UNL     1       7.059  24.067  54.474  1.00  0.00     0.002 A 
HETATM   14  C   UNL     1       6.982  24.027  55.863  1.00  0.00     0.001 A 
HETATM   15  H   UNL     1       7.772  28.028  53.222  1.00  0.00     0.165 HD
HETATM   16  C   UNL     1       7.742  28.543  55.277  1.00  0.00     0.102 A 
ENDBRANCH   6   7
ENDBRANCH   2   5
BRANCH   1  17
HETATM   17  C   UNL     1       7.628  31.356  61.296  1.00  0.00     0.154 C 
BRANCH  17  18
HETATM   18  C   UNL     1       9.015  30.852  61.727  1.00  0.00     0.025 C 
HETATM   19  C   UNL     1      10.124  31.845  61.410  1.00  0.00     0.007 C 
ENDBRANCH  17  18
BRANCH  17  20
HETATM   20  N   UNL     1       7.476  32.795  61.670  1.00  0.00    -0.280 NA
HETATM   21  H   UNL     1       6.889  33.259  60.969  1.00  0.00     0.128 HD
BRANCH  20  22
HETATM   22  C   UNL     1       6.850  33.037  62.911  1.00  0.00     0.009 A 
HETATM   23  C   UNL     1       7.659  33.246  64.032  1.00  0.00     0.023 A 
HETATM   24  C   UNL     1       7.098  33.563  65.271  1.00  0.00     0.002 A 
HETATM   25  C   UNL     1       5.718  33.700  65.395  1.00  0.00     0.000 A 
HETATM   26  C   UNL     1       4.902  33.526  64.279  1.00  0.00     0.002 A 
HETATM   27  C   UNL     1       5.467  33.205  63.041  1.00  0.00     0.023 A 
ENDBRANCH  20  22
ENDBRANCH  17  20
ENDBRANCH   1  17
TORSDOF 6
ENDMDL
MODEL 9
REMARK VINA RESULT:      -8.0      2.510      3.464
REMARK  6 active torsions:
REMARK  status: ('A' for Active; 'I' for Inactive)
REMARK    1  A    between atoms: C_2  and  C_3 
REMARK    2  A    between atoms: C_3  and  N_4 
REMARK    3  A    between atoms: C_3  and  C_11 
REMARK    4  A    between atoms: N_4  and  C_5 
REMARK       I    between atoms: C_11  and  N_12 
REMARK    5  A    between atoms: N_12  and  N_13 
REMARK    6  A    between atoms: C_14  and  C_15 
ROOT
HETATM    1  C   UNL     1       5.267  28.532  54.658  1.00  0.00     0.255 C 
HETATM    2  N   UNL     1       6.270  29.336  55.191  1.00  0.00    -0.246 N 
HETATM    3  O   UNL     1       4.083  28.530  54.986  1.00  0.00    -0.270 OA
HETATM    4  H   UNL     1       7.187  29.272  54.748  1.00  0.00     0.192 HD
ENDROOT
BRANCH   2   5
HETATM    5  N   UNL     1       6.187  30.245  56.210  1.00  0.00    -0.184 NA
HETATM    6  C   UNL     1       6.804  30.028  57.325  1.00  0.00     0.152 C 
BRANCH   6   7
HETATM    7  C   UNL     1       6.706  31.009  58.391  1.00  0.00     0.011 A 
HETATM    8  C   UNL     1       7.566  31.131  59.530  1.00  0.00     0.004 A 
HETATM    9  C   UNL     1       7.117  32.219  60.280  1.00  0.00     0.043 A 
HETATM   10  C   UNL     1       8.694  30.417  59.993  1.00  0.00     0.014 A 
HETATM   11  C   UNL     1       7.738  32.632  61.465  1.00  0.00     0.030 A 
HETATM   12  N   UNL     1       6.021  32.735  59.628  1.00  0.00    -0.364 N 
HETATM   13  C   UNL     1       8.852  31.909  61.899  1.00  0.00     0.002 A 
HETATM   14  C   UNL     1       9.325  30.817  61.177  1.00  0.00     0.001 A 
HETATM   15  H   UNL     1       5.488  33.532  59.946  1.00  0.00     0.165 HD
HETATM   16  C   UNL     1       5.765  32.017  58.492  1.00  0.00     0.102 A 
ENDBRANCH   6   7
ENDBRANCH   2   5
BRANCH   1  17
HETATM   17  C   UNL     1       5.795  27.610  53.533  1.00  0.00     0.154 C 
BRANCH  17  18
HETATM   18  C   UNL     1       5.815  28.367  52.196  1.00  0.00     0.025 C 
HETATM   19  C   UNL     1       5.083  27.621  51.088  1.00  0.00     0.007 C 
ENDBRANCH  17  18
BRANCH  17  20
HETATM   20  N   UNL     1       7.180  27.174  53.887  1.00  0.00    -0.280 NA
HETATM   21  H   UNL     1       7.366  27.422  54.864  1.00  0.00     0.128 HD
BRANCH  20  22
HETATM   22  C   UNL     1       7.422  25.787  53.794  1.00  0.00     0.009 A 
HETATM   23  C   UNL     1       7.146  24.989  54.908  1.00  0.00     0.023 A 
HETATM   24  C   UNL     1       7.294  23.602  54.850  1.00  0.00     0.002 A 
HETATM   25  C   UNL     1       7.699  22.995  53.664  1.00  0.00     0.000 A 
HETATM   26  C   UNL     1       7.947  23.776  52.536  1.00  0.00     0.002 A 
HETATM   27  C   UNL     1       7.799  25.164  52.599  1.00  0.00     0.023 A 
ENDBRANCH  20  22
ENDBRANCH  17  20
ENDBRANCH   1  17
TORSDOF 6
ENDMDL
MODEL 10
REMARK VINA RESULT:      -7.9      4.570      8.549
REMARK  6 active torsions:
REMARK  status: ('A' for Active; 'I' for Inactive)
REMARK    1  A    between atoms: C_2  and  C_3 
REMARK    2  A    between atoms: C_3  and  N_4 
REMARK    3  A    between atoms: C_3  and  C_11 
REMARK    4  A    between atoms: N_4  and  C_5 
REMARK       I    between atoms: C_11  and  N_12 
REMARK    5  A    between atoms: N_12  and  N_13 
REMARK    6  A    between atoms: C_14  and  C_15 
ROOT
HETATM    1  C   UNL     1       5.485  26.070  52.927  1.00  0.00     0.255 C 
HETATM    2  N   UNL     1       5.543  25.480  51.668  1.00  0.00    -0.246 N 
HETATM    3  O   UNL     1       4.584  26.788  53.355  1.00  0.00    -0.270 OA
HETATM    4  H   UNL     1       6.322  24.843  51.500  1.00  0.00     0.192 HD
ENDROOT
BRANCH   2   5
HETATM    5  N   UNL     1       4.666  25.602  50.625  1.00  0.00    -0.184 NA
HETATM    6  C   UNL     1       4.765  26.598  49.807  1.00  0.00     0.152 C 
BRANCH   6   7
HETATM    7  C   UNL     1       3.827  26.703  48.704  1.00  0.00     0.011 A 
HETATM    8  C   UNL     1       2.841  27.724  48.507  1.00  0.00     0.004 A 
HETATM    9  C   UNL     1       2.178  27.442  47.312  1.00  0.00     0.043 A 
HETATM   10  C   UNL     1       2.453  28.871  49.235  1.00  0.00     0.014 A 
HETATM   11  C   UNL     1       1.150  28.247  46.806  1.00  0.00     0.030 A 
HETATM   12  N   UNL     1       2.732  26.290  46.804  1.00  0.00    -0.364 N 
HETATM   13  C   UNL     1       0.787  29.376  47.546  1.00  0.00     0.002 A 
HETATM   14  C   UNL     1       1.426  29.685  48.743  1.00  0.00     0.001 A 
HETATM   15  H   UNL     1       2.445  25.849  45.942  1.00  0.00     0.165 HD
HETATM   16  C   UNL     1       3.724  25.838  47.631  1.00  0.00     0.102 A 
ENDBRANCH   6   7
ENDBRANCH   2   5
BRANCH   1  17
HETATM   17  C   UNL     1       6.707  25.699  53.801  1.00  0.00     0.154 C 
BRANCH  17  18
HETATM   18  C   UNL     1       7.090  26.884  54.703  1.00  0.00     0.025 C 
HETATM   19  C   UNL     1       7.819  27.986  53.945  1.00  0.00     0.007 C 
ENDBRANCH  17  18
BRANCH  17  20
HETATM   20  N   UNL     1       6.347  24.520  54.645  1.00  0.00    -0.280 NA
HETATM   21  H   UNL     1       5.379  24.249  54.442  1.00  0.00     0.128 HD
BRANCH  20  22
HETATM   22  C   UNL     1       7.120  23.360  54.427  1.00  0.00     0.009 A 
HETATM   23  C   UNL     1       7.465  22.575  55.532  1.00  0.00     0.023 A 
HETATM   24  C   UNL     1       8.164  21.377  55.370  1.00  0.00     0.002 A 
HETATM   25  C   UNL     1       8.504  20.938  54.093  1.00  0.00     0.000 A 
HETATM   26  C   UNL     1       8.138  21.694  52.981  1.00  0.00     0.002 A 
HETATM   27  C   UNL     1       7.441  22.894  53.147  1.00  0.00     0.023 A 
ENDBRANCH  20  22
ENDBRANCH  17  20
ENDBRANCH   1  17
TORSDOF 6
ENDMDL
