MODEL 1
REMARK VINA RESULT:      -8.6      0.000      0.000
REMARK  6 active torsions:
REMARK  status: ('A' for Active; 'I' for Inactive)
REMARK    1  A    between atoms: C_6  and  C_7 
REMARK       I    between atoms: C_7  and  N_8 
REMARK    2  A    between atoms: N_8  and  C_9 
REMARK    3  A    between atoms: C_9  and  C_10 
REMARK    4  A    between atoms: C_10  and  O_11 
REMARK    5  A    between atoms: C_10  and  C_12 
REMARK    6  A    between atoms: C_15  and  O_16 
ROOT
HETATM    1  C   UNL     1       8.244  30.002  58.637  1.00  0.00     0.258 C 
HETATM    2  N   UNL     1       8.172  30.091  60.005  1.00  0.00    -0.350 N 
HETATM    3  O   UNL     1       9.122  30.577  57.997  1.00  0.00    -0.267 OA
HETATM    4  H   UNL     1       7.387  29.623  60.454  1.00  0.00     0.163 HD
ENDROOT
BRANCH   2   5
HETATM    5  C   UNL     1       9.167  30.772  60.831  1.00  0.00     0.114 C 
HETATM    6  C   UNL     1       9.443  29.935  62.081  1.00  0.00     0.035 C 
BRANCH   5   7
HETATM    7  C   UNL     1       8.821  32.256  61.183  1.00  0.00     0.173 C 
BRANCH   7   8
HETATM    8  O   UNL     1       8.565  33.048  60.018  1.00  0.00    -0.389 OA
HETATM    9  H   UNL     1       8.924  32.571  59.242  1.00  0.00     0.210 HD
ENDBRANCH   7   8
BRANCH   7  10
HETATM   10  C   UNL     1       7.691  32.449  62.176  1.00  0.00    -0.028 A 
HETATM   11  C   UNL     1       7.967  32.834  63.495  1.00  0.00     0.012 A 
HETATM   12  C   UNL     1       6.930  33.038  64.410  1.00  0.00     0.037 A 
HETATM   13  C   UNL     1       5.599  32.879  64.023  1.00  0.00     0.068 A 
HETATM   14  C   UNL     1       5.313  32.478  62.720  1.00  0.00     0.037 A 
HETATM   15  C   UNL     1       6.351  32.263  61.805  1.00  0.00     0.012 A 
BRANCH  13  16
HETATM   16  O   UNL     1       4.679  33.133  65.003  1.00  0.00    -0.356 OA
HETATM   17  C   UNL     1       5.122  33.948  66.083  1.00  0.00     0.210 C 
ENDBRANCH  13  16
ENDBRANCH   7  10
ENDBRANCH   5   7
ENDBRANCH   2   5
BRANCH   1  18
HETATM   18  C   UNL     1       7.217  29.193  58.009  1.00  0.00     0.105 A 
HETATM   19  C   UNL     1       5.922  29.598  57.587  1.00  0.00     0.071 A 
HETATM   20  C   UNL     1       5.305  30.945  57.709  1.00  0.00     0.073 C 
HETATM   21  N   UNL     1       5.233  28.600  57.021  1.00  0.00    -0.170 NA
HETATM   22  N   UNL     1       6.070  27.540  57.057  1.00  0.00    -0.225 N 
HETATM   23  C   UNL     1       7.288  27.853  57.667  1.00  0.00     0.168 A 
HETATM   24  C   UNL     1       5.835  26.260  56.565  1.00  0.00     0.122 A 
HETATM   25  N   UNL     1       8.286  26.920  57.818  1.00  0.00    -0.240 NA
HETATM   26  C   UNL     1       8.029  25.735  57.345  1.00  0.00     0.120 A 
HETATM   27  C   UNL     1       6.772  25.309  56.671  1.00  0.00     0.038 A 
ENDBRANCH   1  18
TORSDOF 6
ENDMDL
MODEL 2
REMARK VINA RESULT:      -8.5      3.242      8.966
REMARK  6 active torsions:
REMARK  status: ('A' for Active; 'I' for Inactive)
REMARK    1  A    between atoms: C_6  and  C_7 
REMARK       I    between atoms: C_7  and  N_8 
REMARK    2  A    between atoms: N_8  and  C_9 
REMARK    3  A    between atoms: C_9  and  C_10 
REMARK    4  A    between atoms: C_10  and  O_11 
REMARK    5  A    between atoms: C_10  and  C_12 
REMARK    6  A    between atoms: C_15  and  O_16 
ROOT
HETATM    1  C   UNL     1       7.240  29.119  56.978  1.00  0.00     0.258 C 
HETATM    2  N   UNL     1       6.706  27.958  57.477  1.00  0.00    -0.350 N 
HETATM    3  O   UNL     1       7.850  29.145  55.911  1.00  0.00    -0.267 OA
HETATM    4  H   UNL     1       6.258  28.014  58.391  1.00  0.00     0.163 HD
ENDROOT
BRANCH   2   5
HETATM    5  C   UNL     1       6.713  26.684  56.762  1.00  0.00     0.114 C 
HETATM    6  C   UNL     1       5.370  25.982  56.967  1.00  0.00     0.035 C 
BRANCH   5   7
HETATM    7  C   UNL     1       7.920  25.749  57.099  1.00  0.00     0.173 C 
BRANCH   7   8
HETATM    8  O   UNL     1       8.040  25.495  58.503  1.00  0.00    -0.389 OA
HETATM    9  H   UNL     1       7.287  24.930  58.774  1.00  0.00     0.210 HD
ENDBRANCH   7   8
BRANCH   7  10
HETATM   10  C   UNL     1       7.958  24.430  56.350  1.00  0.00    -0.028 A 
HETATM   11  C   UNL     1       8.291  23.245  57.021  1.00  0.00     0.012 A 
HETATM   12  C   UNL     1       8.305  22.022  56.345  1.00  0.00     0.037 A 
HETATM   13  C   UNL     1       7.970  21.954  54.993  1.00  0.00     0.068 A 
HETATM   14  C   UNL     1       7.656  23.127  54.309  1.00  0.00     0.037 A 
HETATM   15  C   UNL     1       7.651  24.355  54.983  1.00  0.00     0.012 A 
BRANCH  13  16
HETATM   16  O   UNL     1       7.996  20.697  54.455  1.00  0.00    -0.356 OA
HETATM   17  C   UNL     1       7.986  20.623  53.033  1.00  0.00     0.210 C 
ENDBRANCH  13  16
ENDBRANCH   7  10
ENDBRANCH   5   7
ENDBRANCH   2   5
BRANCH   1  18
HETATM   18  C   UNL     1       7.038  30.301  57.796  1.00  0.00     0.105 A 
HETATM   19  C   UNL     1       6.108  31.354  57.593  1.00  0.00     0.071 A 
HETATM   20  C   UNL     1       5.133  31.507  56.481  1.00  0.00     0.073 C 
HETATM   21  N   UNL     1       6.171  32.284  58.554  1.00  0.00    -0.170 NA
HETATM   22  N   UNL     1       7.130  31.845  59.397  1.00  0.00    -0.225 N 
HETATM   23  C   UNL     1       7.699  30.644  58.963  1.00  0.00     0.168 A 
HETATM   24  C   UNL     1       7.559  32.444  60.577  1.00  0.00     0.122 A 
HETATM   25  N   UNL     1       8.702  30.019  59.667  1.00  0.00    -0.240 NA
HETATM   26  C   UNL     1       9.075  30.610  60.764  1.00  0.00     0.120 A 
HETATM   27  C   UNL     1       8.525  31.879  61.313  1.00  0.00     0.038 A 
ENDBRANCH   1  18
TORSDOF 6
ENDMDL
MODEL 3
REMARK VINA RESULT:      -8.3      3.855      9.215
REMARK  6 active torsions:
REMARK  status: ('A' for Active; 'I' for Inactive)
REMARK    1  A    between atoms: C_6  and  C_7 
REMARK       I    between atoms: C_7  and  N_8 
REMARK    2  A    between atoms: N_8  and  C_9 
REMARK    3  A    between atoms: C_9  and  C_10 
REMARK    4  A    between atoms: C_10  and  O_11 
REMARK    5  A    between atoms: C_10  and  C_12 
REMARK    6  A    between atoms: C_15  and  O_16 
ROOT
HETATM    1  C   UNL     1       7.500  28.763  56.935  1.00  0.00     0.258 C 
HETATM    2  N   UNL     1       6.882  27.649  57.444  1.00  0.00    -0.350 N 
HETATM    3  O   UNL     1       8.153  28.722  55.893  1.00  0.00    -0.267 OA
HETATM    4  H   UNL     1       6.401  27.758  58.336  1.00  0.00     0.163 HD
ENDROOT
BRANCH   2   5
HETATM    5  C   UNL     1       6.845  26.355  56.766  1.00  0.00     0.114 C 
HETATM    6  C   UNL     1       5.530  25.650  57.095  1.00  0.00     0.035 C 
BRANCH   5   7
HETATM    7  C   UNL     1       8.084  25.439  57.034  1.00  0.00     0.173 C 
BRANCH   7   8
HETATM    8  O   UNL     1       8.266  25.159  58.427  1.00  0.00    -0.389 OA
HETATM    9  H   UNL     1       8.802  24.342  58.503  1.00  0.00     0.210 HD
ENDBRANCH   7   8
BRANCH   7  10
HETATM   10  C   UNL     1       8.119  24.138  56.256  1.00  0.00    -0.028 A 
HETATM   11  C   UNL     1       8.307  22.919  56.923  1.00  0.00     0.012 A 
HETATM   12  C   UNL     1       8.315  21.713  56.217  1.00  0.00     0.037 A 
HETATM   13  C   UNL     1       8.119  21.696  54.836  1.00  0.00     0.068 A 
HETATM   14  C   UNL     1       7.951  22.902  54.158  1.00  0.00     0.037 A 
HETATM   15  C   UNL     1       7.952  24.112  54.863  1.00  0.00     0.012 A 
BRANCH  13  16
HETATM   16  O   UNL     1       8.124  20.452  54.268  1.00  0.00    -0.356 OA
HETATM   17  C   UNL     1       8.326  20.407  52.860  1.00  0.00     0.210 C 
ENDBRANCH  13  16
ENDBRANCH   7  10
ENDBRANCH   5   7
ENDBRANCH   2   5
BRANCH   1  18
HETATM   18  C   UNL     1       7.333  29.979  57.709  1.00  0.00     0.105 A 
HETATM   19  C   UNL     1       8.343  30.777  58.310  1.00  0.00     0.071 A 
HETATM   20  C   UNL     1       9.811  30.543  58.307  1.00  0.00     0.073 C 
HETATM   21  N   UNL     1       7.842  31.849  58.935  1.00  0.00    -0.170 NA
HETATM   22  N   UNL     1       6.508  31.770  58.741  1.00  0.00    -0.225 N 
HETATM   23  C   UNL     1       6.151  30.633  58.010  1.00  0.00     0.168 A 
HETATM   24  C   UNL     1       5.535  32.667  59.172  1.00  0.00     0.122 A 
HETATM   25  N   UNL     1       4.841  30.349  57.702  1.00  0.00    -0.240 NA
HETATM   26  C   UNL     1       3.962  31.211  58.122  1.00  0.00     0.120 A 
HETATM   27  C   UNL     1       4.243  32.452  58.894  1.00  0.00     0.038 A 
ENDBRANCH   1  18
TORSDOF 6
ENDMDL
MODEL 4
REMARK VINA RESULT:      -8.2      4.440      7.628
REMARK  6 active torsions:
REMARK  status: ('A' for Active; 'I' for Inactive)
REMARK    1  A    between atoms: C_6  and  C_7 
REMARK       I    between atoms: C_7  and  N_8 
REMARK    2  A    between atoms: N_8  and  C_9 
REMARK    3  A    between atoms: C_9  and  C_10 
REMARK    4  A    between atoms: C_10  and  O_11 
REMARK    5  A    between atoms: C_10  and  C_12 
REMARK    6  A    between atoms: C_15  and  O_16 
ROOT
HETATM    1  C   UNL     1       7.415  25.122  53.842  1.00  0.00     0.258 C 
HETATM    2  N   UNL     1       6.161  25.585  54.153  1.00  0.00    -0.350 N 
HETATM    3  O   UNL     1       8.078  25.611  52.930  1.00  0.00    -0.267 OA
HETATM    4  H   UNL     1       5.660  25.094  54.892  1.00  0.00     0.163 HD
ENDROOT
BRANCH   2   5
HETATM    5  C   UNL     1       5.541  26.747  53.520  1.00  0.00     0.114 C 
HETATM    6  C   UNL     1       5.260  26.432  52.051  1.00  0.00     0.035 C 
BRANCH   5   7
HETATM    7  C   UNL     1       6.331  28.086  53.692  1.00  0.00     0.173 C 
BRANCH   7   8
HETATM    8  O   UNL     1       5.609  29.215  53.187  1.00  0.00    -0.389 OA
HETATM    9  H   UNL     1       6.201  29.706  52.579  1.00  0.00     0.210 HD
ENDBRANCH   7   8
BRANCH   7  10
HETATM   10  C   UNL     1       6.809  28.390  55.099  1.00  0.00    -0.028 A 
HETATM   11  C   UNL     1       8.168  28.629  55.347  1.00  0.00     0.012 A 
HETATM   12  C   UNL     1       8.615  28.933  56.636  1.00  0.00     0.037 A 
HETATM   13  C   UNL     1       7.714  29.024  57.697  1.00  0.00     0.068 A 
HETATM   14  C   UNL     1       6.363  28.769  57.467  1.00  0.00     0.037 A 
HETATM   15  C   UNL     1       5.916  28.454  56.178  1.00  0.00     0.012 A 
BRANCH  13  16
HETATM   16  O   UNL     1       8.272  29.354  58.901  1.00  0.00    -0.356 OA
HETATM   17  C   UNL     1       9.133  30.488  58.904  1.00  0.00     0.210 C 
ENDBRANCH  13  16
ENDBRANCH   7  10
ENDBRANCH   5   7
ENDBRANCH   2   5
BRANCH   1  18
HETATM   18  C   UNL     1       7.893  24.021  54.657  1.00  0.00     0.105 A 
HETATM   19  C   UNL     1       8.221  24.036  56.039  1.00  0.00     0.071 A 
HETATM   20  C   UNL     1       8.173  25.190  56.974  1.00  0.00     0.073 C 
HETATM   21  N   UNL     1       8.612  22.835  56.485  1.00  0.00    -0.170 NA
HETATM   22  N   UNL     1       8.533  22.025  55.407  1.00  0.00    -0.225 N 
HETATM   23  C   UNL     1       8.113  22.711  54.264  1.00  0.00     0.168 A 
HETATM   24  C   UNL     1       8.808  20.662  55.352  1.00  0.00     0.122 A 
HETATM   25  N   UNL     1       7.970  22.082  53.051  1.00  0.00    -0.240 NA
HETATM   26  C   UNL     1       8.236  20.808  53.039  1.00  0.00     0.120 A 
HETATM   27  C   UNL     1       8.677  19.990  54.201  1.00  0.00     0.038 A 
ENDBRANCH   1  18
TORSDOF 6
ENDMDL
MODEL 5
REMARK VINA RESULT:      -8.1      3.713      6.656
REMARK  6 active torsions:
REMARK  status: ('A' for Active; 'I' for Inactive)
REMARK    1  A    between atoms: C_6  and  C_7 
REMARK       I    between atoms: C_7  and  N_8 
REMARK    2  A    between atoms: N_8  and  C_9 
REMARK    3  A    between atoms: C_9  and  C_10 
REMARK    4  A    between atoms: C_10  and  O_11 
REMARK    5  A    between atoms: C_10  and  C_12 
REMARK    6  A    between atoms: C_15  and  O_16 
ROOT
HETATM    1  C   UNL     1       7.136  25.191  55.007  1.00  0.00     0.258 C 
HETATM    2  N   UNL     1       7.784  25.570  56.155  1.00  0.00    -0.350 N 
HETATM    3  O   UNL     1       6.228  25.863  54.524  1.00  0.00    -0.267 OA
HETATM    4  H   UNL     1       8.493  24.933  56.514  1.00  0.00     0.163 HD
ENDROOT
BRANCH   2   5
HETATM    5  C   UNL     1       7.541  26.834  56.849  1.00  0.00     0.114 C 
HETATM    6  C   UNL     1       6.068  26.915  57.248  1.00  0.00     0.035 C 
BRANCH   5   7
HETATM    7  C   UNL     1       8.010  28.108  56.073  1.00  0.00     0.173 C 
BRANCH   7   8
HETATM    8  O   UNL     1       6.982  28.647  55.235  1.00  0.00    -0.389 OA
HETATM    9  H   UNL     1       6.116  28.383  55.609  1.00  0.00     0.210 HD
ENDBRANCH   7   8
BRANCH   7  10
HETATM   10  C   UNL     1       8.590  29.219  56.927  1.00  0.00    -0.028 A 
HETATM   11  C   UNL     1       7.756  29.982  57.757  1.00  0.00     0.012 A 
HETATM   12  C   UNL     1       8.284  30.992  58.565  1.00  0.00     0.037 A 
HETATM   13  C   UNL     1       9.655  31.249  58.577  1.00  0.00     0.068 A 
HETATM   14  C   UNL     1      10.492  30.512  57.742  1.00  0.00     0.037 A 
HETATM   15  C   UNL     1       9.963  29.506  56.923  1.00  0.00     0.012 A 
BRANCH  13  16
HETATM   16  O   UNL     1      10.048  32.244  59.429  1.00  0.00    -0.356 OA
HETATM   17  C   UNL     1       9.654  32.097  60.789  1.00  0.00     0.210 C 
ENDBRANCH  13  16
ENDBRANCH   7  10
ENDBRANCH   5   7
ENDBRANCH   2   5
BRANCH   1  18
HETATM   18  C   UNL     1       7.595  23.949  54.413  1.00  0.00     0.105 A 
HETATM   19  C   UNL     1       7.845  23.677  53.041  1.00  0.00     0.071 A 
HETATM   20  C   UNL     1       7.674  24.595  51.885  1.00  0.00     0.073 C 
HETATM   21  N   UNL     1       8.283  22.428  52.839  1.00  0.00    -0.170 NA
HETATM   22  N   UNL     1       8.334  21.877  54.071  1.00  0.00    -0.225 N 
HETATM   23  C   UNL     1       7.907  22.766  55.062  1.00  0.00     0.168 A 
HETATM   24  C   UNL     1       8.755  20.594  54.407  1.00  0.00     0.122 A 
HETATM   25  N   UNL     1       7.871  22.411  56.389  1.00  0.00    -0.240 NA
HETATM   26  C   UNL     1       8.272  21.205  56.663  1.00  0.00     0.120 A 
HETATM   27  C   UNL     1       8.753  20.193  55.685  1.00  0.00     0.038 A 
ENDBRANCH   1  18
TORSDOF 6
ENDMDL
MODEL 6
REMARK VINA RESULT:      -8.1      3.861      9.350
REMARK  6 active torsions:
REMARK  status: ('A' for Active; 'I' for Inactive)
REMARK    1  A    between atoms: C_6  and  C_7 
REMARK       I    between atoms: C_7  and  N_8 
REMARK    2  A    between atoms: N_8  and  C_9 
REMARK    3  A    between atoms: C_9  and  C_10 
REMARK    4  A    between atoms: C_10  and  O_11 
REMARK    5  A    between atoms: C_10  and  C_12 
REMARK    6  A    between atoms: C_15  and  O_16 
ROOT
HETATM    1  C   UNL     1       7.630  28.697  57.253  1.00  0.00     0.258 C 
HETATM    2  N   UNL     1       7.112  28.525  55.994  1.00  0.00    -0.350 N 
HETATM    3  O   UNL     1       8.304  27.826  57.800  1.00  0.00    -0.267 OA
HETATM    4  H   UNL     1       6.526  29.277  55.633  1.00  0.00     0.163 HD
ENDROOT
BRANCH   2   5
HETATM    5  C   UNL     1       7.386  27.364  55.150  1.00  0.00     0.114 C 
HETATM    6  C   UNL     1       7.233  27.759  53.682  1.00  0.00     0.035 C 
BRANCH   5   7
HETATM    7  C   UNL     1       6.557  26.087  55.503  1.00  0.00     0.173 C 
BRANCH   7   8
HETATM    8  O   UNL     1       5.234  26.125  54.956  1.00  0.00    -0.389 OA
HETATM    9  H   UNL     1       4.715  25.402  55.367  1.00  0.00     0.210 HD
ENDBRANCH   7   8
BRANCH   7  10
HETATM   10  C   UNL     1       7.206  24.763  55.145  1.00  0.00    -0.028 A 
HETATM   11  C   UNL     1       6.803  24.066  53.998  1.00  0.00     0.012 A 
HETATM   12  C   UNL     1       7.412  22.858  53.647  1.00  0.00     0.037 A 
HETATM   13  C   UNL     1       8.445  22.331  54.422  1.00  0.00     0.068 A 
HETATM   14  C   UNL     1       8.841  23.005  55.576  1.00  0.00     0.037 A 
HETATM   15  C   UNL     1       8.225  24.210  55.934  1.00  0.00     0.012 A 
BRANCH  13  16
HETATM   16  O   UNL     1       8.975  21.159  53.958  1.00  0.00    -0.356 OA
HETATM   17  C   UNL     1       8.267  20.527  52.896  1.00  0.00     0.210 C 
ENDBRANCH  13  16
ENDBRANCH   7  10
ENDBRANCH   5   7
ENDBRANCH   2   5
BRANCH   1  18
HETATM   18  C   UNL     1       7.325  29.967  57.886  1.00  0.00     0.105 A 
HETATM   19  C   UNL     1       8.232  30.891  58.470  1.00  0.00     0.071 A 
HETATM   20  C   UNL     1       9.708  30.767  58.591  1.00  0.00     0.073 C 
HETATM   21  N   UNL     1       7.615  31.979  58.947  1.00  0.00    -0.170 NA
HETATM   22  N   UNL     1       6.307  31.783  58.672  1.00  0.00    -0.225 N 
HETATM   23  C   UNL     1       6.083  30.558  58.038  1.00  0.00     0.168 A 
HETATM   24  C   UNL     1       5.248  32.644  58.942  1.00  0.00     0.122 A 
HETATM   25  N   UNL     1       4.822  30.150  57.672  1.00  0.00    -0.240 NA
HETATM   26  C   UNL     1       3.858  30.982  57.941  1.00  0.00     0.120 A 
HETATM   27  C   UNL     1       3.997  32.309  58.600  1.00  0.00     0.038 A 
ENDBRANCH   1  18
TORSDOF 6
ENDMDL
MODEL 7
REMARK VINA RESULT:      -8.1      3.997      9.529
REMARK  6 active torsions:
REMARK  status: ('A' for Active; 'I' for Inactive)
REMARK    1  A    between atoms: C_6  and  C_7 
REMARK       I    between atoms: C_7  and  N_8 
REMARK    2  A    between atoms: N_8  and  C_9 
REMARK    3  A    between atoms: C_9  and  C_10 
REMARK    4  A    between atoms: C_10  and  O_11 
REMARK    5  A    between atoms: C_10  and  C_12 
REMARK    6  A    between atoms: C_15  and  O_16 
ROOT
HETATM    1  C   UNL     1       8.493  28.985  55.759  1.00  0.00     0.258 C 
HETATM    2  N   UNL     1       7.443  28.105  55.833  1.00  0.00    -0.350 N 
HETATM    3  O   UNL     1       9.205  29.060  54.759  1.00  0.00    -0.267 OA
HETATM    4  H   UNL     1       6.932  28.073  56.715  1.00  0.00     0.163 HD
ENDROOT
BRANCH   2   5
HETATM    5  C   UNL     1       7.005  27.262  54.723  1.00  0.00     0.114 C 
HETATM    6  C   UNL     1       6.092  28.072  53.803  1.00  0.00     0.035 C 
BRANCH   5   7
HETATM    7  C   UNL     1       6.355  25.905  55.147  1.00  0.00     0.173 C 
BRANCH   7   8
HETATM    8  O   UNL     1       4.971  25.825  54.786  1.00  0.00    -0.389 OA
HETATM    9  H   UNL     1       4.587  25.041  55.231  1.00  0.00     0.210 HD
ENDBRANCH   7   8
BRANCH   7  10
HETATM   10  C   UNL     1       7.068  24.656  54.664  1.00  0.00    -0.028 A 
HETATM   11  C   UNL     1       7.742  23.831  55.575  1.00  0.00     0.012 A 
HETATM   12  C   UNL     1       8.381  22.665  55.143  1.00  0.00     0.037 A 
HETATM   13  C   UNL     1       8.346  22.291  53.800  1.00  0.00     0.068 A 
HETATM   14  C   UNL     1       7.695  23.113  52.882  1.00  0.00     0.037 A 
HETATM   15  C   UNL     1       7.063  24.287  53.311  1.00  0.00     0.012 A 
BRANCH  13  16
HETATM   16  O   UNL     1       8.986  21.118  53.510  1.00  0.00    -0.356 OA
HETATM   17  C   UNL     1       8.783  20.049  54.429  1.00  0.00     0.210 C 
ENDBRANCH  13  16
ENDBRANCH   7  10
ENDBRANCH   5   7
ENDBRANCH   2   5
BRANCH   1  18
HETATM   18  C   UNL     1       8.703  29.808  56.935  1.00  0.00     0.105 A 
HETATM   19  C   UNL     1       9.933  30.133  57.566  1.00  0.00     0.071 A 
HETATM   20  C   UNL     1      11.299  29.687  57.182  1.00  0.00     0.073 C 
HETATM   21  N   UNL     1       9.769  30.939  58.622  1.00  0.00    -0.170 NA
HETATM   22  N   UNL     1       8.438  31.157  58.686  1.00  0.00    -0.225 N 
HETATM   23  C   UNL     1       7.745  30.472  57.683  1.00  0.00     0.168 A 
HETATM   24  C   UNL     1       7.754  31.955  59.597  1.00  0.00     0.122 A 
HETATM   25  N   UNL     1       6.378  30.545  57.565  1.00  0.00    -0.240 NA
HETATM   26  C   UNL     1       5.775  31.302  58.435  1.00  0.00     0.120 A 
HETATM   27  C   UNL     1       6.422  32.077  59.528  1.00  0.00     0.038 A 
ENDBRANCH   1  18
TORSDOF 6
ENDMDL
MODEL 8
REMARK VINA RESULT:      -8.0      5.027      9.446
REMARK  6 active torsions:
REMARK  status: ('A' for Active; 'I' for Inactive)
REMARK    1  A    between atoms: C_6  and  C_7 
REMARK       I    between atoms: C_7  and  N_8 
REMARK    2  A    between atoms: N_8  and  C_9 
REMARK    3  A    between atoms: C_9  and  C_10 
REMARK    4  A    between atoms: C_10  and  O_11 
REMARK    5  A    between atoms: C_10  and  C_12 
REMARK    6  A    between atoms: C_15  and  O_16 
ROOT
HETATM    1  C   UNL     1       7.085  28.201  54.736  1.00  0.00     0.258 C 
HETATM    2  N   UNL     1       5.874  27.561  54.653  1.00  0.00    -0.350 N 
HETATM    3  O   UNL     1       7.909  28.148  53.825  1.00  0.00    -0.267 OA
HETATM    4  H   UNL     1       5.269  27.617  55.471  1.00  0.00     0.163 HD
ENDROOT
BRANCH   2   5
HETATM    5  C   UNL     1       5.405  26.855  53.462  1.00  0.00     0.114 C 
HETATM    6  C   UNL     1       4.207  27.600  52.873  1.00  0.00     0.035 C 
BRANCH   5   7
HETATM    7  C   UNL     1       5.103  25.336  53.678  1.00  0.00     0.173 C 
BRANCH   7   8
HETATM    8  O   UNL     1       4.349  24.770  52.599  1.00  0.00    -0.389 OA
HETATM    9  H   UNL     1       4.982  24.450  51.923  1.00  0.00     0.210 HD
ENDBRANCH   7   8
BRANCH   7  10
HETATM   10  C   UNL     1       6.310  24.460  53.955  1.00  0.00    -0.028 A 
HETATM   11  C   UNL     1       6.716  24.213  55.274  1.00  0.00     0.012 A 
HETATM   12  C   UNL     1       7.812  23.387  55.540  1.00  0.00     0.037 A 
HETATM   13  C   UNL     1       8.512  22.778  54.499  1.00  0.00     0.068 A 
HETATM   14  C   UNL     1       8.131  23.032  53.182  1.00  0.00     0.037 A 
HETATM   15  C   UNL     1       7.040  23.867  52.914  1.00  0.00     0.012 A 
BRANCH  13  16
HETATM   16  O   UNL     1       9.546  21.975  54.892  1.00  0.00    -0.356 OA
HETATM   17  C   UNL     1       9.194  20.826  55.655  1.00  0.00     0.210 C 
ENDBRANCH  13  16
ENDBRANCH   7  10
ENDBRANCH   5   7
ENDBRANCH   2   5
BRANCH   1  18
HETATM   18  C   UNL     1       7.320  28.935  55.966  1.00  0.00     0.105 A 
HETATM   19  C   UNL     1       6.380  29.270  56.976  1.00  0.00     0.071 A 
HETATM   20  C   UNL     1       4.925  28.967  57.003  1.00  0.00     0.073 C 
HETATM   21  N   UNL     1       6.939  29.935  57.994  1.00  0.00    -0.170 NA
HETATM   22  N   UNL     1       8.246  30.032  57.667  1.00  0.00    -0.225 N 
HETATM   23  C   UNL     1       8.521  29.448  56.427  1.00  0.00     0.168 A 
HETATM   24  C   UNL     1       9.264  30.616  58.414  1.00  0.00     0.122 A 
HETATM   25  N   UNL     1       9.788  29.438  55.893  1.00  0.00    -0.240 NA
HETATM   26  C   UNL     1      10.712  29.993  56.621  1.00  0.00     0.120 A 
HETATM   27  C   UNL     1      10.522  30.628  57.953  1.00  0.00     0.038 A 
ENDBRANCH   1  18
TORSDOF 6
ENDMDL
MODEL 9
REMARK VINA RESULT:      -7.9      1.839      3.002
REMARK  6 active torsions:
REMARK  status: ('A' for Active; 'I' for Inactive)
REMARK    1  A    between atoms: C_6  and  C_7 
REMARK       I    between atoms: C_7  and  N_8 
REMARK    2  A    between atoms: N_8  and  C_9 
REMARK    3  A    between atoms: C_9  and  C_10 
REMARK    4  A    between atoms: C_10  and  O_11 
REMARK    5  A    between atoms: C_10  and  C_12 
REMARK    6  A    between atoms: C_15  and  O_16 
ROOT
HETATM    1  C   UNL     1       8.538  31.371  59.156  1.00  0.00     0.258 C 
HETATM    2  N   UNL     1       7.699  31.073  60.200  1.00  0.00    -0.350 N 
HETATM    3  O   UNL     1       9.299  32.336  59.193  1.00  0.00    -0.267 OA
HETATM    4  H   UNL     1       7.067  30.284  60.070  1.00  0.00     0.163 HD
ENDROOT
BRANCH   2   5
HETATM    5  C   UNL     1       7.696  31.788  61.474  1.00  0.00     0.114 C 
HETATM    6  C   UNL     1       8.196  30.857  62.577  1.00  0.00     0.035 C 
BRANCH   5   7
HETATM    7  C   UNL     1       6.333  32.459  61.846  1.00  0.00     0.173 C 
BRANCH   7   8
HETATM    8  O   UNL     1       5.216  31.594  61.611  1.00  0.00    -0.389 OA
HETATM    9  H   UNL     1       5.560  30.736  61.287  1.00  0.00     0.210 HD
ENDBRANCH   7   8
BRANCH   7  10
HETATM   10  C   UNL     1       6.241  33.021  63.252  1.00  0.00    -0.028 A 
HETATM   11  C   UNL     1       5.006  33.071  63.913  1.00  0.00     0.012 A 
HETATM   12  C   UNL     1       4.915  33.564  65.218  1.00  0.00     0.037 A 
HETATM   13  C   UNL     1       6.054  34.001  65.894  1.00  0.00     0.068 A 
HETATM   14  C   UNL     1       7.285  33.975  65.240  1.00  0.00     0.037 A 
HETATM   15  C   UNL     1       7.376  33.490  63.930  1.00  0.00     0.012 A 
BRANCH  13  16
HETATM   16  O   UNL     1       5.836  34.436  67.172  1.00  0.00    -0.356 OA
HETATM   17  C   UNL     1       6.926  34.298  68.076  1.00  0.00     0.210 C 
ENDBRANCH  13  16
ENDBRANCH   7  10
ENDBRANCH   5   7
ENDBRANCH   2   5
BRANCH   1  18
HETATM   18  C   UNL     1       8.460  30.476  58.017  1.00  0.00     0.105 A 
HETATM   19  C   UNL     1       9.531  29.933  57.258  1.00  0.00     0.071 A 
HETATM   20  C   UNL     1      10.987  30.170  57.439  1.00  0.00     0.073 C 
HETATM   21  N   UNL     1       9.106  29.120  56.283  1.00  0.00    -0.170 NA
HETATM   22  N   UNL     1       7.761  29.115  56.400  1.00  0.00    -0.225 N 
HETATM   23  C   UNL     1       7.321  29.943  57.437  1.00  0.00     0.168 A 
HETATM   24  C   UNL     1       6.848  28.398  55.633  1.00  0.00     0.122 A 
HETATM   25  N   UNL     1       5.987  30.094  57.730  1.00  0.00    -0.240 NA
HETATM   26  C   UNL     1       5.164  29.408  56.991  1.00  0.00     0.120 A 
HETATM   27  C   UNL     1       5.534  28.494  55.876  1.00  0.00     0.038 A 
ENDBRANCH   1  18
TORSDOF 6
ENDMDL
MODEL 10
REMARK VINA RESULT:      -7.8      2.135      3.047
REMARK  6 active torsions:
REMARK  status: ('A' for Active; 'I' for Inactive)
REMARK    1  A    between atoms: C_6  and  C_7 
REMARK       I    between atoms: C_7  and  N_8 
REMARK    2  A    between atoms: N_8  and  C_9 
REMARK    3  A    between atoms: C_9  and  C_10 
REMARK    4  A    between atoms: C_10  and  O_11 
REMARK    5  A    between atoms: C_10  and  C_12 
REMARK    6  A    between atoms: C_15  and  O_16 
ROOT
HETATM    1  C   UNL     1       7.754  30.467  58.981  1.00  0.00     0.258 C 
HETATM    2  N   UNL     1       7.520  31.714  59.504  1.00  0.00    -0.350 N 
HETATM    3  O   UNL     1       8.500  29.662  59.535  1.00  0.00    -0.267 OA
HETATM    4  H   UNL     1       6.926  32.337  58.958  1.00  0.00     0.163 HD
ENDROOT
BRANCH   2   5
HETATM    5  C   UNL     1       8.034  32.166  60.795  1.00  0.00     0.114 C 
HETATM    6  C   UNL     1       9.562  32.166  60.758  1.00  0.00     0.035 C 
BRANCH   5   7
HETATM    7  C   UNL     1       7.477  31.388  62.032  1.00  0.00     0.173 C 
BRANCH   7   8
HETATM    8  O   UNL     1       8.429  30.463  62.570  1.00  0.00    -0.389 OA
HETATM    9  H   UNL     1       8.853  30.883  63.348  1.00  0.00     0.210 HD
ENDBRANCH   7   8
BRANCH   7  10
HETATM   10  C   UNL     1       6.928  32.248  63.155  1.00  0.00    -0.028 A 
HETATM   11  C   UNL     1       7.801  32.938  64.008  1.00  0.00     0.012 A 
HETATM   12  C   UNL     1       7.304  33.751  65.030  1.00  0.00     0.037 A 
HETATM   13  C   UNL     1       5.929  33.906  65.210  1.00  0.00     0.068 A 
HETATM   14  C   UNL     1       5.051  33.210  64.381  1.00  0.00     0.037 A 
HETATM   15  C   UNL     1       5.548  32.387  63.363  1.00  0.00     0.012 A 
BRANCH  13  16
HETATM   16  O   UNL     1       5.572  34.748  66.227  1.00  0.00    -0.356 OA
HETATM   17  C   UNL     1       4.824  34.167  67.289  1.00  0.00     0.210 C 
ENDBRANCH  13  16
ENDBRANCH   7  10
ENDBRANCH   5   7
ENDBRANCH   2   5
BRANCH   1  18
HETATM   18  C   UNL     1       7.067  30.173  57.737  1.00  0.00     0.105 A 
HETATM   19  C   UNL     1       7.592  29.544  56.577  1.00  0.00     0.071 A 
HETATM   20  C   UNL     1       8.979  29.057  56.355  1.00  0.00     0.073 C 
HETATM   21  N   UNL     1       6.676  29.405  55.611  1.00  0.00    -0.170 NA
HETATM   22  N   UNL     1       5.545  29.930  56.131  1.00  0.00    -0.225 N 
HETATM   23  C   UNL     1       5.742  30.426  57.423  1.00  0.00     0.168 A 
HETATM   24  C   UNL     1       4.292  30.003  55.530  1.00  0.00     0.122 A 
HETATM   25  N   UNL     1       4.725  31.011  58.139  1.00  0.00    -0.240 NA
HETATM   26  C   UNL     1       3.570  31.061  57.544  1.00  0.00     0.120 A 
HETATM   27  C   UNL     1       3.258  30.552  56.180  1.00  0.00     0.038 A 
ENDBRANCH   1  18
TORSDOF 6
ENDMDL
