MODEL 1
REMARK VINA RESULT:     -10.1      0.000      0.000
REMARK  6 active torsions:
REMARK  status: ('A' for Active; 'I' for Inactive)
REMARK    1  A    between atoms: C_2  and  C_3 
REMARK    2  A    between atoms: C_4  and  O_5 
REMARK    3  A    between atoms: O_5  and  C_6 
REMARK    4  A    between atoms: C_6  and  C_7 
REMARK       I    between atoms: C_7  and  N_8 
REMARK    5  A    between atoms: N_8  and  C_9 
REMARK    6  A    between atoms: C_16  and  C_17 
REMARK       I    between atoms: C_17  and  N_18 
ROOT
HETATM    1  C   UNL     1       7.465  25.903  57.442  1.00  0.00     0.246 C 
HETATM    2  N   UNL     1       7.234  27.221  57.074  1.00  0.00    -0.325 N 
HETATM    3  O   UNL     1       8.355  25.493  58.180  1.00  0.00    -0.271 OA
HETATM    4  H   UNL     1       6.402  27.388  56.521  1.00  0.00     0.169 HD
ENDROOT
BRANCH   2   5
HETATM    5  C   UNL     1       7.992  28.359  57.416  1.00  0.00     0.035 A 
HETATM    6  C   UNL     1       7.577  29.321  58.347  1.00  0.00     0.046 A 
HETATM    7  C   UNL     1       8.424  30.415  58.640  1.00  0.00     0.030 A 
HETATM    8  C   UNL     1       9.638  30.521  57.972  1.00  0.00     0.063 A 
HETATM    9  C   UNL     1       8.392  31.537  59.524  1.00  0.00     0.156 A 
HETATM   10  N   UNL     1      10.215  31.665  58.445  1.00  0.00    -0.277 N 
HETATM   11  C   UNL     1      10.078  29.585  57.034  1.00  0.00     0.034 A 
HETATM   12  H   UNL     1      11.107  32.062  58.170  1.00  0.00     0.189 HD
HETATM   13  N   UNL     1       9.501  32.300  59.388  1.00  0.00    -0.168 NA
HETATM   14  C   UNL     1       9.236  28.496  56.783  1.00  0.00     0.032 A 
BRANCH   9  15
HETATM   15  C   UNL     1       7.349  31.886  60.498  1.00  0.00     0.270 C 
HETATM   16  N   UNL     1       7.337  31.087  61.610  1.00  0.00    -0.365 N 
HETATM   17  H   UNL     1       8.005  30.328  61.667  1.00  0.00     0.159 HD
HETATM   18  H   UNL     1       6.628  31.223  62.313  1.00  0.00     0.159 HD
HETATM   19  O   UNL     1       6.534  32.791  60.359  1.00  0.00    -0.266 OA
ENDBRANCH   9  15
ENDBRANCH   2   5
BRANCH   1  20
HETATM   20  C   UNL     1       6.410  24.953  56.866  1.00  0.00     0.278 C 
BRANCH  20  21
HETATM   21  O   UNL     1       6.969  23.993  55.984  1.00  0.00    -0.342 OA
BRANCH  21  22
HETATM   22  C   UNL     1       7.065  24.276  54.646  1.00  0.00     0.076 A 
HETATM   23  C   UNL     1       7.768  23.339  53.843  1.00  0.00    -0.017 A 
HETATM   24  C   UNL     1       7.978  23.680  52.487  1.00  0.00     0.011 A 
HETATM   25  C   UNL     1       7.480  24.861  51.934  1.00  0.00     0.001 A 
HETATM   26  C   UNL     1       6.747  25.733  52.720  1.00  0.00     0.003 A 
HETATM   27  C   UNL     1       6.538  25.441  54.067  1.00  0.00     0.037 A 
BRANCH  23  28
HETATM   28  C   UNL     1       8.308  21.995  54.398  1.00  0.00    -0.021 C 
HETATM   29  C   UNL     1       9.668  22.170  55.116  1.00  0.00     0.019 C 
HETATM   30  C   UNL     1       8.455  20.989  53.239  1.00  0.00     0.019 C 
HETATM   31  C   UNL     1       7.370  21.344  55.450  1.00  0.00     0.019 C 
ENDBRANCH  23  28
ENDBRANCH  21  22
ENDBRANCH  20  21
ENDBRANCH   1  20
TORSDOF 6
ENDMDL
MODEL 2
REMARK VINA RESULT:     -10.0      0.657      2.364
REMARK  6 active torsions:
REMARK  status: ('A' for Active; 'I' for Inactive)
REMARK    1  A    between atoms: C_2  and  C_3 
REMARK    2  A    between atoms: C_4  and  O_5 
REMARK    3  A    between atoms: O_5  and  C_6 
REMARK    4  A    between atoms: C_6  and  C_7 
REMARK       I    between atoms: C_7  and  N_8 
REMARK    5  A    between atoms: N_8  and  C_9 
REMARK    6  A    between atoms: C_16  and  C_17 
REMARK       I    between atoms: C_17  and  N_18 
ROOT
HETATM    1  C   UNL     1       7.431  25.866  57.606  1.00  0.00     0.246 C 
HETATM    2  N   UNL     1       7.170  27.182  57.248  1.00  0.00    -0.325 N 
HETATM    3  O   UNL     1       8.384  25.461  58.263  1.00  0.00    -0.271 OA
HETATM    4  H   UNL     1       6.291  27.346  56.772  1.00  0.00     0.169 HD
ENDROOT
BRANCH   2   5
HETATM    5  C   UNL     1       7.957  28.321  57.510  1.00  0.00     0.035 A 
HETATM    6  C   UNL     1       7.621  29.300  58.454  1.00  0.00     0.046 A 
HETATM    7  C   UNL     1       8.493  30.394  58.661  1.00  0.00     0.030 A 
HETATM    8  C   UNL     1       9.651  30.483  57.898  1.00  0.00     0.063 A 
HETATM    9  C   UNL     1       8.536  31.531  59.526  1.00  0.00     0.156 A 
HETATM   10  N   UNL     1      10.268  31.631  58.304  1.00  0.00    -0.277 N 
HETATM   11  C   UNL     1      10.011  29.529  56.944  1.00  0.00     0.034 A 
HETATM   12  H   UNL     1      11.138  32.019  57.953  1.00  0.00     0.189 HD
HETATM   13  N   UNL     1       9.634  32.286  59.290  1.00  0.00    -0.168 NA
HETATM   14  C   UNL     1       9.147  28.441  56.778  1.00  0.00     0.032 A 
BRANCH   9  15
HETATM   15  C   UNL     1       7.575  31.901  60.574  1.00  0.00     0.270 C 
HETATM   16  N   UNL     1       7.497  31.000  61.601  1.00  0.00    -0.365 N 
HETATM   17  H   UNL     1       8.068  30.164  61.555  1.00  0.00     0.159 HD
HETATM   18  H   UNL     1       6.833  31.147  62.344  1.00  0.00     0.159 HD
HETATM   19  O   UNL     1       6.875  32.908  60.559  1.00  0.00    -0.266 OA
ENDBRANCH   9  15
ENDBRANCH   2   5
BRANCH   1  20
HETATM   20  C   UNL     1       6.327  24.914  57.136  1.00  0.00     0.278 C 
BRANCH  20  21
HETATM   21  O   UNL     1       6.341  24.718  55.731  1.00  0.00    -0.342 OA
BRANCH  21  22
HETATM   22  C   UNL     1       7.046  23.669  55.199  1.00  0.00     0.076 A 
HETATM   23  C   UNL     1       7.307  23.716  53.804  1.00  0.00    -0.017 A 
HETATM   24  C   UNL     1       7.924  22.583  53.225  1.00  0.00     0.011 A 
HETATM   25  C   UNL     1       8.309  21.478  53.986  1.00  0.00     0.001 A 
HETATM   26  C   UNL     1       8.098  21.477  55.353  1.00  0.00     0.003 A 
HETATM   27  C   UNL     1       7.473  22.567  55.957  1.00  0.00     0.037 A 
BRANCH  23  28
HETATM   28  C   UNL     1       6.935  24.934  52.920  1.00  0.00    -0.021 C 
HETATM   29  C   UNL     1       7.363  26.273  53.569  1.00  0.00     0.019 C 
HETATM   30  C   UNL     1       5.414  24.937  52.673  1.00  0.00     0.019 C 
HETATM   31  C   UNL     1       7.623  24.915  51.528  1.00  0.00     0.019 C 
ENDBRANCH  23  28
ENDBRANCH  21  22
ENDBRANCH  20  21
ENDBRANCH   1  20
TORSDOF 6
ENDMDL
MODEL 3
REMARK VINA RESULT:      -9.6      1.656      3.100
REMARK  6 active torsions:
REMARK  status: ('A' for Active; 'I' for Inactive)
REMARK    1  A    between atoms: C_2  and  C_3 
REMARK    2  A    between atoms: C_4  and  O_5 
REMARK    3  A    between atoms: O_5  and  C_6 
REMARK    4  A    between atoms: C_6  and  C_7 
REMARK       I    between atoms: C_7  and  N_8 
REMARK    5  A    between atoms: N_8  and  C_9 
REMARK    6  A    between atoms: C_16  and  C_17 
REMARK       I    between atoms: C_17  and  N_18 
ROOT
HETATM    1  C   UNL     1       8.153  25.672  57.602  1.00  0.00     0.246 C 
HETATM    2  N   UNL     1       7.885  26.791  56.826  1.00  0.00    -0.325 N 
HETATM    3  O   UNL     1       7.977  25.559  58.811  1.00  0.00    -0.271 OA
HETATM    4  H   UNL     1       8.015  26.679  55.827  1.00  0.00     0.169 HD
ENDROOT
BRANCH   2   5
HETATM    5  C   UNL     1       7.410  28.046  57.255  1.00  0.00     0.035 A 
HETATM    6  C   UNL     1       8.213  29.013  57.874  1.00  0.00     0.046 A 
HETATM    7  C   UNL     1       7.645  30.254  58.245  1.00  0.00     0.030 A 
HETATM    8  C   UNL     1       6.292  30.470  58.009  1.00  0.00     0.063 A 
HETATM    9  C   UNL     1       8.113  31.470  58.831  1.00  0.00     0.156 A 
HETATM   10  N   UNL     1       6.036  31.726  58.479  1.00  0.00    -0.277 N 
HETATM   11  C   UNL     1       5.463  29.526  57.401  1.00  0.00     0.034 A 
HETATM   12  H   UNL     1       5.146  32.212  58.481  1.00  0.00     0.189 HD
HETATM   13  N   UNL     1       7.109  32.366  58.973  1.00  0.00    -0.168 NA
HETATM   14  C   UNL     1       6.055  28.317  57.017  1.00  0.00     0.032 A 
BRANCH   9  15
HETATM   15  C   UNL     1       9.486  31.802  59.238  1.00  0.00     0.270 C 
HETATM   16  N   UNL     1       9.646  31.942  60.590  1.00  0.00    -0.365 N 
HETATM   17  H   UNL     1       8.835  31.834  61.187  1.00  0.00     0.159 HD
HETATM   18  H   UNL     1      10.543  32.212  60.960  1.00  0.00     0.159 HD
HETATM   19  O   UNL     1      10.426  31.964  58.468  1.00  0.00    -0.266 OA
ENDBRANCH   9  15
ENDBRANCH   2   5
BRANCH   1  20
HETATM   20  C   UNL     1       8.658  24.496  56.760  1.00  0.00     0.278 C 
BRANCH  20  21
HETATM   21  O   UNL     1       7.600  23.751  56.179  1.00  0.00    -0.342 OA
BRANCH  21  22
HETATM   22  C   UNL     1       7.870  22.865  55.168  1.00  0.00     0.076 A 
HETATM   23  C   UNL     1       7.388  23.204  53.876  1.00  0.00    -0.017 A 
HETATM   24  C   UNL     1       7.553  22.242  52.853  1.00  0.00     0.011 A 
HETATM   25  C   UNL     1       8.202  21.027  53.076  1.00  0.00     0.001 A 
HETATM   26  C   UNL     1       8.717  20.741  54.329  1.00  0.00     0.003 A 
HETATM   27  C   UNL     1       8.554  21.656  55.368  1.00  0.00     0.037 A 
BRANCH  23  28
HETATM   28  C   UNL     1       6.693  24.555  53.565  1.00  0.00    -0.021 C 
HETATM   29  C   UNL     1       5.849  24.488  52.270  1.00  0.00     0.019 C 
HETATM   30  C   UNL     1       7.762  25.658  53.435  1.00  0.00     0.019 C 
HETATM   31  C   UNL     1       5.706  25.007  54.675  1.00  0.00     0.019 C 
ENDBRANCH  23  28
ENDBRANCH  21  22
ENDBRANCH  20  21
ENDBRANCH   1  20
TORSDOF 6
ENDMDL
MODEL 4
REMARK VINA RESULT:      -8.9      3.180      4.276
REMARK  6 active torsions:
REMARK  status: ('A' for Active; 'I' for Inactive)
REMARK    1  A    between atoms: C_2  and  C_3 
REMARK    2  A    between atoms: C_4  and  O_5 
REMARK    3  A    between atoms: O_5  and  C_6 
REMARK    4  A    between atoms: C_6  and  C_7 
REMARK       I    between atoms: C_7  and  N_8 
REMARK    5  A    between atoms: N_8  and  C_9 
REMARK    6  A    between atoms: C_16  and  C_17 
REMARK       I    between atoms: C_17  and  N_18 
ROOT
HETATM    1  C   UNL     1       5.861  25.722  56.978  1.00  0.00     0.246 C 
HETATM    2  N   UNL     1       6.196  26.979  56.493  1.00  0.00    -0.325 N 
HETATM    3  O   UNL     1       4.742  25.332  57.295  1.00  0.00    -0.271 OA
HETATM    4  H   UNL     1       7.159  27.101  56.204  1.00  0.00     0.169 HD
ENDROOT
BRANCH   2   5
HETATM    5  C   UNL     1       5.347  28.089  56.312  1.00  0.00     0.035 A 
HETATM    6  C   UNL     1       4.945  28.939  57.350  1.00  0.00     0.046 A 
HETATM    7  C   UNL     1       4.109  30.043  57.060  1.00  0.00     0.030 A 
HETATM    8  C   UNL     1       3.686  30.238  55.751  1.00  0.00     0.063 A 
HETATM    9  C   UNL     1       3.539  31.128  57.795  1.00  0.00     0.156 A 
HETATM   10  N   UNL     1       2.895  31.351  55.786  1.00  0.00    -0.277 N 
HETATM   11  C   UNL     1       4.062  29.405  54.695  1.00  0.00     0.034 A 
HETATM   12  H   UNL     1       2.405  31.781  55.008  1.00  0.00     0.189 HD
HETATM   13  N   UNL     1       2.790  31.922  56.996  1.00  0.00    -0.168 NA
HETATM   14  C   UNL     1       4.912  28.337  55.002  1.00  0.00     0.032 A 
BRANCH   9  15
HETATM   15  C   UNL     1       3.705  31.433  59.223  1.00  0.00     0.270 C 
HETATM   16  N   UNL     1       2.896  30.696  60.046  1.00  0.00    -0.365 N 
HETATM   17  H   UNL     1       2.251  30.038  59.627  1.00  0.00     0.159 HD
HETATM   18  H   UNL     1       2.909  30.866  61.039  1.00  0.00     0.159 HD
HETATM   19  O   UNL     1       4.474  32.273  59.676  1.00  0.00    -0.266 OA
ENDBRANCH   9  15
ENDBRANCH   2   5
BRANCH   1  20
HETATM   20  C   UNL     1       7.072  24.784  57.025  1.00  0.00     0.278 C 
BRANCH  20  21
HETATM   21  O   UNL     1       7.893  24.900  55.874  1.00  0.00    -0.342 OA
BRANCH  21  22
HETATM   22  C   UNL     1       8.196  23.781  55.141  1.00  0.00     0.076 A 
HETATM   23  C   UNL     1       7.756  23.763  53.792  1.00  0.00    -0.017 A 
HETATM   24  C   UNL     1       7.956  22.567  53.064  1.00  0.00     0.011 A 
HETATM   25  C   UNL     1       8.598  21.460  53.620  1.00  0.00     0.001 A 
HETATM   26  C   UNL     1       9.072  21.519  54.919  1.00  0.00     0.003 A 
HETATM   27  C   UNL     1       8.874  22.674  55.674  1.00  0.00     0.037 A 
BRANCH  23  28
HETATM   28  C   UNL     1       7.071  24.978  53.114  1.00  0.00    -0.021 C 
HETATM   29  C   UNL     1       7.710  26.319  53.549  1.00  0.00     0.019 C 
HETATM   30  C   UNL     1       5.570  24.977  53.465  1.00  0.00     0.019 C 
HETATM   31  C   UNL     1       7.177  24.957  51.565  1.00  0.00     0.019 C 
ENDBRANCH  23  28
ENDBRANCH  21  22
ENDBRANCH  20  21
ENDBRANCH   1  20
TORSDOF 6
ENDMDL
MODEL 5
REMARK VINA RESULT:      -8.9      5.325      8.501
REMARK  6 active torsions:
REMARK  status: ('A' for Active; 'I' for Inactive)
REMARK    1  A    between atoms: C_2  and  C_3 
REMARK    2  A    between atoms: C_4  and  O_5 
REMARK    3  A    between atoms: O_5  and  C_6 
REMARK    4  A    between atoms: C_6  and  C_7 
REMARK       I    between atoms: C_7  and  N_8 
REMARK    5  A    between atoms: N_8  and  C_9 
REMARK    6  A    between atoms: C_16  and  C_17 
REMARK       I    between atoms: C_17  and  N_18 
ROOT
HETATM    1  C   UNL     1       4.787  27.894  53.634  1.00  0.00     0.246 C 
HETATM    2  N   UNL     1       5.576  27.952  52.493  1.00  0.00    -0.325 N 
HETATM    3  O   UNL     1       3.614  28.237  53.732  1.00  0.00    -0.271 OA
HETATM    4  H   UNL     1       6.502  27.549  52.572  1.00  0.00     0.169 HD
ENDROOT
BRANCH   2   5
HETATM    5  C   UNL     1       5.226  28.462  51.226  1.00  0.00     0.035 A 
HETATM    6  C   UNL     1       4.530  27.728  50.257  1.00  0.00     0.046 A 
HETATM    7  C   UNL     1       4.204  28.340  49.024  1.00  0.00     0.030 A 
HETATM    8  C   UNL     1       4.610  29.650  48.797  1.00  0.00     0.063 A 
HETATM    9  C   UNL     1       3.492  27.968  47.842  1.00  0.00     0.156 A 
HETATM   10  N   UNL     1       4.172  29.954  47.540  1.00  0.00    -0.277 N 
HETATM   11  C   UNL     1       5.311  30.406  49.739  1.00  0.00     0.034 A 
HETATM   12  H   UNL     1       4.300  30.828  47.039  1.00  0.00     0.189 HD
HETATM   13  N   UNL     1       3.486  28.972  46.936  1.00  0.00    -0.168 NA
HETATM   14  C   UNL     1       5.597  29.788  50.961  1.00  0.00     0.032 A 
BRANCH   9  15
HETATM   15  C   UNL     1       2.810  26.695  47.567  1.00  0.00     0.270 C 
HETATM   16  N   UNL     1       1.645  26.527  48.267  1.00  0.00    -0.365 N 
HETATM   17  H   UNL     1       1.362  27.250  48.916  1.00  0.00     0.159 HD
HETATM   18  H   UNL     1       1.130  25.666  48.177  1.00  0.00     0.159 HD
HETATM   19  O   UNL     1       3.220  25.831  46.801  1.00  0.00    -0.266 OA
ENDBRANCH   9  15
ENDBRANCH   2   5
BRANCH   1  20
HETATM   20  C   UNL     1       5.533  27.266  54.816  1.00  0.00     0.278 C 
BRANCH  20  21
HETATM   21  O   UNL     1       6.796  26.740  54.442  1.00  0.00    -0.342 OA
BRANCH  21  22
HETATM   22  C   UNL     1       7.418  25.827  55.255  1.00  0.00     0.076 A 
HETATM   23  C   UNL     1       7.647  24.537  54.708  1.00  0.00    -0.017 A 
HETATM   24  C   UNL     1       8.176  23.553  55.576  1.00  0.00     0.011 A 
HETATM   25  C   UNL     1       8.508  23.836  56.902  1.00  0.00     0.001 A 
HETATM   26  C   UNL     1       8.332  25.116  57.398  1.00  0.00     0.003 A 
HETATM   27  C   UNL     1       7.793  26.107  56.578  1.00  0.00     0.037 A 
BRANCH  23  28
HETATM   28  C   UNL     1       7.332  24.180  53.233  1.00  0.00    -0.021 C 
HETATM   29  C   UNL     1       5.821  24.299  52.918  1.00  0.00     0.019 C 
HETATM   30  C   UNL     1       7.814  22.746  52.942  1.00  0.00     0.019 C 
HETATM   31  C   UNL     1       8.038  25.114  52.212  1.00  0.00     0.019 C 
ENDBRANCH  23  28
ENDBRANCH  21  22
ENDBRANCH  20  21
ENDBRANCH   1  20
TORSDOF 6
ENDMDL
MODEL 6
REMARK VINA RESULT:      -8.7      2.274      3.558
REMARK  6 active torsions:
REMARK  status: ('A' for Active; 'I' for Inactive)
REMARK    1  A    between atoms: C_2  and  C_3 
REMARK    2  A    between atoms: C_4  and  O_5 
REMARK    3  A    between atoms: O_5  and  C_6 
REMARK    4  A    between atoms: C_6  and  C_7 
REMARK       I    between atoms: C_7  and  N_8 
REMARK    5  A    between atoms: N_8  and  C_9 
REMARK    6  A    between atoms: C_16  and  C_17 
REMARK       I    between atoms: C_17  and  N_18 
ROOT
HETATM    1  C   UNL     1       6.250  28.579  56.193  1.00  0.00     0.246 C 
HETATM    2  N   UNL     1       6.978  29.703  56.561  1.00  0.00    -0.325 N 
HETATM    3  O   UNL     1       5.240  28.149  56.741  1.00  0.00    -0.271 OA
HETATM    4  H   UNL     1       7.740  29.958  55.945  1.00  0.00     0.169 HD
ENDROOT
BRANCH   2   5
HETATM    5  C   UNL     1       6.753  30.556  57.660  1.00  0.00     0.035 A 
HETATM    6  C   UNL     1       7.534  30.550  58.823  1.00  0.00     0.046 A 
HETATM    7  C   UNL     1       7.242  31.465  59.861  1.00  0.00     0.030 A 
HETATM    8  C   UNL     1       6.165  32.330  59.709  1.00  0.00     0.063 A 
HETATM    9  C   UNL     1       7.803  31.799  61.132  1.00  0.00     0.156 A 
HETATM   10  N   UNL     1       6.124  33.067  60.858  1.00  0.00    -0.277 N 
HETATM   11  C   UNL     1       5.362  32.356  58.567  1.00  0.00     0.034 A 
HETATM   12  H   UNL     1       5.457  33.792  61.100  1.00  0.00     0.189 HD
HETATM   13  N   UNL     1       7.100  32.784  61.736  1.00  0.00    -0.168 NA
HETATM   14  C   UNL     1       5.689  31.461  57.542  1.00  0.00     0.032 A 
BRANCH   9  15
HETATM   15  C   UNL     1       8.993  31.219  61.770  1.00  0.00     0.270 C 
HETATM   16  N   UNL     1       8.747  30.057  62.452  1.00  0.00    -0.365 N 
HETATM   17  H   UNL     1       7.797  29.709  62.487  1.00  0.00     0.159 HD
HETATM   18  H   UNL     1       9.494  29.609  62.958  1.00  0.00     0.159 HD
HETATM   19  O   UNL     1      10.117  31.706  61.733  1.00  0.00    -0.266 OA
ENDBRANCH   9  15
ENDBRANCH   2   5
BRANCH   1  20
HETATM   20  C   UNL     1       6.813  27.918  54.931  1.00  0.00     0.278 C 
BRANCH  20  21
HETATM   21  O   UNL     1       6.529  26.530  54.873  1.00  0.00    -0.342 OA
BRANCH  21  22
HETATM   22  C   UNL     1       7.368  25.639  55.493  1.00  0.00     0.076 A 
HETATM   23  C   UNL     1       7.722  24.477  54.758  1.00  0.00    -0.017 A 
HETATM   24  C   UNL     1       8.486  23.496  55.432  1.00  0.00     0.011 A 
HETATM   25  C   UNL     1       8.920  23.668  56.747  1.00  0.00     0.001 A 
HETATM   26  C   UNL     1       8.614  24.835  57.425  1.00  0.00     0.003 A 
HETATM   27  C   UNL     1       7.844  25.816  56.802  1.00  0.00     0.037 A 
BRANCH  23  28
HETATM   28  C   UNL     1       7.298  24.253  53.284  1.00  0.00    -0.021 C 
HETATM   29  C   UNL     1       5.775  24.447  53.084  1.00  0.00     0.019 C 
HETATM   30  C   UNL     1       7.704  22.831  52.848  1.00  0.00     0.019 C 
HETATM   31  C   UNL     1       7.970  25.242  52.294  1.00  0.00     0.019 C 
ENDBRANCH  23  28
ENDBRANCH  21  22
ENDBRANCH  20  21
ENDBRANCH   1  20
TORSDOF 6
ENDMDL
MODEL 7
REMARK VINA RESULT:      -8.7      6.109      9.377
REMARK  6 active torsions:
REMARK  status: ('A' for Active; 'I' for Inactive)
REMARK    1  A    between atoms: C_2  and  C_3 
REMARK    2  A    between atoms: C_4  and  O_5 
REMARK    3  A    between atoms: O_5  and  C_6 
REMARK    4  A    between atoms: C_6  and  C_7 
REMARK       I    between atoms: C_7  and  N_8 
REMARK    5  A    between atoms: N_8  and  C_9 
REMARK    6  A    between atoms: C_16  and  C_17 
REMARK       I    between atoms: C_17  and  N_18 
ROOT
HETATM    1  C   UNL     1       5.631  26.444  51.377  1.00  0.00     0.246 C 
HETATM    2  N   UNL     1       5.706  26.709  50.016  1.00  0.00    -0.325 N 
HETATM    3  O   UNL     1       4.885  26.982  52.189  1.00  0.00    -0.271 OA
HETATM    4  H   UNL     1       6.324  26.111  49.481  1.00  0.00     0.169 HD
ENDROOT
BRANCH   2   5
HETATM    5  C   UNL     1       4.990  27.678  49.285  1.00  0.00     0.035 A 
HETATM    6  C   UNL     1       3.779  27.421  48.630  1.00  0.00     0.046 A 
HETATM    7  C   UNL     1       3.125  28.470  47.942  1.00  0.00     0.030 A 
HETATM    8  C   UNL     1       3.719  29.726  47.912  1.00  0.00     0.063 A 
HETATM    9  C   UNL     1       1.902  28.627  47.219  1.00  0.00     0.156 A 
HETATM   10  N   UNL     1       2.878  30.510  47.176  1.00  0.00    -0.277 N 
HETATM   11  C   UNL     1       4.929  30.013  48.548  1.00  0.00     0.034 A 
HETATM   12  H   UNL     1       3.001  31.489  46.938  1.00  0.00     0.189 HD
HETATM   13  N   UNL     1       1.768  29.888  46.749  1.00  0.00    -0.168 NA
HETATM   14  C   UNL     1       5.542  28.966  49.245  1.00  0.00     0.032 A 
BRANCH   9  15
HETATM   15  C   UNL     1       0.862  27.616  46.982  1.00  0.00     0.270 C 
HETATM   16  N   UNL     1       0.405  27.581  45.692  1.00  0.00    -0.365 N 
HETATM   17  H   UNL     1       0.784  28.243  45.026  1.00  0.00     0.159 HD
HETATM   18  H   UNL     1      -0.340  26.949  45.445  1.00  0.00     0.159 HD
HETATM   19  O   UNL     1       0.406  26.866  47.838  1.00  0.00    -0.266 OA
ENDBRANCH   9  15
ENDBRANCH   2   5
BRANCH   1  20
HETATM   20  C   UNL     1       6.573  25.309  51.793  1.00  0.00     0.278 C 
BRANCH  20  21
HETATM   21  O   UNL     1       6.339  24.869  53.121  1.00  0.00    -0.342 OA
BRANCH  21  22
HETATM   22  C   UNL     1       7.205  23.980  53.703  1.00  0.00     0.076 A 
HETATM   23  C   UNL     1       7.640  24.282  55.021  1.00  0.00    -0.017 A 
HETATM   24  C   UNL     1       8.626  23.438  55.583  1.00  0.00     0.011 A 
HETATM   25  C   UNL     1       9.124  22.325  54.905  1.00  0.00     0.001 A 
HETATM   26  C   UNL     1       8.643  22.015  53.645  1.00  0.00     0.003 A 
HETATM   27  C   UNL     1       7.687  22.836  53.049  1.00  0.00     0.037 A 
BRANCH  23  28
HETATM   28  C   UNL     1       7.092  25.483  55.833  1.00  0.00    -0.021 C 
HETATM   29  C   UNL     1       7.801  25.629  57.201  1.00  0.00     0.019 C 
HETATM   30  C   UNL     1       5.576  25.302  56.048  1.00  0.00     0.019 C 
HETATM   31  C   UNL     1       7.290  26.848  55.120  1.00  0.00     0.019 C 
ENDBRANCH  23  28
ENDBRANCH  21  22
ENDBRANCH  20  21
ENDBRANCH   1  20
TORSDOF 6
ENDMDL
MODEL 8
REMARK VINA RESULT:      -8.6      2.121      3.288
REMARK  6 active torsions:
REMARK  status: ('A' for Active; 'I' for Inactive)
REMARK    1  A    between atoms: C_2  and  C_3 
REMARK    2  A    between atoms: C_4  and  O_5 
REMARK    3  A    between atoms: O_5  and  C_6 
REMARK    4  A    between atoms: C_6  and  C_7 
REMARK       I    between atoms: C_7  and  N_8 
REMARK    5  A    between atoms: N_8  and  C_9 
REMARK    6  A    between atoms: C_16  and  C_17 
REMARK       I    between atoms: C_17  and  N_18 
ROOT
HETATM    1  C   UNL     1       7.783  28.500  57.087  1.00  0.00     0.246 C 
HETATM    2  N   UNL     1       7.465  29.850  57.043  1.00  0.00    -0.325 N 
HETATM    3  O   UNL     1       7.899  27.806  58.093  1.00  0.00    -0.271 OA
HETATM    4  H   UNL     1       7.331  30.245  56.119  1.00  0.00     0.169 HD
ENDROOT
BRANCH   2   5
HETATM    5  C   UNL     1       7.259  30.725  58.128  1.00  0.00     0.035 A 
HETATM    6  C   UNL     1       5.993  31.127  58.576  1.00  0.00     0.046 A 
HETATM    7  C   UNL     1       5.892  31.989  59.692  1.00  0.00     0.030 A 
HETATM    8  C   UNL     1       7.058  32.439  60.300  1.00  0.00     0.063 A 
HETATM    9  C   UNL     1       4.834  32.569  60.457  1.00  0.00     0.156 A 
HETATM   10  N   UNL     1       6.649  33.252  61.318  1.00  0.00    -0.277 N 
HETATM   11  C   UNL     1       8.335  32.064  59.874  1.00  0.00     0.034 A 
HETATM   12  H   UNL     1       7.235  33.764  61.969  1.00  0.00     0.189 HD
HETATM   13  N   UNL     1       5.317  33.348  61.452  1.00  0.00    -0.168 NA
HETATM   14  C   UNL     1       8.407  31.187  58.786  1.00  0.00     0.032 A 
BRANCH   9  15
HETATM   15  C   UNL     1       3.387  32.385  60.275  1.00  0.00     0.270 C 
HETATM   16  N   UNL     1       2.943  31.127  60.584  1.00  0.00    -0.365 N 
HETATM   17  H   UNL     1       3.620  30.435  60.881  1.00  0.00     0.159 HD
HETATM   18  H   UNL     1       1.973  30.894  60.448  1.00  0.00     0.159 HD
HETATM   19  O   UNL     1       2.616  33.247  59.870  1.00  0.00    -0.266 OA
ENDBRANCH   9  15
ENDBRANCH   2   5
BRANCH   1  20
HETATM   20  C   UNL     1       7.925  27.897  55.686  1.00  0.00     0.278 C 
BRANCH  20  21
HETATM   21  O   UNL     1       7.058  26.795  55.479  1.00  0.00    -0.342 OA
BRANCH  21  22
HETATM   22  C   UNL     1       7.299  25.926  54.446  1.00  0.00     0.076 A 
HETATM   23  C   UNL     1       7.687  24.606  54.798  1.00  0.00    -0.017 A 
HETATM   24  C   UNL     1       8.056  23.739  53.744  1.00  0.00     0.011 A 
HETATM   25  C   UNL     1       8.001  24.133  52.406  1.00  0.00     0.001 A 
HETATM   26  C   UNL     1       7.563  25.405  52.081  1.00  0.00     0.003 A 
HETATM   27  C   UNL     1       7.212  26.295  53.095  1.00  0.00     0.037 A 
BRANCH  23  28
HETATM   28  C   UNL     1       7.729  24.105  56.265  1.00  0.00    -0.021 C 
HETATM   29  C   UNL     1       7.857  22.565  56.347  1.00  0.00     0.019 C 
HETATM   30  C   UNL     1       6.451  24.562  56.995  1.00  0.00     0.019 C 
HETATM   31  C   UNL     1       8.936  24.660  57.069  1.00  0.00     0.019 C 
ENDBRANCH  23  28
ENDBRANCH  21  22
ENDBRANCH  20  21
ENDBRANCH   1  20
TORSDOF 6
ENDMDL
MODEL 9
REMARK VINA RESULT:      -8.6      4.206      9.978
REMARK  6 active torsions:
REMARK  status: ('A' for Active; 'I' for Inactive)
REMARK    1  A    between atoms: C_2  and  C_3 
REMARK    2  A    between atoms: C_4  and  O_5 
REMARK    3  A    between atoms: O_5  and  C_6 
REMARK    4  A    between atoms: C_6  and  C_7 
REMARK       I    between atoms: C_7  and  N_8 
REMARK    5  A    between atoms: N_8  and  C_9 
REMARK    6  A    between atoms: C_16  and  C_17 
REMARK       I    between atoms: C_17  and  N_18 
ROOT
HETATM    1  C   UNL     1       7.857  31.469  60.102  1.00  0.00     0.246 C 
HETATM    2  N   UNL     1       7.989  30.168  59.638  1.00  0.00    -0.325 N 
HETATM    3  O   UNL     1       7.701  32.478  59.421  1.00  0.00    -0.271 OA
HETATM    4  H   UNL     1       8.028  29.445  60.347  1.00  0.00     0.169 HD
ENDROOT
BRANCH   2   5
HETATM    5  C   UNL     1       8.029  29.728  58.299  1.00  0.00     0.035 A 
HETATM    6  C   UNL     1       6.911  29.251  57.603  1.00  0.00     0.046 A 
HETATM    7  C   UNL     1       7.051  28.856  56.251  1.00  0.00     0.030 A 
HETATM    8  C   UNL     1       8.305  28.928  55.658  1.00  0.00     0.063 A 
HETATM    9  C   UNL     1       6.185  28.380  55.220  1.00  0.00     0.156 A 
HETATM   10  N   UNL     1       8.131  28.475  54.382  1.00  0.00    -0.277 N 
HETATM   11  C   UNL     1       9.441  29.392  56.326  1.00  0.00     0.034 A 
HETATM   12  H   UNL     1       8.839  28.379  53.661  1.00  0.00     0.189 HD
HETATM   13  N   UNL     1       6.867  28.145  54.076  1.00  0.00    -0.168 NA
HETATM   14  C   UNL     1       9.271  29.803  57.652  1.00  0.00     0.032 A 
BRANCH   9  15
HETATM   15  C   UNL     1       4.733  28.161  55.294  1.00  0.00     0.270 C 
HETATM   16  N   UNL     1       4.348  27.324  56.307  1.00  0.00    -0.365 N 
HETATM   17  H   UNL     1       5.064  26.912  56.893  1.00  0.00     0.159 HD
HETATM   18  H   UNL     1       3.376  27.080  56.409  1.00  0.00     0.159 HD
HETATM   19  O   UNL     1       3.910  28.652  54.530  1.00  0.00    -0.266 OA
ENDBRANCH   9  15
ENDBRANCH   2   5
BRANCH   1  20
HETATM   20  C   UNL     1       7.856  31.535  61.633  1.00  0.00     0.278 C 
BRANCH  20  21
HETATM   21  O   UNL     1       6.567  31.790  62.164  1.00  0.00    -0.342 OA
BRANCH  21  22
HETATM   22  C   UNL     1       6.427  32.652  63.221  1.00  0.00     0.076 A 
HETATM   23  C   UNL     1       5.266  33.470  63.229  1.00  0.00    -0.017 A 
HETATM   24  C   UNL     1       5.172  34.447  64.247  1.00  0.00     0.011 A 
HETATM   25  C   UNL     1       6.147  34.584  65.236  1.00  0.00     0.001 A 
HETATM   26  C   UNL     1       7.242  33.737  65.243  1.00  0.00     0.003 A 
HETATM   27  C   UNL     1       7.380  32.776  64.244  1.00  0.00     0.037 A 
BRANCH  23  28
HETATM   28  C   UNL     1       4.135  33.334  62.177  1.00  0.00    -0.021 C 
HETATM   29  C   UNL     1       4.530  33.962  60.818  1.00  0.00     0.019 C 
HETATM   30  C   UNL     1       2.858  34.011  62.713  1.00  0.00     0.019 C 
HETATM   31  C   UNL     1       3.768  31.860  61.856  1.00  0.00     0.019 C 
ENDBRANCH  23  28
ENDBRANCH  21  22
ENDBRANCH  20  21
ENDBRANCH   1  20
TORSDOF 6
ENDMDL
MODEL 10
REMARK VINA RESULT:      -8.5      2.741      8.700
REMARK  6 active torsions:
REMARK  status: ('A' for Active; 'I' for Inactive)
REMARK    1  A    between atoms: C_2  and  C_3 
REMARK    2  A    between atoms: C_4  and  O_5 
REMARK    3  A    between atoms: O_5  and  C_6 
REMARK    4  A    between atoms: C_6  and  C_7 
REMARK       I    between atoms: C_7  and  N_8 
REMARK    5  A    between atoms: N_8  and  C_9 
REMARK    6  A    between atoms: C_16  and  C_17 
REMARK       I    between atoms: C_17  and  N_18 
ROOT
HETATM    1  C   UNL     1       7.174  26.854  57.209  1.00  0.00     0.246 C 
HETATM    2  N   UNL     1       6.975  26.654  55.850  1.00  0.00    -0.325 N 
HETATM    3  O   UNL     1       7.639  26.048  58.008  1.00  0.00    -0.271 OA
HETATM    4  H   UNL     1       6.656  27.460  55.325  1.00  0.00     0.169 HD
ENDROOT
BRANCH   2   5
HETATM    5  C   UNL     1       7.209  25.480  55.106  1.00  0.00     0.035 A 
HETATM    6  C   UNL     1       7.701  24.291  55.661  1.00  0.00     0.046 A 
HETATM    7  C   UNL     1       7.877  23.159  54.833  1.00  0.00     0.030 A 
HETATM    8  C   UNL     1       7.584  23.265  53.479  1.00  0.00     0.063 A 
HETATM    9  C   UNL     1       8.292  21.803  55.012  1.00  0.00     0.156 A 
HETATM   10  N   UNL     1       7.863  22.039  52.947  1.00  0.00    -0.277 N 
HETATM   11  C   UNL     1       7.100  24.437  52.893  1.00  0.00     0.034 A 
HETATM   12  H   UNL     1       7.776  21.755  51.977  1.00  0.00     0.189 HD
HETATM   13  N   UNL     1       8.283  21.128  53.839  1.00  0.00    -0.168 NA
HETATM   14  C   UNL     1       6.906  25.535  53.738  1.00  0.00     0.032 A 
BRANCH   9  15
HETATM   15  C   UNL     1       8.676  21.138  56.265  1.00  0.00     0.270 C 
HETATM   16  N   UNL     1       9.438  20.014  56.087  1.00  0.00    -0.365 N 
HETATM   17  H   UNL     1       9.653  19.721  55.142  1.00  0.00     0.159 HD
HETATM   18  H   UNL     1       9.712  19.467  56.887  1.00  0.00     0.159 HD
HETATM   19  O   UNL     1       8.351  21.513  57.386  1.00  0.00    -0.266 OA
ENDBRANCH   9  15
ENDBRANCH   2   5
BRANCH   1  20
HETATM   20  C   UNL     1       6.799  28.275  57.641  1.00  0.00     0.278 C 
BRANCH  20  21
HETATM   21  O   UNL     1       7.714  28.815  58.580  1.00  0.00    -0.342 OA
BRANCH  21  22
HETATM   22  C   UNL     1       8.870  29.406  58.139  1.00  0.00     0.076 A 
HETATM   23  C   UNL     1       9.234  30.634  58.752  1.00  0.00    -0.017 A 
HETATM   24  C   UNL     1      10.356  31.313  58.222  1.00  0.00     0.011 A 
HETATM   25  C   UNL     1      11.111  30.787  57.172  1.00  0.00     0.001 A 
HETATM   26  C   UNL     1      10.774  29.560  56.628  1.00  0.00     0.003 A 
HETATM   27  C   UNL     1       9.662  28.872  57.111  1.00  0.00     0.037 A 
BRANCH  23  28
HETATM   28  C   UNL     1       8.452  31.243  59.944  1.00  0.00    -0.021 C 
HETATM   29  C   UNL     1       8.554  30.363  61.214  1.00  0.00     0.019 C 
HETATM   30  C   UNL     1       6.973  31.417  59.548  1.00  0.00     0.019 C 
HETATM   31  C   UNL     1       8.975  32.641  60.372  1.00  0.00     0.019 C 
ENDBRANCH  23  28
ENDBRANCH  21  22
ENDBRANCH  20  21
ENDBRANCH   1  20
TORSDOF 6
ENDMDL
