MODEL 1
REMARK VINA RESULT:      -8.4      0.000      0.000
REMARK  5 active torsions:
REMARK  status: ('A' for Active; 'I' for Inactive)
REMARK    1  A    between atoms: C_4  and  N_5 
REMARK       I    between atoms: N_5  and  C_6 
REMARK       I    between atoms: C_6  and  N_7 
REMARK    2  A    between atoms: N_7  and  C_8 
REMARK    3  A    between atoms: C_11  and  O_12 
REMARK    4  A    between atoms: O_12  and  C_13 
REMARK    5  A    between atoms: C_13  and  C_14 
ROOT
HETATM    1  N   UNL     1       4.151  28.103  50.105  1.00  0.00    -0.293 N 
HETATM    2  C   UNL     1       4.878  27.666  51.179  1.00  0.00     0.326 C 
HETATM    3  N   UNL     1       5.097  26.321  51.259  1.00  0.00    -0.309 N 
HETATM    4  O   UNL     1       5.281  28.519  51.968  1.00  0.00    -0.247 OA
HETATM    5  H   UNL     1       4.047  29.107  50.102  1.00  0.00     0.172 HD
HETATM    6  H   UNL     1       4.677  25.792  50.497  1.00  0.00     0.170 HD
ENDROOT
BRANCH   3   7
HETATM    7  C   UNL     1       5.841  25.605  52.212  1.00  0.00     0.036 A 
HETATM    8  C   UNL     1       5.359  25.257  53.475  1.00  0.00     0.032 A 
HETATM    9  C   UNL     1       6.171  24.567  54.385  1.00  0.00     0.039 A 
HETATM   10  C   UNL     1       7.479  24.225  54.044  1.00  0.00     0.068 A 
HETATM   11  C   UNL     1       7.954  24.549  52.774  1.00  0.00     0.039 A 
HETATM   12  C   UNL     1       7.142  25.234  51.864  1.00  0.00     0.032 A 
BRANCH  10  13
HETATM   13  O   UNL     1       8.374  23.579  54.850  1.00  0.00    -0.351 OA
BRANCH  13  14
HETATM   14  C   UNL     1       8.981  22.400  54.315  1.00  0.00     0.179 C 
BRANCH  14  15
HETATM   15  C   UNL     1       7.922  21.292  54.220  1.00  0.00     0.002 C 
HETATM   16  C   UNL     1       8.147  20.413  52.987  1.00  0.00     0.011 C 
HETATM   17  C   UNL     1       7.931  20.438  55.487  1.00  0.00     0.011 C 
ENDBRANCH  14  15
ENDBRANCH  13  14
ENDBRANCH  10  13
ENDBRANCH   3   7
BRANCH   1  18
HETATM   18  C   UNL     1       3.573  27.377  49.063  1.00  0.00     0.131 A 
HETATM   19  C   UNL     1       2.323  27.790  48.609  1.00  0.00     0.057 A 
HETATM   20  C   UNL     1       1.708  27.094  47.564  1.00  0.00    -0.057 A 
HETATM   21  C   UNL     1       0.351  27.499  47.073  1.00  0.00     0.048 C 
HETATM   22  C   UNL     1       2.361  25.986  47.029  1.00  0.00     0.026 A 
HETATM   23  C   UNL     1       3.602  25.644  47.540  1.00  0.00     0.119 A 
HETATM   24  N   UNL     1       4.223  26.316  48.535  1.00  0.00    -0.243 NA
ENDBRANCH   1  18
TORSDOF 5
ENDMDL
MODEL 2
REMARK VINA RESULT:      -8.4      6.451      9.139
REMARK  5 active torsions:
REMARK  status: ('A' for Active; 'I' for Inactive)
REMARK    1  A    between atoms: C_4  and  N_5 
REMARK       I    between atoms: N_5  and  C_6 
REMARK       I    between atoms: C_6  and  N_7 
REMARK    2  A    between atoms: N_7  and  C_8 
REMARK    3  A    between atoms: C_11  and  O_12 
REMARK    4  A    between atoms: O_12  and  C_13 
REMARK    5  A    between atoms: C_13  and  C_14 
ROOT
HETATM    1  N   UNL     1       7.780  24.640  56.670  1.00  0.00    -0.293 N 
HETATM    2  C   UNL     1       8.013  25.756  57.427  1.00  0.00     0.326 C 
HETATM    3  N   UNL     1       8.255  26.914  56.747  1.00  0.00    -0.309 N 
HETATM    4  O   UNL     1       7.972  25.623  58.649  1.00  0.00    -0.247 OA
HETATM    5  H   UNL     1       7.590  23.829  57.240  1.00  0.00     0.172 HD
HETATM    6  H   UNL     1       8.239  26.804  55.734  1.00  0.00     0.170 HD
ENDROOT
BRANCH   3   7
HETATM    7  C   UNL     1       8.475  28.204  57.256  1.00  0.00     0.036 A 
HETATM    8  C   UNL     1       9.679  28.898  57.127  1.00  0.00     0.032 A 
HETATM    9  C   UNL     1       9.835  30.172  57.688  1.00  0.00     0.039 A 
HETATM   10  C   UNL     1       8.789  30.764  58.393  1.00  0.00     0.068 A 
HETATM   11  C   UNL     1       7.576  30.085  58.501  1.00  0.00     0.039 A 
HETATM   12  C   UNL     1       7.419  28.815  57.938  1.00  0.00     0.032 A 
BRANCH  10  13
HETATM   13  O   UNL     1       8.825  31.986  59.006  1.00  0.00    -0.351 OA
BRANCH  13  14
HETATM   14  C   UNL     1       8.042  32.129  60.193  1.00  0.00     0.179 C 
BRANCH  14  15
HETATM   15  C   UNL     1       8.963  32.024  61.416  1.00  0.00     0.002 C 
HETATM   16  C   UNL     1       8.277  32.560  62.676  1.00  0.00     0.011 C 
HETATM   17  C   UNL     1       9.402  30.576  61.628  1.00  0.00     0.011 C 
ENDBRANCH  14  15
ENDBRANCH  13  14
ENDBRANCH  10  13
ENDBRANCH   3   7
BRANCH   1  18
HETATM   18  C   UNL     1       7.762  24.490  55.282  1.00  0.00     0.131 A 
HETATM   19  C   UNL     1       7.897  23.201  54.774  1.00  0.00     0.057 A 
HETATM   20  C   UNL     1       7.881  23.003  53.390  1.00  0.00    -0.057 A 
HETATM   21  C   UNL     1       8.053  21.630  52.814  1.00  0.00     0.048 C 
HETATM   22  C   UNL     1       7.757  24.116  52.563  1.00  0.00     0.026 A 
HETATM   23  C   UNL     1       7.628  25.363  53.151  1.00  0.00     0.119 A 
HETATM   24  N   UNL     1       7.620  25.573  54.486  1.00  0.00    -0.243 NA
ENDBRANCH   1  18
TORSDOF 5
ENDMDL
MODEL 3
REMARK VINA RESULT:      -8.3      6.510      9.207
REMARK  5 active torsions:
REMARK  status: ('A' for Active; 'I' for Inactive)
REMARK    1  A    between atoms: C_4  and  N_5 
REMARK       I    between atoms: N_5  and  C_6 
REMARK       I    between atoms: C_6  and  N_7 
REMARK    2  A    between atoms: N_7  and  C_8 
REMARK    3  A    between atoms: C_11  and  O_12 
REMARK    4  A    between atoms: O_12  and  C_13 
REMARK    5  A    between atoms: C_13  and  C_14 
ROOT
HETATM    1  N   UNL     1       7.013  26.206  54.573  1.00  0.00    -0.293 N 
HETATM    2  C   UNL     1       7.274  27.421  55.145  1.00  0.00     0.326 C 
HETATM    3  N   UNL     1       8.082  27.414  56.246  1.00  0.00    -0.309 N 
HETATM    4  O   UNL     1       6.772  28.410  54.615  1.00  0.00    -0.247 OA
HETATM    5  H   UNL     1       6.428  26.290  53.755  1.00  0.00     0.172 HD
HETATM    6  H   UNL     1       8.393  26.484  56.519  1.00  0.00     0.170 HD
ENDROOT
BRANCH   3   7
HETATM    7  C   UNL     1       8.551  28.503  57.000  1.00  0.00     0.036 A 
HETATM    8  C   UNL     1       9.809  29.082  56.832  1.00  0.00     0.032 A 
HETATM    9  C   UNL     1      10.220  30.149  57.643  1.00  0.00     0.039 A 
HETATM   10  C   UNL     1       9.378  30.642  58.638  1.00  0.00     0.068 A 
HETATM   11  C   UNL     1       8.110  30.083  58.791  1.00  0.00     0.039 A 
HETATM   12  C   UNL     1       7.699  29.021  57.979  1.00  0.00     0.032 A 
BRANCH  10  13
HETATM   13  O   UNL     1       9.672  31.656  59.506  1.00  0.00    -0.351 OA
BRANCH  13  14
HETATM   14  C   UNL     1       8.651  32.014  60.441  1.00  0.00     0.179 C 
BRANCH  14  15
HETATM   15  C   UNL     1       9.180  31.797  61.866  1.00  0.00     0.002 C 
HETATM   16  C   UNL     1       8.205  32.349  62.910  1.00  0.00     0.011 C 
HETATM   17  C   UNL     1       9.439  30.312  62.116  1.00  0.00     0.011 C 
ENDBRANCH  14  15
ENDBRANCH  13  14
ENDBRANCH  10  13
ENDBRANCH   3   7
BRANCH   1  18
HETATM   18  C   UNL     1       7.439  24.931  54.950  1.00  0.00     0.131 A 
HETATM   19  C   UNL     1       7.627  23.992  53.939  1.00  0.00     0.057 A 
HETATM   20  C   UNL     1       8.057  22.703  54.270  1.00  0.00    -0.057 A 
HETATM   21  C   UNL     1       8.241  21.664  53.206  1.00  0.00     0.048 C 
HETATM   22  C   UNL     1       8.255  22.395  55.614  1.00  0.00     0.026 A 
HETATM   23  C   UNL     1       8.045  23.388  56.555  1.00  0.00     0.119 A 
HETATM   24  N   UNL     1       7.649  24.645  56.254  1.00  0.00    -0.243 NA
ENDBRANCH   1  18
TORSDOF 5
ENDMDL
MODEL 4
REMARK VINA RESULT:      -8.2      6.888      9.537
REMARK  5 active torsions:
REMARK  status: ('A' for Active; 'I' for Inactive)
REMARK    1  A    between atoms: C_4  and  N_5 
REMARK       I    between atoms: N_5  and  C_6 
REMARK       I    between atoms: C_6  and  N_7 
REMARK    2  A    between atoms: N_7  and  C_8 
REMARK    3  A    between atoms: C_11  and  O_12 
REMARK    4  A    between atoms: O_12  and  C_13 
REMARK    5  A    between atoms: C_13  and  C_14 
ROOT
HETATM    1  N   UNL     1       9.548  30.840  58.507  1.00  0.00    -0.293 N 
HETATM    2  C   UNL     1       9.457  29.712  57.738  1.00  0.00     0.326 C 
HETATM    3  N   UNL     1       8.264  29.048  57.768  1.00  0.00    -0.309 N 
HETATM    4  O   UNL     1      10.448  29.401  57.079  1.00  0.00    -0.247 OA
HETATM    5  H   UNL     1      10.448  31.287  58.419  1.00  0.00     0.172 HD
HETATM    6  H   UNL     1       7.573  29.479  58.380  1.00  0.00     0.170 HD
ENDROOT
BRANCH   3   7
HETATM    7  C   UNL     1       7.875  27.904  57.053  1.00  0.00     0.036 A 
HETATM    8  C   UNL     1       7.627  27.891  55.680  1.00  0.00     0.032 A 
HETATM    9  C   UNL     1       7.212  26.716  55.039  1.00  0.00     0.039 A 
HETATM   10  C   UNL     1       7.033  25.541  55.767  1.00  0.00     0.068 A 
HETATM   11  C   UNL     1       7.305  25.545  57.135  1.00  0.00     0.039 A 
HETATM   12  C   UNL     1       7.722  26.717  57.774  1.00  0.00     0.032 A 
BRANCH  10  13
HETATM   13  O   UNL     1       6.608  24.343  55.265  1.00  0.00    -0.351 OA
BRANCH  13  14
HETATM   14  C   UNL     1       7.623  23.389  54.943  1.00  0.00     0.179 C 
BRANCH  14  15
HETATM   15  C   UNL     1       7.461  22.960  53.478  1.00  0.00     0.002 C 
HETATM   16  C   UNL     1       7.987  24.035  52.523  1.00  0.00     0.011 C 
HETATM   17  C   UNL     1       8.178  21.634  53.230  1.00  0.00     0.011 C 
ENDBRANCH  14  15
ENDBRANCH  13  14
ENDBRANCH  10  13
ENDBRANCH   3   7
BRANCH   1  18
HETATM   18  C   UNL     1       8.600  31.427  59.347  1.00  0.00     0.131 A 
HETATM   19  C   UNL     1       8.938  31.579  60.689  1.00  0.00     0.057 A 
HETATM   20  C   UNL     1       8.020  32.166  61.566  1.00  0.00    -0.057 A 
HETATM   21  C   UNL     1       8.346  32.317  63.021  1.00  0.00     0.048 C 
HETATM   22  C   UNL     1       6.780  32.554  61.066  1.00  0.00     0.026 A 
HETATM   23  C   UNL     1       6.525  32.367  59.717  1.00  0.00     0.119 A 
HETATM   24  N   UNL     1       7.406  31.821  58.850  1.00  0.00    -0.243 NA
ENDBRANCH   1  18
TORSDOF 5
ENDMDL
MODEL 5
REMARK VINA RESULT:      -8.0      5.808      8.668
REMARK  5 active torsions:
REMARK  status: ('A' for Active; 'I' for Inactive)
REMARK    1  A    between atoms: C_4  and  N_5 
REMARK       I    between atoms: N_5  and  C_6 
REMARK       I    between atoms: C_6  and  N_7 
REMARK    2  A    between atoms: N_7  and  C_8 
REMARK    3  A    between atoms: C_11  and  O_12 
REMARK    4  A    between atoms: O_12  and  C_13 
REMARK    5  A    between atoms: C_13  and  C_14 
ROOT
HETATM    1  N   UNL     1       7.566  25.534  53.614  1.00  0.00    -0.293 N 
HETATM    2  C   UNL     1       7.485  26.759  54.217  1.00  0.00     0.326 C 
HETATM    3  N   UNL     1       7.552  26.772  55.581  1.00  0.00    -0.309 N 
HETATM    4  O   UNL     1       7.373  27.740  53.484  1.00  0.00    -0.247 OA
HETATM    5  H   UNL     1       7.530  25.604  52.608  1.00  0.00     0.172 HD
HETATM    6  H   UNL     1       7.648  25.846  55.994  1.00  0.00     0.170 HD
ENDROOT
BRANCH   3   7
HETATM    7  C   UNL     1       7.543  27.873  56.452  1.00  0.00     0.036 A 
HETATM    8  C   UNL     1       6.382  28.510  56.892  1.00  0.00     0.032 A 
HETATM    9  C   UNL     1       6.454  29.624  57.739  1.00  0.00     0.039 A 
HETATM   10  C   UNL     1       7.691  30.118  58.150  1.00  0.00     0.068 A 
HETATM   11  C   UNL     1       8.852  29.468  57.734  1.00  0.00     0.039 A 
HETATM   12  C   UNL     1       8.780  28.354  56.891  1.00  0.00     0.032 A 
BRANCH  10  13
HETATM   13  O   UNL     1       7.893  31.208  58.950  1.00  0.00    -0.351 OA
BRANCH  13  14
HETATM   14  C   UNL     1       9.241  31.465  59.353  1.00  0.00     0.179 C 
BRANCH  14  15
HETATM   15  C   UNL     1       9.262  31.782  60.855  1.00  0.00     0.002 C 
HETATM   16  C   UNL     1       7.997  32.531  61.282  1.00  0.00     0.011 C 
HETATM   17  C   UNL     1       9.416  30.498  61.667  1.00  0.00     0.011 C 
ENDBRANCH  14  15
ENDBRANCH  13  14
ENDBRANCH  10  13
ENDBRANCH   3   7
BRANCH   1  18
HETATM   18  C   UNL     1       7.695  24.265  54.181  1.00  0.00     0.131 A 
HETATM   19  C   UNL     1       7.853  23.187  53.314  1.00  0.00     0.057 A 
HETATM   20  C   UNL     1       7.990  21.898  53.839  1.00  0.00    -0.057 A 
HETATM   21  C   UNL     1       8.133  20.716  52.929  1.00  0.00     0.048 C 
HETATM   22  C   UNL     1       7.935  21.735  55.221  1.00  0.00     0.026 A 
HETATM   23  C   UNL     1       7.776  22.862  56.011  1.00  0.00     0.119 A 
HETATM   24  N   UNL     1       7.662  24.118  55.524  1.00  0.00    -0.243 NA
ENDBRANCH   1  18
TORSDOF 5
ENDMDL
MODEL 6
REMARK VINA RESULT:      -8.0      6.176      8.611
REMARK  5 active torsions:
REMARK  status: ('A' for Active; 'I' for Inactive)
REMARK    1  A    between atoms: C_4  and  N_5 
REMARK       I    between atoms: N_5  and  C_6 
REMARK       I    between atoms: C_6  and  N_7 
REMARK    2  A    between atoms: N_7  and  C_8 
REMARK    3  A    between atoms: C_11  and  O_12 
REMARK    4  A    between atoms: O_12  and  C_13 
REMARK    5  A    between atoms: C_13  and  C_14 
ROOT
HETATM    1  N   UNL     1       5.436  25.268  55.535  1.00  0.00    -0.293 N 
HETATM    2  C   UNL     1       5.486  26.298  56.435  1.00  0.00     0.326 C 
HETATM    3  N   UNL     1       6.477  27.219  56.251  1.00  0.00    -0.309 N 
HETATM    4  O   UNL     1       4.632  26.313  57.319  1.00  0.00    -0.247 OA
HETATM    5  H   UNL     1       4.669  24.640  55.722  1.00  0.00     0.172 HD
HETATM    6  H   UNL     1       7.078  27.020  55.453  1.00  0.00     0.170 HD
ENDROOT
BRANCH   3   7
HETATM    7  C   UNL     1       6.736  28.390  56.982  1.00  0.00     0.036 A 
HETATM    8  C   UNL     1       5.854  29.468  57.065  1.00  0.00     0.032 A 
HETATM    9  C   UNL     1       6.195  30.618  57.790  1.00  0.00     0.039 A 
HETATM   10  C   UNL     1       7.428  30.705  58.433  1.00  0.00     0.068 A 
HETATM   11  C   UNL     1       8.302  29.620  58.373  1.00  0.00     0.039 A 
HETATM   12  C   UNL     1       7.960  28.471  57.653  1.00  0.00     0.032 A 
BRANCH  10  13
HETATM   13  O   UNL     1       7.887  31.778  59.146  1.00  0.00    -0.351 OA
BRANCH  13  14
HETATM   14  C   UNL     1       7.297  31.992  60.431  1.00  0.00     0.179 C 
BRANCH  14  15
HETATM   15  C   UNL     1       8.313  31.611  61.517  1.00  0.00     0.002 C 
HETATM   16  C   UNL     1       9.744  31.928  61.074  1.00  0.00     0.011 C 
HETATM   17  C   UNL     1       7.990  32.335  62.823  1.00  0.00     0.011 C 
ENDBRANCH  14  15
ENDBRANCH  13  14
ENDBRANCH  10  13
ENDBRANCH   3   7
BRANCH   1  18
HETATM   18  C   UNL     1       6.261  24.995  54.443  1.00  0.00     0.131 A 
HETATM   19  C   UNL     1       6.817  23.720  54.362  1.00  0.00     0.057 A 
HETATM   20  C   UNL     1       7.647  23.401  53.283  1.00  0.00    -0.057 A 
HETATM   21  C   UNL     1       8.281  22.046  53.184  1.00  0.00     0.048 C 
HETATM   22  C   UNL     1       7.913  24.387  52.336  1.00  0.00     0.026 A 
HETATM   23  C   UNL     1       7.319  25.628  52.493  1.00  0.00     0.119 A 
HETATM   24  N   UNL     1       6.498  25.950  53.518  1.00  0.00    -0.243 NA
ENDBRANCH   1  18
TORSDOF 5
ENDMDL
MODEL 7
REMARK VINA RESULT:      -7.9      6.026      8.751
REMARK  5 active torsions:
REMARK  status: ('A' for Active; 'I' for Inactive)
REMARK    1  A    between atoms: C_4  and  N_5 
REMARK       I    between atoms: N_5  and  C_6 
REMARK       I    between atoms: C_6  and  N_7 
REMARK    2  A    between atoms: N_7  and  C_8 
REMARK    3  A    between atoms: C_11  and  O_12 
REMARK    4  A    between atoms: O_12  and  C_13 
REMARK    5  A    between atoms: C_13  and  C_14 
ROOT
HETATM    1  N   UNL     1       6.511  30.102  58.141  1.00  0.00    -0.293 N 
HETATM    2  C   UNL     1       6.230  28.912  57.526  1.00  0.00     0.326 C 
HETATM    3  N   UNL     1       7.280  28.060  57.339  1.00  0.00    -0.309 N 
HETATM    4  O   UNL     1       5.059  28.707  57.209  1.00  0.00    -0.247 OA
HETATM    5  H   UNL     1       5.685  30.669  58.263  1.00  0.00     0.172 HD
HETATM    6  H   UNL     1       8.168  28.425  57.680  1.00  0.00     0.170 HD
ENDROOT
BRANCH   3   7
HETATM    7  C   UNL     1       7.278  26.768  56.787  1.00  0.00     0.036 A 
HETATM    8  C   UNL     1       6.945  26.488  55.462  1.00  0.00     0.032 A 
HETATM    9  C   UNL     1       6.937  25.168  54.990  1.00  0.00     0.039 A 
HETATM   10  C   UNL     1       7.255  24.113  55.843  1.00  0.00     0.068 A 
HETATM   11  C   UNL     1       7.614  24.392  57.161  1.00  0.00     0.039 A 
HETATM   12  C   UNL     1       7.626  25.709  57.631  1.00  0.00     0.032 A 
BRANCH  10  13
HETATM   13  O   UNL     1       7.258  22.787  55.511  1.00  0.00    -0.351 OA
BRANCH  13  14
HETATM   14  C   UNL     1       7.934  22.431  54.303  1.00  0.00     0.179 C 
BRANCH  14  15
HETATM   15  C   UNL     1       7.847  20.910  54.110  1.00  0.00     0.002 C 
HETATM   16  C   UNL     1       8.443  20.486  52.765  1.00  0.00     0.011 C 
HETATM   17  C   UNL     1       8.556  20.188  55.255  1.00  0.00     0.011 C 
ENDBRANCH  14  15
ENDBRANCH  13  14
ENDBRANCH  10  13
ENDBRANCH   3   7
BRANCH   1  18
HETATM   18  C   UNL     1       7.729  30.602  58.605  1.00  0.00     0.131 A 
HETATM   19  C   UNL     1       7.779  31.046  59.924  1.00  0.00     0.057 A 
HETATM   20  C   UNL     1       8.980  31.551  60.432  1.00  0.00    -0.057 A 
HETATM   21  C   UNL     1       9.056  32.063  61.839  1.00  0.00     0.048 C 
HETATM   22  C   UNL     1      10.083  31.618  59.585  1.00  0.00     0.026 A 
HETATM   23  C   UNL     1       9.947  31.154  58.288  1.00  0.00     0.119 A 
HETATM   24  N   UNL     1       8.801  30.644  57.783  1.00  0.00    -0.243 NA
ENDBRANCH   1  18
TORSDOF 5
ENDMDL
MODEL 8
REMARK VINA RESULT:      -7.9      7.304     10.067
REMARK  5 active torsions:
REMARK  status: ('A' for Active; 'I' for Inactive)
REMARK    1  A    between atoms: C_4  and  N_5 
REMARK       I    between atoms: N_5  and  C_6 
REMARK       I    between atoms: C_6  and  N_7 
REMARK    2  A    between atoms: N_7  and  C_8 
REMARK    3  A    between atoms: C_11  and  O_12 
REMARK    4  A    between atoms: O_12  and  C_13 
REMARK    5  A    between atoms: C_13  and  C_14 
ROOT
HETATM    1  N   UNL     1       9.501  30.891  58.963  1.00  0.00    -0.293 N 
HETATM    2  C   UNL     1       9.105  29.997  58.006  1.00  0.00     0.326 C 
HETATM    3  N   UNL     1       8.065  29.175  58.334  1.00  0.00    -0.309 N 
HETATM    4  O   UNL     1       9.707  30.019  56.934  1.00  0.00    -0.247 OA
HETATM    5  H   UNL     1      10.258  31.477  58.643  1.00  0.00     0.172 HD
HETATM    6  H   UNL     1       7.707  29.324  59.276  1.00  0.00     0.170 HD
ENDROOT
BRANCH   3   7
HETATM    7  C   UNL     1       7.425  28.206  57.543  1.00  0.00     0.036 A 
HETATM    8  C   UNL     1       6.082  28.268  57.171  1.00  0.00     0.032 A 
HETATM    9  C   UNL     1       5.505  27.247  56.403  1.00  0.00     0.039 A 
HETATM   10  C   UNL     1       6.264  26.148  56.007  1.00  0.00     0.068 A 
HETATM   11  C   UNL     1       7.614  26.096  56.355  1.00  0.00     0.039 A 
HETATM   12  C   UNL     1       8.191  27.117  57.118  1.00  0.00     0.032 A 
BRANCH  10  13
HETATM   13  O   UNL     1       5.812  25.080  55.283  1.00  0.00    -0.351 OA
BRANCH  13  14
HETATM   14  C   UNL     1       6.805  24.182  54.779  1.00  0.00     0.179 C 
BRANCH  14  15
HETATM   15  C   UNL     1       6.704  24.132  53.248  1.00  0.00     0.002 C 
HETATM   16  C   UNL     1       5.388  24.744  52.758  1.00  0.00     0.011 C 
HETATM   17  C   UNL     1       7.892  24.853  52.614  1.00  0.00     0.011 C 
ENDBRANCH  14  15
ENDBRANCH  13  14
ENDBRANCH  10  13
ENDBRANCH   3   7
BRANCH   1  18
HETATM   18  C   UNL     1       9.011  31.093  60.254  1.00  0.00     0.131 A 
HETATM   19  C   UNL     1       8.215  32.216  60.470  1.00  0.00     0.057 A 
HETATM   20  C   UNL     1       7.699  32.456  61.747  1.00  0.00    -0.057 A 
HETATM   21  C   UNL     1       6.864  33.671  62.015  1.00  0.00     0.048 C 
HETATM   22  C   UNL     1       8.026  31.571  62.772  1.00  0.00     0.026 A 
HETATM   23  C   UNL     1       8.824  30.480  62.471  1.00  0.00     0.119 A 
HETATM   24  N   UNL     1       9.316  30.219  61.239  1.00  0.00    -0.243 NA
ENDBRANCH   1  18
TORSDOF 5
ENDMDL
MODEL 9
REMARK VINA RESULT:      -7.8     11.000     13.261
REMARK  5 active torsions:
REMARK  status: ('A' for Active; 'I' for Inactive)
REMARK    1  A    between atoms: C_4  and  N_5 
REMARK       I    between atoms: N_5  and  C_6 
REMARK       I    between atoms: C_6  and  N_7 
REMARK    2  A    between atoms: N_7  and  C_8 
REMARK    3  A    between atoms: C_11  and  O_12 
REMARK    4  A    between atoms: O_12  and  C_13 
REMARK    5  A    between atoms: C_13  and  C_14 
ROOT
HETATM    1  N   UNL     1       8.347  31.008  58.423  1.00  0.00    -0.293 N 
HETATM    2  C   UNL     1       8.313  31.770  59.559  1.00  0.00     0.326 C 
HETATM    3  N   UNL     1       7.344  31.462  60.470  1.00  0.00    -0.309 N 
HETATM    4  O   UNL     1       9.161  32.654  59.667  1.00  0.00    -0.247 OA
HETATM    5  H   UNL     1       9.099  31.279  57.807  1.00  0.00     0.172 HD
HETATM    6  H   UNL     1       6.745  30.689  60.184  1.00  0.00     0.170 HD
ENDROOT
BRANCH   3   7
HETATM    7  C   UNL     1       7.105  32.036  61.729  1.00  0.00     0.036 A 
HETATM    8  C   UNL     1       8.093  32.241  62.693  1.00  0.00     0.032 A 
HETATM    9  C   UNL     1       7.773  32.793  63.940  1.00  0.00     0.039 A 
HETATM   10  C   UNL     1       6.457  33.139  64.241  1.00  0.00     0.068 A 
HETATM   11  C   UNL     1       5.472  32.960  63.271  1.00  0.00     0.039 A 
HETATM   12  C   UNL     1       5.791  32.413  62.025  1.00  0.00     0.032 A 
BRANCH  10  13
HETATM   13  O   UNL     1       6.016  33.659  65.426  1.00  0.00    -0.351 OA
BRANCH  13  14
HETATM   14  C   UNL     1       4.601  33.803  65.574  1.00  0.00     0.179 C 
BRANCH  14  15
HETATM   15  C   UNL     1       4.300  35.178  66.186  1.00  0.00     0.002 C 
HETATM   16  C   UNL     1       5.091  35.396  67.478  1.00  0.00     0.011 C 
HETATM   17  C   UNL     1       4.610  36.286  65.181  1.00  0.00     0.011 C 
ENDBRANCH  14  15
ENDBRANCH  13  14
ENDBRANCH  10  13
ENDBRANCH   3   7
BRANCH   1  18
HETATM   18  C   UNL     1       7.523  29.951  58.031  1.00  0.00     0.131 A 
HETATM   19  C   UNL     1       8.100  28.687  57.944  1.00  0.00     0.057 A 
HETATM   20  C   UNL     1       7.311  27.598  57.559  1.00  0.00    -0.057 A 
HETATM   21  C   UNL     1       7.912  26.230  57.430  1.00  0.00     0.048 C 
HETATM   22  C   UNL     1       5.973  27.825  57.247  1.00  0.00     0.026 A 
HETATM   23  C   UNL     1       5.480  29.114  57.360  1.00  0.00     0.119 A 
HETATM   24  N   UNL     1       6.221  30.176  57.750  1.00  0.00    -0.243 NA
ENDBRANCH   1  18
TORSDOF 5
ENDMDL
MODEL 10
REMARK VINA RESULT:      -7.7      7.136      9.916
REMARK  5 active torsions:
REMARK  status: ('A' for Active; 'I' for Inactive)
REMARK    1  A    between atoms: C_4  and  N_5 
REMARK       I    between atoms: N_5  and  C_6 
REMARK       I    between atoms: C_6  and  N_7 
REMARK    2  A    between atoms: N_7  and  C_8 
REMARK    3  A    between atoms: C_11  and  O_12 
REMARK    4  A    between atoms: O_12  and  C_13 
REMARK    5  A    between atoms: C_13  and  C_14 
ROOT
HETATM    1  N   UNL     1       9.628  31.211  58.704  1.00  0.00    -0.293 N 
HETATM    2  C   UNL     1       9.603  30.159  57.829  1.00  0.00     0.326 C 
HETATM    3  N   UNL     1       8.418  29.491  57.713  1.00  0.00    -0.309 N 
HETATM    4  O   UNL     1      10.640  29.915  57.215  1.00  0.00    -0.247 OA
HETATM    5  H   UNL     1      10.528  31.667  58.721  1.00  0.00     0.172 HD
HETATM    6  H   UNL     1       7.681  29.860  58.312  1.00  0.00     0.170 HD
ENDROOT
BRANCH   3   7
HETATM    7  C   UNL     1       8.091  28.418  56.869  1.00  0.00     0.036 A 
HETATM    8  C   UNL     1       7.948  27.100  57.303  1.00  0.00     0.032 A 
HETATM    9  C   UNL     1       7.649  26.075  56.394  1.00  0.00     0.039 A 
HETATM   10  C   UNL     1       7.498  26.358  55.038  1.00  0.00     0.068 A 
HETATM   11  C   UNL     1       7.613  27.678  54.605  1.00  0.00     0.039 A 
HETATM   12  C   UNL     1       7.908  28.701  55.512  1.00  0.00     0.032 A 
BRANCH  10  13
HETATM   13  O   UNL     1       7.233  25.447  54.054  1.00  0.00    -0.351 OA
BRANCH  13  14
HETATM   14  C   UNL     1       7.062  25.964  52.732  1.00  0.00     0.179 C 
BRANCH  14  15
HETATM   15  C   UNL     1       5.867  25.263  52.071  1.00  0.00     0.002 C 
HETATM   16  C   UNL     1       4.768  24.957  53.093  1.00  0.00     0.011 C 
HETATM   17  C   UNL     1       5.310  26.120  50.935  1.00  0.00     0.011 C 
ENDBRANCH  14  15
ENDBRANCH  13  14
ENDBRANCH  10  13
ENDBRANCH   3   7
BRANCH   1  18
HETATM   18  C   UNL     1       8.618  31.713  59.526  1.00  0.00     0.131 A 
HETATM   19  C   UNL     1       8.912  31.877  60.877  1.00  0.00     0.057 A 
HETATM   20  C   UNL     1       7.931  32.382  61.736  1.00  0.00    -0.057 A 
HETATM   21  C   UNL     1       8.211  32.542  63.200  1.00  0.00     0.048 C 
HETATM   22  C   UNL     1       6.676  32.677  61.210  1.00  0.00     0.026 A 
HETATM   23  C   UNL     1       6.468  32.484  59.855  1.00  0.00     0.119 A 
HETATM   24  N   UNL     1       7.409  32.017  59.004  1.00  0.00    -0.243 NA
ENDBRANCH   1  18
TORSDOF 5
ENDMDL
