MODEL 1
REMARK VINA RESULT:      -8.7      0.000      0.000
REMARK  10 active torsions:
REMARK  status: ('A' for Active; 'I' for Inactive)
REMARK    1  A    between atoms: C_2  and  C_3 
REMARK    2  A    between atoms: C_3  and  N_4 
REMARK    3  A    between atoms: N_4  and  C_5 
REMARK    4  A    between atoms: C_5  and  N_6 
REMARK    5  A    between atoms: N_6  and  N_7 
REMARK       I    between atoms: N_7  and  C_8 
REMARK    6  A    between atoms: C_8  and  C_9 
REMARK    7  A    between atoms: C_9  and  C_10 
REMARK    8  A    between atoms: C_10  and  C_11 
REMARK    9  A    between atoms: C_13  and  O_14 
REMARK   10  A    between atoms: C_15  and  O_16 
ROOT
HETATM    1  N   UNL     1       3.988  26.288  53.320  1.00  0.00    -0.268 N 
HETATM    2  C   UNL     1       5.136  25.851  52.688  1.00  0.00     0.236 C 
HETATM    3  O   UNL     1       5.757  26.531  51.872  1.00  0.00    -0.272 OA
HETATM    4  H   UNL     1       3.693  25.895  54.210  1.00  0.00     0.190 HD
ENDROOT
BRANCH   1   5
HETATM    5  N   UNL     1       3.578  27.609  53.056  1.00  0.00    -0.274 N 
HETATM    6  H   UNL     1       3.705  27.862  52.077  1.00  0.00     0.189 HD
BRANCH   5   7
HETATM    7  C   UNL     1       3.814  28.598  53.980  1.00  0.00     0.186 C 
HETATM    8  S   UNL     1       4.017  30.221  53.629  1.00  0.00    -0.040 SA
BRANCH   7   9
HETATM    9  N   UNL     1       3.920  28.195  55.278  1.00  0.00    -0.362 N 
HETATM   10  H   UNL     1       3.174  27.589  55.597  1.00  0.00     0.162 HD
BRANCH   9  11
HETATM   11  C   UNL     1       4.890  28.615  56.275  1.00  0.00     0.160 C 
BRANCH  11  12
HETATM   12  C   UNL     1       5.867  27.542  56.695  1.00  0.00    -0.040 A 
HETATM   13  C   UNL     1       5.508  26.193  56.843  1.00  0.00     0.010 A 
HETATM   14  C   UNL     1       6.466  25.229  57.173  1.00  0.00     0.024 A 
HETATM   15  C   UNL     1       7.793  25.603  57.357  1.00  0.00     0.034 A 
HETATM   16  C   UNL     1       8.173  26.933  57.209  1.00  0.00     0.024 A 
HETATM   17 CL   UNL     1       8.972  24.415  57.757  1.00  0.00    -0.084 Cl
HETATM   18  C   UNL     1       7.217  27.896  56.875  1.00  0.00     0.010 A 
ENDBRANCH  11  12
ENDBRANCH   9  11
ENDBRANCH   7   9
ENDBRANCH   5   7
ENDBRANCH   1   5
BRANCH   2  19
HETATM   19  C   UNL     1       5.550  24.441  53.040  1.00  0.00     0.109 C 
BRANCH  19  20
HETATM   20  C   UNL     1       6.979  24.369  53.584  1.00  0.00     0.048 C 
BRANCH  20  21
HETATM   21  C   UNL     1       7.501  22.988  53.924  1.00  0.00    -0.055 A 
HETATM   22  C   UNL     1       7.536  22.502  55.242  1.00  0.00     0.046 A 
HETATM   23  C   UNL     1       8.066  21.242  55.502  1.00  0.00     0.099 A 
HETATM   24  C   UNL     1       8.524  20.440  54.463  1.00  0.00     0.098 A 
HETATM   25  C   UNL     1       8.465  20.883  53.152  1.00  0.00     0.040 A 
HETATM   26  C   UNL     1       7.952  22.154  52.883  1.00  0.00     0.010 A 
BRANCH  23  27
HETATM   27  O   UNL     1       8.171  20.754  56.777  1.00  0.00    -0.358 OA
HETATM   28  H   UNL     1       7.647  21.332  57.359  1.00  0.00     0.218 HD
ENDBRANCH  23  27
BRANCH  24  29
HETATM   29  O   UNL     1       9.047  19.208  54.731  1.00  0.00    -0.358 OA
HETATM   30  H   UNL     1       9.742  19.088  54.052  1.00  0.00     0.218 HD
ENDBRANCH  24  29
ENDBRANCH  20  21
ENDBRANCH  19  20
ENDBRANCH   2  19
TORSDOF 10
ENDMDL
MODEL 2
REMARK VINA RESULT:      -8.3      1.580      2.269
REMARK  10 active torsions:
REMARK  status: ('A' for Active; 'I' for Inactive)
REMARK    1  A    between atoms: C_2  and  C_3 
REMARK    2  A    between atoms: C_3  and  N_4 
REMARK    3  A    between atoms: N_4  and  C_5 
REMARK    4  A    between atoms: C_5  and  N_6 
REMARK    5  A    between atoms: N_6  and  N_7 
REMARK       I    between atoms: N_7  and  C_8 
REMARK    6  A    between atoms: C_8  and  C_9 
REMARK    7  A    between atoms: C_9  and  C_10 
REMARK    8  A    between atoms: C_10  and  C_11 
REMARK    9  A    between atoms: C_13  and  O_14 
REMARK   10  A    between atoms: C_15  and  O_16 
ROOT
HETATM    1  N   UNL     1       4.185  26.107  53.291  1.00  0.00    -0.268 N 
HETATM    2  C   UNL     1       5.273  25.949  52.455  1.00  0.00     0.236 C 
HETATM    3  O   UNL     1       5.653  26.817  51.671  1.00  0.00    -0.272 OA
HETATM    4  H   UNL     1       4.093  25.565  54.147  1.00  0.00     0.190 HD
ENDROOT
BRANCH   1   5
HETATM    5  N   UNL     1       3.547  27.362  53.277  1.00  0.00    -0.274 N 
HETATM    6  H   UNL     1       3.311  27.662  52.332  1.00  0.00     0.189 HD
BRANCH   5   7
HETATM    7  C   UNL     1       3.948  28.345  54.150  1.00  0.00     0.186 C 
HETATM    8  S   UNL     1       4.217  29.946  53.746  1.00  0.00    -0.040 SA
BRANCH   7   9
HETATM    9  N   UNL     1       4.169  27.952  55.436  1.00  0.00    -0.362 N 
HETATM   10  H   UNL     1       3.548  28.369  56.120  1.00  0.00     0.162 HD
BRANCH   9  11
HETATM   11  C   UNL     1       5.242  27.119  55.951  1.00  0.00     0.160 C 
BRANCH  11  12
HETATM   12  C   UNL     1       6.550  27.842  56.175  1.00  0.00    -0.040 A 
HETATM   13  C   UNL     1       7.056  28.134  57.451  1.00  0.00     0.010 A 
HETATM   14  C   UNL     1       8.303  28.749  57.603  1.00  0.00     0.024 A 
HETATM   15  C   UNL     1       9.057  29.077  56.481  1.00  0.00     0.034 A 
HETATM   16  C   UNL     1       8.579  28.790  55.207  1.00  0.00     0.024 A 
HETATM   17 CL   UNL     1      10.593  29.828  56.670  1.00  0.00    -0.084 Cl
HETATM   18  C   UNL     1       7.335  28.172  55.055  1.00  0.00     0.010 A 
ENDBRANCH  11  12
ENDBRANCH   9  11
ENDBRANCH   7   9
ENDBRANCH   5   7
ENDBRANCH   1   5
BRANCH   2  19
HETATM   19  C   UNL     1       5.942  24.596  52.543  1.00  0.00     0.109 C 
BRANCH  19  20
HETATM   20  C   UNL     1       6.887  24.486  53.742  1.00  0.00     0.048 C 
BRANCH  20  21
HETATM   21  C   UNL     1       7.435  23.106  54.044  1.00  0.00    -0.055 A 
HETATM   22  C   UNL     1       7.681  22.159  53.036  1.00  0.00     0.046 A 
HETATM   23  C   UNL     1       8.143  20.891  53.375  1.00  0.00     0.099 A 
HETATM   24  C   UNL     1       8.404  20.566  54.701  1.00  0.00     0.098 A 
HETATM   25  C   UNL     1       8.205  21.495  55.707  1.00  0.00     0.040 A 
HETATM   26  C   UNL     1       7.723  22.764  55.379  1.00  0.00     0.010 A 
BRANCH  23  27
HETATM   27  O   UNL     1       8.342  19.921  52.429  1.00  0.00    -0.358 OA
HETATM   28  H   UNL     1       9.041  20.233  51.827  1.00  0.00     0.218 HD
ENDBRANCH  23  27
BRANCH  24  29
HETATM   29  O   UNL     1       8.853  19.317  55.021  1.00  0.00    -0.358 OA
HETATM   30  H   UNL     1       8.188  18.715  54.630  1.00  0.00     0.218 HD
ENDBRANCH  24  29
ENDBRANCH  20  21
ENDBRANCH  19  20
ENDBRANCH   2  19
TORSDOF 10
ENDMDL
MODEL 3
REMARK VINA RESULT:      -8.3      4.853      5.785
REMARK  10 active torsions:
REMARK  status: ('A' for Active; 'I' for Inactive)
REMARK    1  A    between atoms: C_2  and  C_3 
REMARK    2  A    between atoms: C_3  and  N_4 
REMARK    3  A    between atoms: N_4  and  C_5 
REMARK    4  A    between atoms: C_5  and  N_6 
REMARK    5  A    between atoms: N_6  and  N_7 
REMARK       I    between atoms: N_7  and  C_8 
REMARK    6  A    between atoms: C_8  and  C_9 
REMARK    7  A    between atoms: C_9  and  C_10 
REMARK    8  A    between atoms: C_10  and  C_11 
REMARK    9  A    between atoms: C_13  and  O_14 
REMARK   10  A    between atoms: C_15  and  O_16 
ROOT
HETATM    1  N   UNL     1       8.126  27.550  56.839  1.00  0.00    -0.268 N 
HETATM    2  C   UNL     1       7.902  26.268  57.302  1.00  0.00     0.236 C 
HETATM    3  O   UNL     1       7.888  25.973  58.497  1.00  0.00    -0.272 OA
HETATM    4  H   UNL     1       7.799  27.846  55.924  1.00  0.00     0.190 HD
ENDROOT
BRANCH   1   5
HETATM    5  N   UNL     1       8.265  28.561  57.809  1.00  0.00    -0.274 N 
HETATM    6  H   UNL     1       7.391  28.745  58.300  1.00  0.00     0.189 HD
BRANCH   5   7
HETATM    7  C   UNL     1       9.065  29.650  57.555  1.00  0.00     0.186 C 
HETATM    8  S   UNL     1      10.330  29.685  56.461  1.00  0.00    -0.040 SA
BRANCH   7   9
HETATM    9  N   UNL     1       8.810  30.768  58.292  1.00  0.00    -0.362 N 
HETATM   10  H   UNL     1       8.109  31.384  57.898  1.00  0.00     0.162 HD
BRANCH   9  11
HETATM   11  C   UNL     1       9.492  31.234  59.487  1.00  0.00     0.160 C 
BRANCH  11  12
HETATM   12  C   UNL     1       8.576  31.718  60.587  1.00  0.00    -0.040 A 
HETATM   13  C   UNL     1       7.215  31.997  60.384  1.00  0.00     0.010 A 
HETATM   14  C   UNL     1       6.396  32.382  61.451  1.00  0.00     0.024 A 
HETATM   15  C   UNL     1       6.929  32.491  62.731  1.00  0.00     0.034 A 
HETATM   16  C   UNL     1       8.273  32.213  62.957  1.00  0.00     0.024 A 
HETATM   17 CL   UNL     1       5.920  32.960  64.043  1.00  0.00    -0.084 Cl
HETATM   18  C   UNL     1       9.090  31.824  61.892  1.00  0.00     0.010 A 
ENDBRANCH  11  12
ENDBRANCH   9  11
ENDBRANCH   7   9
ENDBRANCH   5   7
ENDBRANCH   1   5
BRANCH   2  19
HETATM   19  C   UNL     1       7.721  25.231  56.216  1.00  0.00     0.109 C 
BRANCH  19  20
HETATM   20  C   UNL     1       8.713  24.072  56.342  1.00  0.00     0.048 C 
BRANCH  20  21
HETATM   21  C   UNL     1       8.555  22.941  55.346  1.00  0.00    -0.055 A 
HETATM   22  C   UNL     1       8.858  21.607  55.670  1.00  0.00     0.046 A 
HETATM   23  C   UNL     1       8.737  20.615  54.702  1.00  0.00     0.099 A 
HETATM   24  C   UNL     1       8.277  20.924  53.427  1.00  0.00     0.098 A 
HETATM   25  C   UNL     1       7.935  22.225  53.097  1.00  0.00     0.040 A 
HETATM   26  C   UNL     1       8.073  23.231  54.055  1.00  0.00     0.010 A 
BRANCH  23  27
HETATM   27  O   UNL     1       9.076  19.314  54.959  1.00  0.00    -0.358 OA
HETATM   28  H   UNL     1       8.927  19.150  55.907  1.00  0.00     0.218 HD
ENDBRANCH  23  27
BRANCH  24  29
HETATM   29  O   UNL     1       8.167  19.942  52.485  1.00  0.00    -0.358 OA
HETATM   30  H   UNL     1       8.983  19.414  52.591  1.00  0.00     0.218 HD
ENDBRANCH  24  29
ENDBRANCH  20  21
ENDBRANCH  19  20
ENDBRANCH   2  19
TORSDOF 10
ENDMDL
MODEL 4
REMARK VINA RESULT:      -8.2      6.633      9.961
REMARK  10 active torsions:
REMARK  status: ('A' for Active; 'I' for Inactive)
REMARK    1  A    between atoms: C_2  and  C_3 
REMARK    2  A    between atoms: C_3  and  N_4 
REMARK    3  A    between atoms: N_4  and  C_5 
REMARK    4  A    between atoms: C_5  and  N_6 
REMARK    5  A    between atoms: N_6  and  N_7 
REMARK       I    between atoms: N_7  and  C_8 
REMARK    6  A    between atoms: C_8  and  C_9 
REMARK    7  A    between atoms: C_9  and  C_10 
REMARK    8  A    between atoms: C_10  and  C_11 
REMARK    9  A    between atoms: C_13  and  O_14 
REMARK   10  A    between atoms: C_15  and  O_16 
ROOT
HETATM    1  N   UNL     1       8.423  30.113  59.597  1.00  0.00    -0.268 N 
HETATM    2  C   UNL     1       8.292  31.486  59.526  1.00  0.00     0.236 C 
HETATM    3  O   UNL     1       7.523  32.052  58.750  1.00  0.00    -0.272 OA
HETATM    4  H   UNL     1       8.770  29.658  60.437  1.00  0.00     0.190 HD
ENDROOT
BRANCH   1   5
HETATM    5  N   UNL     1       7.564  29.348  58.784  1.00  0.00    -0.274 N 
HETATM    6  H   UNL     1       6.836  28.883  59.325  1.00  0.00     0.189 HD
BRANCH   5   7
HETATM    7  C   UNL     1       8.073  28.651  57.714  1.00  0.00     0.186 C 
HETATM    8  S   UNL     1       9.371  29.133  56.775  1.00  0.00    -0.040 SA
BRANCH   7   9
HETATM    9  N   UNL     1       7.429  27.493  57.391  1.00  0.00    -0.362 N 
HETATM   10  H   UNL     1       6.527  27.619  56.947  1.00  0.00     0.162 HD
BRANCH   9  11
HETATM   11  C   UNL     1       7.816  26.130  57.708  1.00  0.00     0.160 C 
BRANCH  11  12
HETATM   12  C   UNL     1       7.800  25.181  56.532  1.00  0.00    -0.040 A 
HETATM   13  C   UNL     1       7.028  25.400  55.380  1.00  0.00     0.010 A 
HETATM   14  C   UNL     1       7.097  24.522  54.294  1.00  0.00     0.024 A 
HETATM   15  C   UNL     1       7.941  23.417  54.346  1.00  0.00     0.034 A 
HETATM   16  C   UNL     1       8.721  23.184  55.474  1.00  0.00     0.024 A 
HETATM   17 CL   UNL     1       8.030  22.342  53.006  1.00  0.00    -0.084 Cl
HETATM   18  C   UNL     1       8.654  24.063  56.558  1.00  0.00     0.010 A 
ENDBRANCH  11  12
ENDBRANCH   9  11
ENDBRANCH   7   9
ENDBRANCH   5   7
ENDBRANCH   1   5
BRANCH   2  19
HETATM   19  C   UNL     1       9.210  32.253  60.450  1.00  0.00     0.109 C 
BRANCH  19  20
HETATM   20  C   UNL     1       9.160  31.735  61.889  1.00  0.00     0.048 C 
BRANCH  20  21
HETATM   21  C   UNL     1       7.907  32.056  62.677  1.00  0.00    -0.055 A 
HETATM   22  C   UNL     1       6.656  31.505  62.356  1.00  0.00     0.046 A 
HETATM   23  C   UNL     1       5.529  31.870  63.088  1.00  0.00     0.099 A 
HETATM   24  C   UNL     1       5.639  32.744  64.163  1.00  0.00     0.098 A 
HETATM   25  C   UNL     1       6.868  33.271  64.522  1.00  0.00     0.040 A 
HETATM   26  C   UNL     1       8.001  32.926  63.781  1.00  0.00     0.010 A 
BRANCH  23  27
HETATM   27  O   UNL     1       4.283  31.400  62.773  1.00  0.00    -0.358 OA
HETATM   28  H   UNL     1       3.887  32.015  62.132  1.00  0.00     0.218 HD
ENDBRANCH  23  27
BRANCH  24  29
HETATM   29  O   UNL     1       4.526  33.099  64.870  1.00  0.00    -0.358 OA
HETATM   30  H   UNL     1       4.875  33.405  65.732  1.00  0.00     0.218 HD
ENDBRANCH  24  29
ENDBRANCH  20  21
ENDBRANCH  19  20
ENDBRANCH   2  19
TORSDOF 10
ENDMDL
MODEL 5
REMARK VINA RESULT:      -8.2      1.588      2.062
REMARK  10 active torsions:
REMARK  status: ('A' for Active; 'I' for Inactive)
REMARK    1  A    between atoms: C_2  and  C_3 
REMARK    2  A    between atoms: C_3  and  N_4 
REMARK    3  A    between atoms: N_4  and  C_5 
REMARK    4  A    between atoms: C_5  and  N_6 
REMARK    5  A    between atoms: N_6  and  N_7 
REMARK       I    between atoms: N_7  and  C_8 
REMARK    6  A    between atoms: C_8  and  C_9 
REMARK    7  A    between atoms: C_9  and  C_10 
REMARK    8  A    between atoms: C_10  and  C_11 
REMARK    9  A    between atoms: C_13  and  O_14 
REMARK   10  A    between atoms: C_15  and  O_16 
ROOT
HETATM    1  N   UNL     1       5.931  26.351  50.936  1.00  0.00    -0.268 N 
HETATM    2  C   UNL     1       6.095  25.359  51.883  1.00  0.00     0.236 C 
HETATM    3  O   UNL     1       5.172  24.923  52.570  1.00  0.00    -0.272 OA
HETATM    4  H   UNL     1       6.580  26.453  50.160  1.00  0.00     0.190 HD
ENDROOT
BRANCH   1   5
HETATM    5  N   UNL     1       4.618  26.810  50.714  1.00  0.00    -0.274 N 
HETATM    6  H   UNL     1       4.331  26.697  49.743  1.00  0.00     0.189 HD
BRANCH   5   7
HETATM    7  C   UNL     1       4.166  27.936  51.360  1.00  0.00     0.186 C 
HETATM    8  S   UNL     1       4.112  29.472  50.701  1.00  0.00    -0.040 SA
BRANCH   7   9
HETATM    9  N   UNL     1       3.767  27.767  52.653  1.00  0.00    -0.362 N 
HETATM   10  H   UNL     1       3.029  27.085  52.784  1.00  0.00     0.162 HD
BRANCH   9  11
HETATM   11  C   UNL     1       4.178  28.517  53.827  1.00  0.00     0.160 C 
BRANCH  11  12
HETATM   12  C   UNL     1       5.294  27.880  54.623  1.00  0.00    -0.040 A 
HETATM   13  C   UNL     1       6.622  28.332  54.580  1.00  0.00     0.010 A 
HETATM   14  C   UNL     1       7.604  27.747  55.385  1.00  0.00     0.024 A 
HETATM   15  C   UNL     1       7.269  26.705  56.243  1.00  0.00     0.034 A 
HETATM   16  C   UNL     1       5.957  26.245  56.308  1.00  0.00     0.024 A 
HETATM   17 CL   UNL     1       8.477  25.989  57.237  1.00  0.00    -0.084 Cl
HETATM   18  C   UNL     1       4.975  26.832  55.506  1.00  0.00     0.010 A 
ENDBRANCH  11  12
ENDBRANCH   9  11
ENDBRANCH   7   9
ENDBRANCH   5   7
ENDBRANCH   1   5
BRANCH   2  19
HETATM   19  C   UNL     1       7.518  24.878  52.049  1.00  0.00     0.109 C 
BRANCH  19  20
HETATM   20  C   UNL     1       7.882  24.619  53.513  1.00  0.00     0.048 C 
BRANCH  20  21
HETATM   21  C   UNL     1       8.122  23.175  53.903  1.00  0.00    -0.055 A 
HETATM   22  C   UNL     1       8.286  22.775  55.239  1.00  0.00     0.046 A 
HETATM   23  C   UNL     1       8.548  21.440  55.536  1.00  0.00     0.099 A 
HETATM   24  C   UNL     1       8.606  20.490  54.522  1.00  0.00     0.098 A 
HETATM   25  C   UNL     1       8.409  20.855  53.201  1.00  0.00     0.040 A 
HETATM   26  C   UNL     1       8.165  22.195  52.893  1.00  0.00     0.010 A 
BRANCH  23  27
HETATM   27  O   UNL     1       8.771  21.018  56.819  1.00  0.00    -0.358 OA
HETATM   28  H   UNL     1       8.348  21.658  57.419  1.00  0.00     0.218 HD
ENDBRANCH  23  27
BRANCH  24  29
HETATM   29  O   UNL     1       8.868  19.185  54.825  1.00  0.00    -0.358 OA
HETATM   30  H   UNL     1       9.106  18.781  53.966  1.00  0.00     0.218 HD
ENDBRANCH  24  29
ENDBRANCH  20  21
ENDBRANCH  19  20
ENDBRANCH   2  19
TORSDOF 10
ENDMDL
MODEL 6
REMARK VINA RESULT:      -8.1      4.058      4.803
REMARK  10 active torsions:
REMARK  status: ('A' for Active; 'I' for Inactive)
REMARK    1  A    between atoms: C_2  and  C_3 
REMARK    2  A    between atoms: C_3  and  N_4 
REMARK    3  A    between atoms: N_4  and  C_5 
REMARK    4  A    between atoms: C_5  and  N_6 
REMARK    5  A    between atoms: N_6  and  N_7 
REMARK       I    between atoms: N_7  and  C_8 
REMARK    6  A    between atoms: C_8  and  C_9 
REMARK    7  A    between atoms: C_9  and  C_10 
REMARK    8  A    between atoms: C_10  and  C_11 
REMARK    9  A    between atoms: C_13  and  O_14 
REMARK   10  A    between atoms: C_15  and  O_16 
ROOT
HETATM    1  N   UNL     1       5.745  26.966  55.697  1.00  0.00    -0.268 N 
HETATM    2  C   UNL     1       5.854  25.591  55.774  1.00  0.00     0.236 C 
HETATM    3  O   UNL     1       5.925  24.979  56.840  1.00  0.00    -0.272 OA
HETATM    4  H   UNL     1       5.345  27.418  54.879  1.00  0.00     0.190 HD
ENDROOT
BRANCH   1   5
HETATM    5  N   UNL     1       5.633  27.666  56.913  1.00  0.00    -0.274 N 
HETATM    6  H   UNL     1       4.712  28.083  57.033  1.00  0.00     0.189 HD
BRANCH   5   7
HETATM    7  C   UNL     1       6.701  28.390  57.388  1.00  0.00     0.186 C 
HETATM    8  S   UNL     1       8.309  27.960  57.227  1.00  0.00    -0.040 SA
BRANCH   7   9
HETATM    9  N   UNL     1       6.397  29.530  58.072  1.00  0.00    -0.362 N 
HETATM   10  H   UNL     1       5.502  29.513  58.547  1.00  0.00     0.162 HD
BRANCH   9  11
HETATM   11  C   UNL     1       7.130  30.783  58.104  1.00  0.00     0.160 C 
BRANCH  11  12
HETATM   12  C   UNL     1       7.367  31.340  59.489  1.00  0.00    -0.040 A 
HETATM   13  C   UNL     1       6.586  32.363  60.048  1.00  0.00     0.010 A 
HETATM   14  C   UNL     1       6.807  32.798  61.358  1.00  0.00     0.024 A 
HETATM   15  C   UNL     1       7.810  32.213  62.125  1.00  0.00     0.034 A 
HETATM   16  C   UNL     1       8.592  31.193  61.593  1.00  0.00     0.024 A 
HETATM   17 CL   UNL     1       8.078  32.746  63.738  1.00  0.00    -0.084 Cl
HETATM   18  C   UNL     1       8.368  30.755  60.285  1.00  0.00     0.010 A 
ENDBRANCH  11  12
ENDBRANCH   9  11
ENDBRANCH   7   9
ENDBRANCH   5   7
ENDBRANCH   1   5
BRANCH   2  19
HETATM   19  C   UNL     1       5.929  24.890  54.437  1.00  0.00     0.109 C 
BRANCH  19  20
HETATM   20  C   UNL     1       7.369  24.598  54.009  1.00  0.00     0.048 C 
BRANCH  20  21
HETATM   21  C   UNL     1       7.846  23.169  54.179  1.00  0.00    -0.055 A 
HETATM   22  C   UNL     1       7.809  22.236  53.129  1.00  0.00     0.046 A 
HETATM   23  C   UNL     1       8.219  20.925  53.354  1.00  0.00     0.099 A 
HETATM   24  C   UNL     1       8.706  20.541  54.599  1.00  0.00     0.098 A 
HETATM   25  C   UNL     1       8.787  21.453  55.637  1.00  0.00     0.040 A 
HETATM   26  C   UNL     1       8.359  22.766  55.426  1.00  0.00     0.010 A 
BRANCH  23  27
HETATM   27  O   UNL     1       8.146  19.970  52.376  1.00  0.00    -0.358 OA
HETATM   28  H   UNL     1       8.959  19.437  52.421  1.00  0.00     0.218 HD
ENDBRANCH  23  27
BRANCH  24  29
HETATM   29  O   UNL     1       9.100  19.251  54.809  1.00  0.00    -0.358 OA
HETATM   30  H   UNL     1       9.379  19.233  55.746  1.00  0.00     0.218 HD
ENDBRANCH  24  29
ENDBRANCH  20  21
ENDBRANCH  19  20
ENDBRANCH   2  19
TORSDOF 10
ENDMDL
MODEL 7
REMARK VINA RESULT:      -8.1      3.639      6.863
REMARK  10 active torsions:
REMARK  status: ('A' for Active; 'I' for Inactive)
REMARK    1  A    between atoms: C_2  and  C_3 
REMARK    2  A    between atoms: C_3  and  N_4 
REMARK    3  A    between atoms: N_4  and  C_5 
REMARK    4  A    between atoms: C_5  and  N_6 
REMARK    5  A    between atoms: N_6  and  N_7 
REMARK       I    between atoms: N_7  and  C_8 
REMARK    6  A    between atoms: C_8  and  C_9 
REMARK    7  A    between atoms: C_9  and  C_10 
REMARK    8  A    between atoms: C_10  and  C_11 
REMARK    9  A    between atoms: C_13  and  O_14 
REMARK   10  A    between atoms: C_15  and  O_16 
ROOT
HETATM    1  N   UNL     1       6.135  26.671  55.344  1.00  0.00    -0.268 N 
HETATM    2  C   UNL     1       5.994  26.258  56.654  1.00  0.00     0.236 C 
HETATM    3  O   UNL     1       4.975  25.719  57.087  1.00  0.00    -0.272 OA
HETATM    4  H   UNL     1       7.053  26.779  54.920  1.00  0.00     0.190 HD
ENDROOT
BRANCH   1   5
HETATM    5  N   UNL     1       5.074  26.377  54.465  1.00  0.00    -0.274 N 
HETATM    6  H   UNL     1       4.395  25.742  54.882  1.00  0.00     0.189 HD
BRANCH   5   7
HETATM    7  C   UNL     1       5.319  26.217  53.122  1.00  0.00     0.186 C 
HETATM    8  S   UNL     1       5.054  27.377  51.946  1.00  0.00    -0.040 SA
BRANCH   7   9
HETATM    9  N   UNL     1       5.785  24.995  52.738  1.00  0.00    -0.362 N 
HETATM   10  H   UNL     1       5.081  24.267  52.694  1.00  0.00     0.162 HD
BRANCH   9  11
HETATM   11  C   UNL     1       7.159  24.587  52.504  1.00  0.00     0.160 C 
BRANCH  11  12
HETATM   12  C   UNL     1       7.657  23.495  53.421  1.00  0.00    -0.040 A 
HETATM   13  C   UNL     1       7.790  22.157  53.019  1.00  0.00     0.010 A 
HETATM   14  C   UNL     1       8.317  21.196  53.888  1.00  0.00     0.024 A 
HETATM   15  C   UNL     1       8.718  21.564  55.168  1.00  0.00     0.034 A 
HETATM   16  C   UNL     1       8.602  22.885  55.587  1.00  0.00     0.024 A 
HETATM   17 CL   UNL     1       9.371  20.382  56.235  1.00  0.00    -0.084 Cl
HETATM   18  C   UNL     1       8.080  23.846  54.716  1.00  0.00     0.010 A 
ENDBRANCH  11  12
ENDBRANCH   9  11
ENDBRANCH   7   9
ENDBRANCH   5   7
ENDBRANCH   1   5
BRANCH   2  19
HETATM   19  C   UNL     1       7.180  26.563  57.541  1.00  0.00     0.109 C 
BRANCH  19  20
HETATM   20  C   UNL     1       8.313  27.261  56.783  1.00  0.00     0.048 C 
BRANCH  20  21
HETATM   21  C   UNL     1       8.777  28.590  57.342  1.00  0.00    -0.055 A 
HETATM   22  C   UNL     1       8.018  29.320  58.272  1.00  0.00     0.046 A 
HETATM   23  C   UNL     1       8.473  30.558  58.718  1.00  0.00     0.099 A 
HETATM   24  C   UNL     1       9.695  31.060  58.284  1.00  0.00     0.098 A 
HETATM   25  C   UNL     1      10.477  30.340  57.397  1.00  0.00     0.040 A 
HETATM   26  C   UNL     1      10.020  29.107  56.928  1.00  0.00     0.010 A 
BRANCH  23  27
HETATM   27  O   UNL     1       7.738  31.326  59.580  1.00  0.00    -0.358 OA
HETATM   28  H   UNL     1       6.840  30.953  59.619  1.00  0.00     0.218 HD
ENDBRANCH  23  27
BRANCH  24  29
HETATM   29  O   UNL     1      10.127  32.277  58.725  1.00  0.00    -0.358 OA
HETATM   30  H   UNL     1      10.525  32.692  57.933  1.00  0.00     0.218 HD
ENDBRANCH  24  29
ENDBRANCH  20  21
ENDBRANCH  19  20
ENDBRANCH   2  19
TORSDOF 10
ENDMDL
MODEL 8
REMARK VINA RESULT:      -7.7      4.266      6.214
REMARK  10 active torsions:
REMARK  status: ('A' for Active; 'I' for Inactive)
REMARK    1  A    between atoms: C_2  and  C_3 
REMARK    2  A    between atoms: C_3  and  N_4 
REMARK    3  A    between atoms: N_4  and  C_5 
REMARK    4  A    between atoms: C_5  and  N_6 
REMARK    5  A    between atoms: N_6  and  N_7 
REMARK       I    between atoms: N_7  and  C_8 
REMARK    6  A    between atoms: C_8  and  C_9 
REMARK    7  A    between atoms: C_9  and  C_10 
REMARK    8  A    between atoms: C_10  and  C_11 
REMARK    9  A    between atoms: C_13  and  O_14 
REMARK   10  A    between atoms: C_15  and  O_16 
ROOT
HETATM    1  N   UNL     1       5.915  26.017  54.101  1.00  0.00    -0.268 N 
HETATM    2  C   UNL     1       6.256  25.992  55.439  1.00  0.00     0.236 C 
HETATM    3  O   UNL     1       5.588  26.539  56.316  1.00  0.00    -0.272 OA
HETATM    4  H   UNL     1       6.248  25.303  53.457  1.00  0.00     0.190 HD
ENDROOT
BRANCH   1   5
HETATM    5  N   UNL     1       4.698  26.640  53.764  1.00  0.00    -0.274 N 
HETATM    6  H   UNL     1       3.892  26.073  54.023  1.00  0.00     0.189 HD
BRANCH   5   7
HETATM    7  C   UNL     1       4.594  27.357  52.596  1.00  0.00     0.186 C 
HETATM    8  S   UNL     1       4.693  29.022  52.471  1.00  0.00    -0.040 SA
BRANCH   7   9
HETATM    9  N   UNL     1       4.358  26.632  51.466  1.00  0.00    -0.362 N 
HETATM   10  H   UNL     1       3.833  25.778  51.611  1.00  0.00     0.162 HD
BRANCH   9  11
HETATM   11  C   UNL     1       4.859  26.869  50.123  1.00  0.00     0.160 C 
BRANCH  11  12
HETATM   12  C   UNL     1       3.790  26.962  49.059  1.00  0.00    -0.040 A 
HETATM   13  C   UNL     1       3.662  26.030  48.017  1.00  0.00     0.010 A 
HETATM   14  C   UNL     1       2.615  26.127  47.095  1.00  0.00     0.024 A 
HETATM   15  C   UNL     1       1.685  27.155  47.204  1.00  0.00     0.034 A 
HETATM   16  C   UNL     1       1.788  28.086  48.232  1.00  0.00     0.024 A 
HETATM   17 CL   UNL     1       0.396  27.269  46.072  1.00  0.00    -0.084 Cl
HETATM   18  C   UNL     1       2.832  27.987  49.157  1.00  0.00     0.010 A 
ENDBRANCH  11  12
ENDBRANCH   9  11
ENDBRANCH   7   9
ENDBRANCH   5   7
ENDBRANCH   1   5
BRANCH   2  19
HETATM   19  C   UNL     1       7.551  25.274  55.745  1.00  0.00     0.109 C 
BRANCH  19  20
HETATM   20  C   UNL     1       7.325  23.849  56.254  1.00  0.00     0.048 C 
BRANCH  20  21
HETATM   21  C   UNL     1       7.635  22.729  55.281  1.00  0.00    -0.055 A 
HETATM   22  C   UNL     1       8.073  21.464  55.707  1.00  0.00     0.046 A 
HETATM   23  C   UNL     1       8.385  20.487  54.767  1.00  0.00     0.099 A 
HETATM   24  C   UNL     1       8.226  20.737  53.408  1.00  0.00     0.098 A 
HETATM   25  C   UNL     1       7.759  21.963  52.967  1.00  0.00     0.040 A 
HETATM   26  C   UNL     1       7.462  22.957  53.903  1.00  0.00     0.010 A 
BRANCH  23  27
HETATM   27  O   UNL     1       8.870  19.261  55.137  1.00  0.00    -0.358 OA
HETATM   28  H   UNL     1       8.527  18.604  54.506  1.00  0.00     0.218 HD
ENDBRANCH  23  27
BRANCH  24  29
HETATM   29  O   UNL     1       8.541  19.772  52.496  1.00  0.00    -0.358 OA
HETATM   30  H   UNL     1       8.338  18.931  52.954  1.00  0.00     0.218 HD
ENDBRANCH  24  29
ENDBRANCH  20  21
ENDBRANCH  19  20
ENDBRANCH   2  19
TORSDOF 10
ENDMDL
MODEL 9
REMARK VINA RESULT:      -7.6      5.196      8.381
REMARK  10 active torsions:
REMARK  status: ('A' for Active; 'I' for Inactive)
REMARK    1  A    between atoms: C_2  and  C_3 
REMARK    2  A    between atoms: C_3  and  N_4 
REMARK    3  A    between atoms: N_4  and  C_5 
REMARK    4  A    between atoms: C_5  and  N_6 
REMARK    5  A    between atoms: N_6  and  N_7 
REMARK       I    between atoms: N_7  and  C_8 
REMARK    6  A    between atoms: C_8  and  C_9 
REMARK    7  A    between atoms: C_9  and  C_10 
REMARK    8  A    between atoms: C_10  and  C_11 
REMARK    9  A    between atoms: C_13  and  O_14 
REMARK   10  A    between atoms: C_15  and  O_16 
ROOT
HETATM    1  N   UNL     1       7.675  29.349  56.350  1.00  0.00    -0.268 N 
HETATM    2  C   UNL     1       8.326  28.925  57.492  1.00  0.00     0.236 C 
HETATM    3  O   UNL     1       7.889  28.042  58.230  1.00  0.00    -0.272 OA
HETATM    4  H   UNL     1       8.180  29.796  55.590  1.00  0.00     0.190 HD
ENDROOT
BRANCH   1   5
HETATM    5  N   UNL     1       6.496  28.664  55.998  1.00  0.00    -0.274 N 
HETATM    6  H   UNL     1       5.897  28.490  56.804  1.00  0.00     0.189 HD
BRANCH   5   7
HETATM    7  C   UNL     1       6.534  27.681  55.038  1.00  0.00     0.186 C 
HETATM    8  S   UNL     1       6.562  27.943  53.386  1.00  0.00    -0.040 SA
BRANCH   7   9
HETATM    9  N   UNL     1       6.511  26.396  55.494  1.00  0.00    -0.362 N 
HETATM   10  H   UNL     1       5.584  26.007  55.620  1.00  0.00     0.162 HD
BRANCH   9  11
HETATM   11  C   UNL     1       7.628  25.575  55.926  1.00  0.00     0.160 C 
BRANCH  11  12
HETATM   12  C   UNL     1       7.770  24.264  55.187  1.00  0.00    -0.040 A 
HETATM   13  C   UNL     1       7.758  23.016  55.829  1.00  0.00     0.010 A 
HETATM   14  C   UNL     1       7.829  21.830  55.091  1.00  0.00     0.024 A 
HETATM   15  C   UNL     1       7.910  21.879  53.703  1.00  0.00     0.034 A 
HETATM   16  C   UNL     1       7.916  23.105  53.045  1.00  0.00     0.024 A 
HETATM   17 CL   UNL     1       7.992  20.420  52.797  1.00  0.00    -0.084 Cl
HETATM   18  C   UNL     1       7.841  24.290  53.782  1.00  0.00     0.010 A 
ENDBRANCH  11  12
ENDBRANCH   9  11
ENDBRANCH   7   9
ENDBRANCH   5   7
ENDBRANCH   1   5
BRANCH   2  19
HETATM   19  C   UNL     1       9.606  29.668  57.798  1.00  0.00     0.109 C 
BRANCH  19  20
HETATM   20  C   UNL     1       9.356  31.116  58.224  1.00  0.00     0.048 C 
BRANCH  20  21
HETATM   21  C   UNL     1       8.994  31.338  59.679  1.00  0.00    -0.055 A 
HETATM   22  C   UNL     1       9.219  30.362  60.665  1.00  0.00     0.046 A 
HETATM   23  C   UNL     1       8.826  30.603  61.979  1.00  0.00     0.099 A 
HETATM   24  C   UNL     1       8.251  31.818  62.333  1.00  0.00     0.098 A 
HETATM   25  C   UNL     1       8.056  32.808  61.385  1.00  0.00     0.040 A 
HETATM   26  C   UNL     1       8.428  32.569  60.061  1.00  0.00     0.010 A 
BRANCH  23  27
HETATM   27  O   UNL     1       8.975  29.658  62.958  1.00  0.00    -0.358 OA
HETATM   28  H   UNL     1       8.778  28.790  62.565  1.00  0.00     0.218 HD
ENDBRANCH  23  27
BRANCH  24  29
HETATM   29  O   UNL     1       7.866  32.040  63.623  1.00  0.00    -0.358 OA
HETATM   30  H   UNL     1       8.707  32.157  64.109  1.00  0.00     0.218 HD
ENDBRANCH  24  29
ENDBRANCH  20  21
ENDBRANCH  19  20
ENDBRANCH   2  19
TORSDOF 10
ENDMDL
MODEL 10
REMARK VINA RESULT:      -7.5      7.155     10.500
REMARK  10 active torsions:
REMARK  status: ('A' for Active; 'I' for Inactive)
REMARK    1  A    between atoms: C_2  and  C_3 
REMARK    2  A    between atoms: C_3  and  N_4 
REMARK    3  A    between atoms: N_4  and  C_5 
REMARK    4  A    between atoms: C_5  and  N_6 
REMARK    5  A    between atoms: N_6  and  N_7 
REMARK       I    between atoms: N_7  and  C_8 
REMARK    6  A    between atoms: C_8  and  C_9 
REMARK    7  A    between atoms: C_9  and  C_10 
REMARK    8  A    between atoms: C_10  and  C_11 
REMARK    9  A    between atoms: C_13  and  O_14 
REMARK   10  A    between atoms: C_15  and  O_16 
ROOT
HETATM    1  N   UNL     1       7.037  30.018  58.636  1.00  0.00    -0.268 N 
HETATM    2  C   UNL     1       7.943  30.528  59.545  1.00  0.00     0.236 C 
HETATM    3  O   UNL     1       9.029  30.002  59.783  1.00  0.00    -0.272 OA
HETATM    4  H   UNL     1       6.338  30.611  58.197  1.00  0.00     0.190 HD
ENDROOT
BRANCH   1   5
HETATM    5  N   UNL     1       7.438  28.883  57.906  1.00  0.00    -0.274 N 
HETATM    6  H   UNL     1       8.409  28.944  57.603  1.00  0.00     0.189 HD
BRANCH   5   7
HETATM    7  C   UNL     1       6.561  28.283  57.034  1.00  0.00     0.186 C 
HETATM    8  S   UNL     1       5.011  28.818  56.700  1.00  0.00    -0.040 SA
BRANCH   7   9
HETATM    9  N   UNL     1       7.000  27.142  56.430  1.00  0.00    -0.362 N 
HETATM   10  H   UNL     1       7.181  26.371  57.062  1.00  0.00     0.162 HD
BRANCH   9  11
HETATM   11  C   UNL     1       7.346  26.937  55.035  1.00  0.00     0.160 C 
BRANCH  11  12
HETATM   12  C   UNL     1       7.483  25.489  54.625  1.00  0.00    -0.040 A 
HETATM   13  C   UNL     1       7.251  24.419  55.502  1.00  0.00     0.010 A 
HETATM   14  C   UNL     1       7.329  23.096  55.055  1.00  0.00     0.024 A 
HETATM   15  C   UNL     1       7.638  22.830  53.725  1.00  0.00     0.034 A 
HETATM   16  C   UNL     1       7.865  23.875  52.836  1.00  0.00     0.024 A 
HETATM   17 CL   UNL     1       7.729  21.202  53.175  1.00  0.00    -0.084 Cl
HETATM   18  C   UNL     1       7.783  25.197  53.282  1.00  0.00     0.010 A 
ENDBRANCH  11  12
ENDBRANCH   9  11
ENDBRANCH   7   9
ENDBRANCH   5   7
ENDBRANCH   1   5
BRANCH   2  19
HETATM   19  C   UNL     1       7.475  31.770  60.269  1.00  0.00     0.109 C 
BRANCH  19  20
HETATM   20  C   UNL     1       8.011  31.850  61.701  1.00  0.00     0.048 C 
BRANCH  20  21
HETATM   21  C   UNL     1       7.382  32.896  62.598  1.00  0.00    -0.055 A 
HETATM   22  C   UNL     1       7.695  33.001  63.964  1.00  0.00     0.046 A 
HETATM   23  C   UNL     1       7.053  33.953  64.750  1.00  0.00     0.099 A 
HETATM   24  C   UNL     1       6.134  34.831  64.187  1.00  0.00     0.098 A 
HETATM   25  C   UNL     1       5.838  34.771  62.836  1.00  0.00     0.040 A 
HETATM   26  C   UNL     1       6.462  33.806  62.043  1.00  0.00     0.010 A 
BRANCH  23  27
HETATM   27  O   UNL     1       7.287  34.051  66.096  1.00  0.00    -0.358 OA
HETATM   28  H   UNL     1       7.626  33.192  66.401  1.00  0.00     0.218 HD
ENDBRANCH  23  27
BRANCH  24  29
HETATM   29  O   UNL     1       5.507  35.757  64.970  1.00  0.00    -0.358 OA
HETATM   30  H   UNL     1       4.657  35.335  65.209  1.00  0.00     0.218 HD
ENDBRANCH  24  29
ENDBRANCH  20  21
ENDBRANCH  19  20
ENDBRANCH   2  19
TORSDOF 10
ENDMDL
