MODEL 1
REMARK VINA RESULT:     -10.7      0.000      0.000
REMARK  8 active torsions:
REMARK  status: ('A' for Active; 'I' for Inactive)
REMARK    1  A    between atoms: C_2  and  O_3 
REMARK    2  A    between atoms: O_3  and  C_4 
REMARK    3  A    between atoms: C_4  and  C_5 
REMARK    4  A    between atoms: C_6  and  N_7 
REMARK       I    between atoms: N_7  and  C_8 
REMARK    5  A    between atoms: C_8  and  C_9 
REMARK    6  A    between atoms: C_9  and  S_10 
REMARK    7  A    between atoms: S_10  and  C_11 
REMARK    8  A    between atoms: N_18  and  C_19 
ROOT
HETATM    1  C   UNL     1       6.024  28.391  55.537  1.00  0.00     0.185 C 
ENDROOT
BRANCH   1   2
HETATM    2  C   UNL     1       5.912  26.927  55.142  1.00  0.00     0.232 C 
HETATM    3  N   UNL     1       7.140  26.280  55.122  1.00  0.00    -0.320 N 
HETATM    4  H   UNL     1       7.985  26.842  55.221  1.00  0.00     0.169 HD
HETATM    5  O   UNL     1       4.812  26.431  54.914  1.00  0.00    -0.272 OA
BRANCH   3   6
HETATM    6  C   UNL     1       7.368  24.914  54.996  1.00  0.00     0.094 A 
HETATM    7  C   UNL     1       7.454  24.200  53.803  1.00  0.00     0.080 A 
HETATM    8  C   UNL     1       7.724  22.795  54.062  1.00  0.00    -0.026 A 
HETATM    9  C   UNL     1       7.885  22.556  55.415  1.00  0.00    -0.008 A 
HETATM   10  C   UNL     1       7.910  21.692  53.054  1.00  0.00     0.041 C 
HETATM   11  S   UNL     1       7.629  23.937  56.358  1.00  0.00    -0.075 SA
HETATM   12  C   UNL     1       8.235  21.239  56.033  1.00  0.00     0.047 C 
HETATM   13  C   UNL     1       8.832  20.301  54.977  1.00  0.00     0.005 C 
HETATM   14  C   UNL     1       7.984  20.299  53.700  1.00  0.00     0.005 C 
BRANCH   7  15
HETATM   15  C   UNL     1       7.314  24.862  52.500  1.00  0.00     0.296 C 
HETATM   16  O   UNL     1       8.279  25.160  51.804  1.00  0.00    -0.259 OA
BRANCH  15  17
HETATM   17  O   UNL     1       6.018  25.090  52.151  1.00  0.00    -0.318 OA
BRANCH  17  18
HETATM   18  C   UNL     1       5.817  25.956  51.027  1.00  0.00     0.174 C 
HETATM   19  C   UNL     1       5.415  27.319  51.557  1.00  0.00     0.034 C 
ENDBRANCH  17  18
ENDBRANCH  15  17
ENDBRANCH   7  15
ENDBRANCH   3   6
ENDBRANCH   1   2
BRANCH   1  20
HETATM   20  S   UNL     1       5.717  28.603  57.315  1.00  0.00    -0.083 SA
BRANCH  20  21
HETATM   21  C   UNL     1       7.164  29.455  57.730  1.00  0.00     0.171 A 
HETATM   22  N   UNL     1       7.199  30.298  58.716  1.00  0.00    -0.204 NA
HETATM   23  C   UNL     1       8.415  30.899  58.862  1.00  0.00     0.171 A 
HETATM   24  C   UNL     1       9.508  30.714  58.046  1.00  0.00     0.099 A 
HETATM   25  N   UNL     1       8.804  31.828  59.824  1.00  0.00    -0.215 N 
HETATM   26  C   UNL     1       9.438  29.765  56.974  1.00  0.00     0.263 A 
HETATM   27  C   UNL     1      10.479  31.604  58.497  1.00  0.00     0.160 A 
HETATM   28  O   UNL     1      10.355  29.532  56.198  1.00  0.00    -0.267 OA
HETATM   29  N   UNL     1       8.209  29.148  56.896  1.00  0.00    -0.301 N 
HETATM   30  H   UNL     1       8.075  28.469  56.163  1.00  0.00     0.171 HD
HETATM   31  N   UNL     1      10.054  32.319  59.541  1.00  0.00    -0.177 NA
BRANCH  25  32
HETATM   32  C   UNL     1       8.117  32.268  60.993  1.00  0.00     0.060 A 
HETATM   33  C   UNL     1       6.925  33.005  60.913  1.00  0.00     0.034 A 
HETATM   34  C   UNL     1       6.257  33.384  62.081  1.00  0.00     0.044 A 
HETATM   35  C   UNL     1       6.780  33.037  63.321  1.00  0.00     0.116 A 
HETATM   36  F   UNL     1       6.142  33.414  64.436  1.00  0.00    -0.206 F 
HETATM   37  C   UNL     1       7.960  32.311  63.420  1.00  0.00     0.044 A 
HETATM   38  C   UNL     1       8.626  31.918  62.257  1.00  0.00     0.034 A 
ENDBRANCH  25  32
ENDBRANCH  20  21
ENDBRANCH   1  20
TORSDOF 8
ENDMDL
MODEL 2
REMARK VINA RESULT:     -10.3      3.791     10.607
REMARK  8 active torsions:
REMARK  status: ('A' for Active; 'I' for Inactive)
REMARK    1  A    between atoms: C_2  and  O_3 
REMARK    2  A    between atoms: O_3  and  C_4 
REMARK    3  A    between atoms: C_4  and  C_5 
REMARK    4  A    between atoms: C_6  and  N_7 
REMARK       I    between atoms: N_7  and  C_8 
REMARK    5  A    between atoms: C_8  and  C_9 
REMARK    6  A    between atoms: C_9  and  S_10 
REMARK    7  A    between atoms: S_10  and  C_11 
REMARK    8  A    between atoms: N_18  and  C_19 
ROOT
HETATM    1  C   UNL     1       8.603  29.014  57.924  1.00  0.00     0.185 C 
ENDROOT
BRANCH   1   2
HETATM    2  C   UNL     1       8.620  30.306  58.726  1.00  0.00     0.232 C 
HETATM    3  N   UNL     1       7.584  30.380  59.646  1.00  0.00    -0.320 N 
HETATM    4  H   UNL     1       6.850  29.672  59.608  1.00  0.00     0.169 HD
HETATM    5  O   UNL     1       9.510  31.133  58.547  1.00  0.00    -0.272 OA
BRANCH   3   6
HETATM    6  C   UNL     1       7.424  31.321  60.657  1.00  0.00     0.094 A 
HETATM    7  C   UNL     1       6.514  32.376  60.665  1.00  0.00     0.080 A 
HETATM    8  C   UNL     1       6.620  33.138  61.899  1.00  0.00    -0.026 A 
HETATM    9  C   UNL     1       7.548  32.578  62.757  1.00  0.00    -0.008 A 
HETATM   10  C   UNL     1       5.807  34.337  62.313  1.00  0.00     0.041 C 
HETATM   11  S   UNL     1       8.340  31.244  62.083  1.00  0.00    -0.075 SA
HETATM   12  C   UNL     1       7.866  33.063  64.136  1.00  0.00     0.047 C 
HETATM   13  C   UNL     1       6.738  33.964  64.654  1.00  0.00     0.005 C 
HETATM   14  C   UNL     1       6.332  34.998  63.598  1.00  0.00     0.005 C 
BRANCH   7  15
HETATM   15  C   UNL     1       5.584  32.595  59.551  1.00  0.00     0.296 C 
HETATM   16  O   UNL     1       5.962  32.928  58.431  1.00  0.00    -0.259 OA
BRANCH  15  17
HETATM   17  O   UNL     1       4.284  32.379  59.887  1.00  0.00    -0.318 OA
BRANCH  17  18
HETATM   18  C   UNL     1       3.339  33.329  59.378  1.00  0.00     0.174 C 
HETATM   19  C   UNL     1       2.621  33.949  60.561  1.00  0.00     0.034 C 
ENDBRANCH  17  18
ENDBRANCH  15  17
ENDBRANCH   7  15
ENDBRANCH   3   6
ENDBRANCH   1   2
BRANCH   1  20
HETATM   20  S   UNL     1       9.032  29.330  56.186  1.00  0.00    -0.083 SA
BRANCH  20  21
HETATM   21  C   UNL     1       7.632  28.640  55.442  1.00  0.00     0.171 A 
HETATM   22  N   UNL     1       7.623  27.418  55.008  1.00  0.00    -0.204 NA
HETATM   23  C   UNL     1       6.444  27.069  54.418  1.00  0.00     0.171 A 
HETATM   24  C   UNL     1       5.364  27.899  54.222  1.00  0.00     0.099 A 
HETATM   25  N   UNL     1       6.089  25.838  53.870  1.00  0.00    -0.215 N 
HETATM   26  C   UNL     1       5.403  29.240  54.727  1.00  0.00     0.263 A 
HETATM   27  C   UNL     1       4.439  27.161  53.489  1.00  0.00     0.160 A 
HETATM   28  O   UNL     1       4.493  30.050  54.603  1.00  0.00    -0.267 OA
HETATM   29  N   UNL     1       6.591  29.531  55.358  1.00  0.00    -0.301 N 
HETATM   30  H   UNL     1       6.703  30.459  55.736  1.00  0.00     0.171 HD
HETATM   31  N   UNL     1       4.880  25.928  53.226  1.00  0.00    -0.177 NA
BRANCH  25  32
HETATM   32  C   UNL     1       6.771  24.587  53.926  1.00  0.00     0.060 A 
HETATM   33  C   UNL     1       7.376  24.027  52.791  1.00  0.00     0.034 A 
HETATM   34  C   UNL     1       8.072  22.818  52.892  1.00  0.00     0.044 A 
HETATM   35  C   UNL     1       8.154  22.170  54.118  1.00  0.00     0.116 A 
HETATM   36  F   UNL     1       8.812  21.006  54.206  1.00  0.00    -0.206 F 
HETATM   37  C   UNL     1       7.559  22.706  55.252  1.00  0.00     0.044 A 
HETATM   38  C   UNL     1       6.873  23.919  55.160  1.00  0.00     0.034 A 
ENDBRANCH  25  32
ENDBRANCH  20  21
ENDBRANCH   1  20
TORSDOF 8
ENDMDL
MODEL 3
REMARK VINA RESULT:     -10.3      2.091      2.690
REMARK  8 active torsions:
REMARK  status: ('A' for Active; 'I' for Inactive)
REMARK    1  A    between atoms: C_2  and  O_3 
REMARK    2  A    between atoms: O_3  and  C_4 
REMARK    3  A    between atoms: C_4  and  C_5 
REMARK    4  A    between atoms: C_6  and  N_7 
REMARK       I    between atoms: N_7  and  C_8 
REMARK    5  A    between atoms: C_8  and  C_9 
REMARK    6  A    between atoms: C_9  and  S_10 
REMARK    7  A    between atoms: S_10  and  C_11 
REMARK    8  A    between atoms: N_18  and  C_19 
ROOT
HETATM    1  C   UNL     1       7.184  27.550  57.738  1.00  0.00     0.185 C 
ENDROOT
BRANCH   1   2
HETATM    2  C   UNL     1       6.829  26.230  57.073  1.00  0.00     0.232 C 
HETATM    3  N   UNL     1       7.882  25.693  56.346  1.00  0.00    -0.320 N 
HETATM    4  H   UNL     1       8.712  26.268  56.200  1.00  0.00     0.169 HD
HETATM    5  O   UNL     1       5.717  25.734  57.239  1.00  0.00    -0.272 OA
BRANCH   3   6
HETATM    6  C   UNL     1       7.955  24.423  55.786  1.00  0.00     0.094 A 
HETATM    7  C   UNL     1       7.768  24.101  54.443  1.00  0.00     0.080 A 
HETATM    8  C   UNL     1       7.945  22.674  54.226  1.00  0.00    -0.026 A 
HETATM    9  C   UNL     1       8.311  22.030  55.394  1.00  0.00    -0.008 A 
HETATM   10  C   UNL     1       7.851  21.923  52.924  1.00  0.00     0.041 C 
HETATM   11  S   UNL     1       8.350  23.068  56.728  1.00  0.00    -0.075 SA
HETATM   12  C   UNL     1       8.635  20.575  55.524  1.00  0.00     0.047 C 
HETATM   13  C   UNL     1       8.952  19.979  54.147  1.00  0.00     0.005 C 
HETATM   14  C   UNL     1       7.903  20.398  53.111  1.00  0.00     0.005 C 
BRANCH   7  15
HETATM   15  C   UNL     1       7.471  25.132  53.442  1.00  0.00     0.296 C 
HETATM   16  O   UNL     1       8.243  25.406  52.527  1.00  0.00    -0.259 OA
BRANCH  15  17
HETATM   17  O   UNL     1       6.263  25.729  53.628  1.00  0.00    -0.318 OA
BRANCH  17  18
HETATM   18  C   UNL     1       5.115  24.926  53.327  1.00  0.00     0.174 C 
HETATM   19  C   UNL     1       4.871  25.006  51.833  1.00  0.00     0.034 C 
ENDBRANCH  17  18
ENDBRANCH  15  17
ENDBRANCH   7  15
ENDBRANCH   3   6
ENDBRANCH   1   2
BRANCH   1  20
HETATM   20  S   UNL     1       7.836  28.729  56.518  1.00  0.00    -0.083 SA
BRANCH  20  21
HETATM   21  C   UNL     1       6.797  30.068  56.867  1.00  0.00     0.171 A 
HETATM   22  N   UNL     1       6.746  30.600  58.049  1.00  0.00    -0.204 NA
HETATM   23  C   UNL     1       5.841  31.617  58.138  1.00  0.00     0.171 A 
HETATM   24  C   UNL     1       5.001  32.038  57.132  1.00  0.00     0.099 A 
HETATM   25  N   UNL     1       5.550  32.414  59.243  1.00  0.00    -0.215 N 
HETATM   26  C   UNL     1       5.095  31.436  55.834  1.00  0.00     0.263 A 
HETATM   27  C   UNL     1       4.182  33.011  57.698  1.00  0.00     0.160 A 
HETATM   28  O   UNL     1       4.394  31.744  54.879  1.00  0.00    -0.267 OA
HETATM   29  N   UNL     1       6.055  30.451  55.779  1.00  0.00    -0.301 N 
HETATM   30  H   UNL     1       6.180  29.971  54.901  1.00  0.00     0.171 HD
HETATM   31  N   UNL     1       4.468  33.217  58.986  1.00  0.00    -0.177 NA
BRANCH  25  32
HETATM   32  C   UNL     1       6.218  32.504  60.499  1.00  0.00     0.060 A 
HETATM   33  C   UNL     1       5.517  32.747  61.690  1.00  0.00     0.034 A 
HETATM   34  C   UNL     1       6.199  32.788  62.910  1.00  0.00     0.044 A 
HETATM   35  C   UNL     1       7.575  32.597  62.938  1.00  0.00     0.116 A 
HETATM   36  F   UNL     1       8.226  32.649  64.107  1.00  0.00    -0.206 F 
HETATM   37  C   UNL     1       8.288  32.358  61.769  1.00  0.00     0.044 A 
HETATM   38  C   UNL     1       7.610  32.304  60.550  1.00  0.00     0.034 A 
ENDBRANCH  25  32
ENDBRANCH  20  21
ENDBRANCH   1  20
TORSDOF 8
ENDMDL
MODEL 4
REMARK VINA RESULT:      -9.9      1.877      4.451
REMARK  8 active torsions:
REMARK  status: ('A' for Active; 'I' for Inactive)
REMARK    1  A    between atoms: C_2  and  O_3 
REMARK    2  A    between atoms: O_3  and  C_4 
REMARK    3  A    between atoms: C_4  and  C_5 
REMARK    4  A    between atoms: C_6  and  N_7 
REMARK       I    between atoms: N_7  and  C_8 
REMARK    5  A    between atoms: C_8  and  C_9 
REMARK    6  A    between atoms: C_9  and  S_10 
REMARK    7  A    between atoms: S_10  and  C_11 
REMARK    8  A    between atoms: N_18  and  C_19 
ROOT
HETATM    1  C   UNL     1       5.667  28.182  56.396  1.00  0.00     0.185 C 
ENDROOT
BRANCH   1   2
HETATM    2  C   UNL     1       5.959  28.090  54.906  1.00  0.00     0.232 C 
HETATM    3  N   UNL     1       4.818  27.871  54.148  1.00  0.00    -0.320 N 
HETATM    4  H   UNL     1       3.948  27.652  54.633  1.00  0.00     0.169 HD
HETATM    5  O   UNL     1       7.105  28.241  54.491  1.00  0.00    -0.272 OA
BRANCH   3   6
HETATM    6  C   UNL     1       4.706  27.931  52.763  1.00  0.00     0.094 A 
HETATM    7  C   UNL     1       4.949  26.889  51.870  1.00  0.00     0.080 A 
HETATM    8  C   UNL     1       4.706  27.316  50.502  1.00  0.00    -0.026 A 
HETATM    9  C   UNL     1       4.241  28.618  50.457  1.00  0.00    -0.008 A 
HETATM   10  C   UNL     1       4.830  26.495  49.245  1.00  0.00     0.041 C 
HETATM   11  S   UNL     1       4.185  29.345  51.983  1.00  0.00    -0.075 SA
HETATM   12  C   UNL     1       3.830  29.356  49.222  1.00  0.00     0.047 C 
HETATM   13  C   UNL     1       3.557  28.369  48.081  1.00  0.00     0.005 C 
HETATM   14  C   UNL     1       4.684  27.336  47.967  1.00  0.00     0.005 C 
BRANCH   7  15
HETATM   15  C   UNL     1       5.357  25.559  52.337  1.00  0.00     0.296 C 
HETATM   16  O   UNL     1       4.627  24.845  53.018  1.00  0.00    -0.259 OA
BRANCH  15  17
HETATM   17  O   UNL     1       6.606  25.206  51.926  1.00  0.00    -0.318 OA
BRANCH  17  18
HETATM   18  C   UNL     1       7.541  24.891  52.965  1.00  0.00     0.174 C 
HETATM   19  C   UNL     1       7.888  23.419  52.847  1.00  0.00     0.034 C 
ENDBRANCH  17  18
ENDBRANCH  15  17
ENDBRANCH   7  15
ENDBRANCH   3   6
ENDBRANCH   1   2
BRANCH   1  20
HETATM   20  S   UNL     1       6.907  27.260  57.353  1.00  0.00    -0.083 SA
BRANCH  20  21
HETATM   21  C   UNL     1       7.982  28.566  57.713  1.00  0.00     0.171 A 
HETATM   22  N   UNL     1       7.694  29.458  58.609  1.00  0.00    -0.204 NA
HETATM   23  C   UNL     1       8.646  30.428  58.722  1.00  0.00     0.171 A 
HETATM   24  C   UNL     1       9.784  30.534  57.955  1.00  0.00     0.099 A 
HETATM   25  N   UNL     1       8.666  31.515  59.594  1.00  0.00    -0.215 N 
HETATM   26  C   UNL     1      10.078  29.522  56.983  1.00  0.00     0.263 A 
HETATM   27  C   UNL     1      10.396  31.725  58.336  1.00  0.00     0.160 A 
HETATM   28  O   UNL     1      11.063  29.529  56.257  1.00  0.00    -0.267 OA
HETATM   29  N   UNL     1       9.115  28.538  56.939  1.00  0.00    -0.301 N 
HETATM   30  H   UNL     1       9.243  27.790  56.275  1.00  0.00     0.171 HD
HETATM   31  N   UNL     1       9.710  32.355  59.293  1.00  0.00    -0.177 NA
BRANCH  25  32
HETATM   32  C   UNL     1       7.812  31.812  60.696  1.00  0.00     0.060 A 
HETATM   33  C   UNL     1       6.467  32.168  60.511  1.00  0.00     0.034 A 
HETATM   34  C   UNL     1       5.648  32.412  61.617  1.00  0.00     0.044 A 
HETATM   35  C   UNL     1       6.172  32.310  62.900  1.00  0.00     0.116 A 
HETATM   36  F   UNL     1       5.386  32.557  63.956  1.00  0.00    -0.206 F 
HETATM   37  C   UNL     1       7.501  31.963  63.104  1.00  0.00     0.044 A 
HETATM   38  C   UNL     1       8.322  31.705  62.004  1.00  0.00     0.034 A 
ENDBRANCH  25  32
ENDBRANCH  20  21
ENDBRANCH   1  20
TORSDOF 8
ENDMDL
MODEL 5
REMARK VINA RESULT:      -9.7      3.824     10.190
REMARK  8 active torsions:
REMARK  status: ('A' for Active; 'I' for Inactive)
REMARK    1  A    between atoms: C_2  and  O_3 
REMARK    2  A    between atoms: O_3  and  C_4 
REMARK    3  A    between atoms: C_4  and  C_5 
REMARK    4  A    between atoms: C_6  and  N_7 
REMARK       I    between atoms: N_7  and  C_8 
REMARK    5  A    between atoms: C_8  and  C_9 
REMARK    6  A    between atoms: C_9  and  S_10 
REMARK    7  A    between atoms: S_10  and  C_11 
REMARK    8  A    between atoms: N_18  and  C_19 
ROOT
HETATM    1  C   UNL     1       5.484  30.436  55.617  1.00  0.00     0.185 C 
ENDROOT
BRANCH   1   2
HETATM    2  C   UNL     1       5.845  30.316  57.089  1.00  0.00     0.232 C 
HETATM    3  N   UNL     1       6.311  31.507  57.627  1.00  0.00    -0.320 N 
HETATM    4  H   UNL     1       6.506  32.282  56.993  1.00  0.00     0.169 HD
HETATM    5  O   UNL     1       5.680  29.252  57.681  1.00  0.00    -0.272 OA
BRANCH   3   6
HETATM    6  C   UNL     1       6.539  31.789  58.970  1.00  0.00     0.094 A 
HETATM    7  C   UNL     1       7.772  31.768  59.619  1.00  0.00     0.080 A 
HETATM    8  C   UNL     1       7.625  32.141  61.016  1.00  0.00    -0.026 A 
HETATM    9  C   UNL     1       6.316  32.477  61.311  1.00  0.00    -0.008 A 
HETATM   10  C   UNL     1       8.708  32.261  62.056  1.00  0.00     0.041 C 
HETATM   11  S   UNL     1       5.274  32.265  59.995  1.00  0.00    -0.075 SA
HETATM   12  C   UNL     1       5.817  32.969  62.633  1.00  0.00     0.047 C 
HETATM   13  C   UNL     1       6.987  33.482  63.482  1.00  0.00     0.005 C 
HETATM   14  C   UNL     1       8.153  32.487  63.472  1.00  0.00     0.005 C 
BRANCH   7  15
HETATM   15  C   UNL     1       9.010  31.436  58.904  1.00  0.00     0.296 C 
HETATM   16  O   UNL     1       9.879  32.269  58.666  1.00  0.00    -0.259 OA
BRANCH  15  17
HETATM   17  O   UNL     1       9.092  30.123  58.554  1.00  0.00    -0.318 OA
BRANCH  17  18
HETATM   18  C   UNL     1       9.387  29.860  57.176  1.00  0.00     0.174 C 
HETATM   19  C   UNL     1      10.875  29.589  57.064  1.00  0.00     0.034 C 
ENDBRANCH  17  18
ENDBRANCH  15  17
ENDBRANCH   7  15
ENDBRANCH   3   6
ENDBRANCH   1   2
BRANCH   1  20
HETATM   20  S   UNL     1       3.727  30.056  55.352  1.00  0.00    -0.083 SA
BRANCH  20  21
HETATM   21  C   UNL     1       3.860  29.261  53.822  1.00  0.00     0.171 A 
HETATM   22  N   UNL     1       4.649  28.247  53.647  1.00  0.00    -0.204 NA
HETATM   23  C   UNL     1       4.646  27.783  52.364  1.00  0.00     0.171 A 
HETATM   24  C   UNL     1       3.945  28.327  51.312  1.00  0.00     0.099 A 
HETATM   25  N   UNL     1       5.352  26.703  51.840  1.00  0.00    -0.215 N 
HETATM   26  C   UNL     1       3.070  29.439  51.545  1.00  0.00     0.263 A 
HETATM   27  C   UNL     1       4.326  27.607  50.183  1.00  0.00     0.160 A 
HETATM   28  O   UNL     1       2.407  29.988  50.675  1.00  0.00    -0.267 OA
HETATM   29  N   UNL     1       3.069  29.841  52.861  1.00  0.00    -0.301 N 
HETATM   30  H   UNL     1       2.484  30.624  53.109  1.00  0.00     0.171 HD
HETATM   31  N   UNL     1       5.212  26.652  50.475  1.00  0.00    -0.177 NA
BRANCH  25  32
HETATM   32  C   UNL     1       6.118  25.705  52.511  1.00  0.00     0.060 A 
HETATM   33  C   UNL     1       7.316  25.210  51.973  1.00  0.00     0.034 A 
HETATM   34  C   UNL     1       8.062  24.261  52.680  1.00  0.00     0.044 A 
HETATM   35  C   UNL     1       7.610  23.805  53.911  1.00  0.00     0.116 A 
HETATM   36  F   UNL     1       8.323  22.887  54.578  1.00  0.00    -0.206 F 
HETATM   37  C   UNL     1       6.425  24.280  54.459  1.00  0.00     0.044 A 
HETATM   38  C   UNL     1       5.682  25.236  53.764  1.00  0.00     0.034 A 
ENDBRANCH  25  32
ENDBRANCH  20  21
ENDBRANCH   1  20
TORSDOF 8
ENDMDL
MODEL 6
REMARK VINA RESULT:      -9.7      2.919      4.174
REMARK  8 active torsions:
REMARK  status: ('A' for Active; 'I' for Inactive)
REMARK    1  A    between atoms: C_2  and  O_3 
REMARK    2  A    between atoms: O_3  and  C_4 
REMARK    3  A    between atoms: C_4  and  C_5 
REMARK    4  A    between atoms: C_6  and  N_7 
REMARK       I    between atoms: N_7  and  C_8 
REMARK    5  A    between atoms: C_8  and  C_9 
REMARK    6  A    between atoms: C_9  and  S_10 
REMARK    7  A    between atoms: S_10  and  C_11 
REMARK    8  A    between atoms: N_18  and  C_19 
ROOT
HETATM    1  C   UNL     1       5.728  28.768  53.688  1.00  0.00     0.185 C 
ENDROOT
BRANCH   1   2
HETATM    2  C   UNL     1       6.684  27.606  53.913  1.00  0.00     0.232 C 
HETATM    3  N   UNL     1       6.027  26.410  54.157  1.00  0.00    -0.320 N 
HETATM    4  H   UNL     1       5.018  26.432  54.307  1.00  0.00     0.169 HD
HETATM    5  O   UNL     1       7.897  27.781  53.834  1.00  0.00    -0.272 OA
BRANCH   3   6
HETATM    6  C   UNL     1       6.588  25.138  54.210  1.00  0.00     0.094 A 
HETATM    7  C   UNL     1       6.775  24.366  55.355  1.00  0.00     0.080 A 
HETATM    8  C   UNL     1       7.369  23.082  55.018  1.00  0.00    -0.026 A 
HETATM    9  C   UNL     1       7.531  22.947  53.652  1.00  0.00    -0.008 A 
HETATM   10  C   UNL     1       7.713  21.954  55.954  1.00  0.00     0.041 C 
HETATM   11  S   UNL     1       7.082  24.336  52.799  1.00  0.00    -0.075 SA
HETATM   12  C   UNL     1       8.054  21.732  52.951  1.00  0.00     0.047 C 
HETATM   13  C   UNL     1       7.963  20.510  53.872  1.00  0.00     0.005 C 
HETATM   14  C   UNL     1       8.508  20.831  55.268  1.00  0.00     0.005 C 
BRANCH   7  15
HETATM   15  C   UNL     1       6.365  24.847  56.679  1.00  0.00     0.296 C 
HETATM   16  O   UNL     1       5.189  25.030  56.980  1.00  0.00    -0.259 OA
BRANCH  15  17
HETATM   17  O   UNL     1       7.412  25.048  57.525  1.00  0.00    -0.318 OA
BRANCH  17  18
HETATM   18  C   UNL     1       8.265  26.157  57.212  1.00  0.00     0.174 C 
HETATM   19  C   UNL     1       7.517  27.430  57.557  1.00  0.00     0.034 C 
ENDBRANCH  17  18
ENDBRANCH  15  17
ENDBRANCH   7  15
ENDBRANCH   3   6
ENDBRANCH   1   2
BRANCH   1  20
HETATM   20  S   UNL     1       4.340  28.694  54.857  1.00  0.00    -0.083 SA
BRANCH  20  21
HETATM   21  C   UNL     1       4.503  30.267  55.557  1.00  0.00     0.171 A 
HETATM   22  N   UNL     1       5.190  30.464  56.639  1.00  0.00    -0.204 NA
HETATM   23  C   UNL     1       5.169  31.762  57.057  1.00  0.00     0.171 A 
HETATM   24  C   UNL     1       4.465  32.787  56.468  1.00  0.00     0.099 A 
HETATM   25  N   UNL     1       5.814  32.320  58.159  1.00  0.00    -0.215 N 
HETATM   26  C   UNL     1       3.727  32.537  55.264  1.00  0.00     0.263 A 
HETATM   27  C   UNL     1       4.644  33.898  57.287  1.00  0.00     0.160 A 
HETATM   28  O   UNL     1       3.073  33.383  54.668  1.00  0.00    -0.267 OA
HETATM   29  N   UNL     1       3.818  31.226  54.854  1.00  0.00    -0.301 N 
HETATM   30  H   UNL     1       3.320  30.965  54.016  1.00  0.00     0.171 HD
HETATM   31  N   UNL     1       5.418  33.622  58.340  1.00  0.00    -0.177 NA
BRANCH  25  32
HETATM   32  C   UNL     1       6.785  31.747  59.031  1.00  0.00     0.060 A 
HETATM   33  C   UNL     1       7.829  30.945  58.545  1.00  0.00     0.034 A 
HETATM   34  C   UNL     1       8.788  30.433  59.425  1.00  0.00     0.044 A 
HETATM   35  C   UNL     1       8.698  30.713  60.783  1.00  0.00     0.116 A 
HETATM   36  F   UNL     1       9.611  30.210  61.623  1.00  0.00    -0.206 F 
HETATM   37  C   UNL     1       7.669  31.501  61.284  1.00  0.00     0.044 A 
HETATM   38  C   UNL     1       6.716  32.026  60.409  1.00  0.00     0.034 A 
ENDBRANCH  25  32
ENDBRANCH  20  21
ENDBRANCH   1  20
TORSDOF 8
ENDMDL
MODEL 7
REMARK VINA RESULT:      -9.6      2.299      3.298
REMARK  8 active torsions:
REMARK  status: ('A' for Active; 'I' for Inactive)
REMARK    1  A    between atoms: C_2  and  O_3 
REMARK    2  A    between atoms: O_3  and  C_4 
REMARK    3  A    between atoms: C_4  and  C_5 
REMARK    4  A    between atoms: C_6  and  N_7 
REMARK       I    between atoms: N_7  and  C_8 
REMARK    5  A    between atoms: C_8  and  C_9 
REMARK    6  A    between atoms: C_9  and  S_10 
REMARK    7  A    between atoms: S_10  and  C_11 
REMARK    8  A    between atoms: N_18  and  C_19 
ROOT
HETATM    1  C   UNL     1       6.947  28.884  57.778  1.00  0.00     0.185 C 
ENDROOT
BRANCH   1   2
HETATM    2  C   UNL     1       7.723  27.706  57.209  1.00  0.00     0.232 C 
HETATM    3  N   UNL     1       6.906  26.635  56.879  1.00  0.00    -0.320 N 
HETATM    4  H   UNL     1       5.928  26.663  57.166  1.00  0.00     0.169 HD
HETATM    5  O   UNL     1       8.938  27.784  57.055  1.00  0.00    -0.272 OA
BRANCH   3   6
HETATM    6  C   UNL     1       7.263  25.495  56.167  1.00  0.00     0.094 A 
HETATM    7  C   UNL     1       6.931  25.211  54.843  1.00  0.00     0.080 A 
HETATM    8  C   UNL     1       7.500  23.938  54.432  1.00  0.00    -0.026 A 
HETATM    9  C   UNL     1       8.267  23.381  55.439  1.00  0.00    -0.008 A 
HETATM   10  C   UNL     1       7.397  23.277  53.082  1.00  0.00     0.041 C 
HETATM   11  S   UNL     1       8.237  24.292  56.863  1.00  0.00    -0.075 SA
HETATM   12  C   UNL     1       9.049  22.109  55.339  1.00  0.00     0.047 C 
HETATM   13  C   UNL     1       9.264  21.735  53.868  1.00  0.00     0.005 C 
HETATM   14  C   UNL     1       7.957  21.846  53.074  1.00  0.00     0.005 C 
BRANCH   7  15
HETATM   15  C   UNL     1       6.139  26.145  54.034  1.00  0.00     0.296 C 
HETATM   16  O   UNL     1       5.050  26.576  54.401  1.00  0.00    -0.259 OA
BRANCH  15  17
HETATM   17  O   UNL     1       6.742  26.485  52.863  1.00  0.00    -0.318 OA
BRANCH  17  18
HETATM   18  C   UNL     1       6.005  26.188  51.670  1.00  0.00     0.174 C 
HETATM   19  C   UNL     1       5.490  27.498  51.105  1.00  0.00     0.034 C 
ENDBRANCH  17  18
ENDBRANCH  15  17
ENDBRANCH   7  15
ENDBRANCH   3   6
ENDBRANCH   1   2
BRANCH   1  20
HETATM   20  S   UNL     1       8.051  30.003  58.690  1.00  0.00    -0.083 SA
BRANCH  20  21
HETATM   21  C   UNL     1       6.934  31.289  58.986  1.00  0.00     0.171 A 
HETATM   22  N   UNL     1       6.716  31.741  60.182  1.00  0.00    -0.204 NA
HETATM   23  C   UNL     1       5.775  32.728  60.217  1.00  0.00     0.171 A 
HETATM   24  C   UNL     1       5.056  33.195  59.140  1.00  0.00     0.099 A 
HETATM   25  N   UNL     1       5.321  33.443  61.323  1.00  0.00    -0.215 N 
HETATM   26  C   UNL     1       5.333  32.683  57.830  1.00  0.00     0.263 A 
HETATM   27  C   UNL     1       4.141  34.108  59.655  1.00  0.00     0.160 A 
HETATM   28  O   UNL     1       4.750  33.036  56.813  1.00  0.00    -0.267 OA
HETATM   29  N   UNL     1       6.324  31.726  57.837  1.00  0.00    -0.301 N 
HETATM   30  H   UNL     1       6.574  31.309  56.954  1.00  0.00     0.171 HD
HETATM   31  N   UNL     1       4.254  34.235  60.979  1.00  0.00    -0.177 NA
BRANCH  25  32
HETATM   32  C   UNL     1       5.820  33.466  62.658  1.00  0.00     0.060 A 
HETATM   33  C   UNL     1       7.179  33.260  62.940  1.00  0.00     0.034 A 
HETATM   34  C   UNL     1       7.640  33.331  64.258  1.00  0.00     0.044 A 
HETATM   35  C   UNL     1       6.747  33.596  65.289  1.00  0.00     0.116 A 
HETATM   36  F   UNL     1       7.193  33.651  66.550  1.00  0.00    -0.206 F 
HETATM   37  C   UNL     1       5.398  33.799  65.030  1.00  0.00     0.044 A 
HETATM   38  C   UNL     1       4.933  33.743  63.715  1.00  0.00     0.034 A 
ENDBRANCH  25  32
ENDBRANCH  20  21
ENDBRANCH   1  20
TORSDOF 8
ENDMDL
MODEL 8
REMARK VINA RESULT:      -9.6      5.431      9.091
REMARK  8 active torsions:
REMARK  status: ('A' for Active; 'I' for Inactive)
REMARK    1  A    between atoms: C_2  and  O_3 
REMARK    2  A    between atoms: O_3  and  C_4 
REMARK    3  A    between atoms: C_4  and  C_5 
REMARK    4  A    between atoms: C_6  and  N_7 
REMARK       I    between atoms: N_7  and  C_8 
REMARK    5  A    between atoms: C_8  and  C_9 
REMARK    6  A    between atoms: C_9  and  S_10 
REMARK    7  A    between atoms: S_10  and  C_11 
REMARK    8  A    between atoms: N_18  and  C_19 
ROOT
HETATM    1  C   UNL     1       3.849  28.443  53.804  1.00  0.00     0.185 C 
ENDROOT
BRANCH   1   2
HETATM    2  C   UNL     1       5.105  27.621  54.048  1.00  0.00     0.232 C 
HETATM    3  N   UNL     1       4.835  26.275  54.249  1.00  0.00    -0.320 N 
HETATM    4  H   UNL     1       3.863  25.986  54.361  1.00  0.00     0.169 HD
HETATM    5  O   UNL     1       6.210  28.156  54.018  1.00  0.00    -0.272 OA
BRANCH   3   6
HETATM    6  C   UNL     1       5.754  25.233  54.304  1.00  0.00     0.094 A 
HETATM    7  C   UNL     1       6.323  24.694  55.457  1.00  0.00     0.080 A 
HETATM    8  C   UNL     1       7.222  23.601  55.125  1.00  0.00    -0.026 A 
HETATM    9  C   UNL     1       7.225  23.349  53.766  1.00  0.00    -0.008 A 
HETATM   10  C   UNL     1       8.017  22.743  56.074  1.00  0.00     0.041 C 
HETATM   11  S   UNL     1       6.265  24.435  52.896  1.00  0.00    -0.075 SA
HETATM   12  C   UNL     1       7.986  22.256  53.082  1.00  0.00     0.047 C 
HETATM   13  C   UNL     1       8.396  21.182  54.098  1.00  0.00     0.005 C 
HETATM   14  C   UNL     1       9.009  21.816  55.352  1.00  0.00     0.005 C 
BRANCH   7  15
HETATM   15  C   UNL     1       5.976  25.200  56.790  1.00  0.00     0.296 C 
HETATM   16  O   UNL     1       4.822  25.222  57.208  1.00  0.00    -0.259 OA
BRANCH  15  17
HETATM   17  O   UNL     1       7.057  25.618  57.503  1.00  0.00    -0.318 OA
BRANCH  17  18
HETATM   18  C   UNL     1       7.738  26.769  56.989  1.00  0.00     0.174 C 
HETATM   19  C   UNL     1       7.063  28.002  57.559  1.00  0.00     0.034 C 
ENDBRANCH  17  18
ENDBRANCH  15  17
ENDBRANCH   7  15
ENDBRANCH   3   6
ENDBRANCH   1   2
BRANCH   1  20
HETATM   20  S   UNL     1       4.172  30.209  54.086  1.00  0.00    -0.083 SA
BRANCH  20  21
HETATM   21  C   UNL     1       4.347  30.709  52.439  1.00  0.00     0.171 A 
HETATM   22  N   UNL     1       4.244  29.868  51.457  1.00  0.00    -0.204 NA
HETATM   23  C   UNL     1       4.452  30.443  50.238  1.00  0.00     0.171 A 
HETATM   24  C   UNL     1       4.796  31.757  50.014  1.00  0.00     0.099 A 
HETATM   25  N   UNL     1       4.394  29.840  48.983  1.00  0.00    -0.215 N 
HETATM   26  C   UNL     1       4.888  32.661  51.122  1.00  0.00     0.263 A 
HETATM   27  C   UNL     1       5.016  31.869  48.644  1.00  0.00     0.160 A 
HETATM   28  O   UNL     1       5.186  33.845  51.024  1.00  0.00    -0.267 OA
HETATM   29  N   UNL     1       4.622  32.049  52.326  1.00  0.00    -0.301 N 
HETATM   30  H   UNL     1       4.672  32.616  53.159  1.00  0.00     0.171 HD
HETATM   31  N   UNL     1       4.824  30.709  48.011  1.00  0.00    -0.177 NA
BRANCH  25  32
HETATM   32  C   UNL     1       3.944  28.537  48.620  1.00  0.00     0.060 A 
HETATM   33  C   UNL     1       2.580  28.213  48.582  1.00  0.00     0.034 A 
HETATM   34  C   UNL     1       2.173  26.936  48.182  1.00  0.00     0.044 A 
HETATM   35  C   UNL     1       3.125  25.987  47.830  1.00  0.00     0.116 A 
HETATM   36  F   UNL     1       2.731  24.762  47.460  1.00  0.00    -0.206 F 
HETATM   37  C   UNL     1       4.481  26.287  47.865  1.00  0.00     0.044 A 
HETATM   38  C   UNL     1       4.893  27.564  48.252  1.00  0.00     0.034 A 
ENDBRANCH  25  32
ENDBRANCH  20  21
ENDBRANCH   1  20
TORSDOF 8
ENDMDL
MODEL 9
REMARK VINA RESULT:      -9.4      3.279      5.290
REMARK  8 active torsions:
REMARK  status: ('A' for Active; 'I' for Inactive)
REMARK    1  A    between atoms: C_2  and  O_3 
REMARK    2  A    between atoms: O_3  and  C_4 
REMARK    3  A    between atoms: C_4  and  C_5 
REMARK    4  A    between atoms: C_6  and  N_7 
REMARK       I    between atoms: N_7  and  C_8 
REMARK    5  A    between atoms: C_8  and  C_9 
REMARK    6  A    between atoms: C_9  and  S_10 
REMARK    7  A    between atoms: S_10  and  C_11 
REMARK    8  A    between atoms: N_18  and  C_19 
ROOT
HETATM    1  C   UNL     1       5.392  31.561  56.457  1.00  0.00     0.185 C 
ENDROOT
BRANCH   1   2
HETATM    2  C   UNL     1       5.380  30.041  56.514  1.00  0.00     0.232 C 
HETATM    3  N   UNL     1       6.331  29.465  55.685  1.00  0.00    -0.320 N 
HETATM    4  H   UNL     1       6.831  30.065  55.030  1.00  0.00     0.169 HD
HETATM    5  O   UNL     1       4.604  29.458  57.267  1.00  0.00    -0.272 OA
BRANCH   3   6
HETATM    6  C   UNL     1       6.712  28.128  55.647  1.00  0.00     0.094 A 
HETATM    7  C   UNL     1       7.692  27.527  56.434  1.00  0.00     0.080 A 
HETATM    8  C   UNL     1       7.797  26.108  56.131  1.00  0.00    -0.026 A 
HETATM    9  C   UNL     1       6.859  25.725  55.191  1.00  0.00    -0.008 A 
HETATM   10  C   UNL     1       8.713  25.096  56.768  1.00  0.00     0.041 C 
HETATM   11  S   UNL     1       5.943  27.024  54.613  1.00  0.00    -0.075 SA
HETATM   12  C   UNL     1       6.641  24.331  54.692  1.00  0.00     0.047 C 
HETATM   13  C   UNL     1       7.262  23.319  55.663  1.00  0.00     0.005 C 
HETATM   14  C   UNL     1       8.685  23.735  56.055  1.00  0.00     0.005 C 
BRANCH   7  15
HETATM   15  C   UNL     1       8.444  28.289  57.437  1.00  0.00     0.296 C 
HETATM   16  O   UNL     1       7.935  28.692  58.479  1.00  0.00    -0.259 OA
BRANCH  15  17
HETATM   17  O   UNL     1       9.748  28.482  57.098  1.00  0.00    -0.318 OA
BRANCH  17  18
HETATM   18  C   UNL     1      10.047  29.723  56.446  1.00  0.00     0.174 C 
HETATM   19  C   UNL     1      10.702  30.636  57.464  1.00  0.00     0.034 C 
ENDBRANCH  17  18
ENDBRANCH  15  17
ENDBRANCH   7  15
ENDBRANCH   3   6
ENDBRANCH   1   2
BRANCH   1  20
HETATM   20  S   UNL     1       3.727  32.230  56.743  1.00  0.00    -0.083 SA
BRANCH  20  21
HETATM   21  C   UNL     1       4.055  33.146  58.173  1.00  0.00     0.171 A 
HETATM   22  N   UNL     1       4.935  32.758  59.043  1.00  0.00    -0.204 NA
HETATM   23  C   UNL     1       5.024  33.591  60.120  1.00  0.00     0.171 A 
HETATM   24  C   UNL     1       4.248  34.706  60.343  1.00  0.00     0.099 A 
HETATM   25  N   UNL     1       5.874  33.487  61.219  1.00  0.00    -0.215 N 
HETATM   26  C   UNL     1       3.295  35.113  59.352  1.00  0.00     0.263 A 
HETATM   27  C   UNL     1       4.602  35.176  61.604  1.00  0.00     0.160 A 
HETATM   28  O   UNL     1       2.562  36.088  59.459  1.00  0.00    -0.267 OA
HETATM   29  N   UNL     1       3.276  34.272  58.262  1.00  0.00    -0.301 N 
HETATM   30  H   UNL     1       2.626  34.484  57.521  1.00  0.00     0.171 HD
HETATM   31  N   UNL     1       5.550  34.424  62.169  1.00  0.00    -0.177 NA
BRANCH  25  32
HETATM   32  C   UNL     1       6.975  32.608  61.436  1.00  0.00     0.060 A 
HETATM   33  C   UNL     1       7.017  31.738  62.537  1.00  0.00     0.034 A 
HETATM   34  C   UNL     1       8.094  30.860  62.695  1.00  0.00     0.044 A 
HETATM   35  C   UNL     1       9.126  30.858  61.765  1.00  0.00     0.116 A 
HETATM   36  F   UNL     1      10.160  30.023  61.929  1.00  0.00    -0.206 F 
HETATM   37  C   UNL     1       9.104  31.713  60.671  1.00  0.00     0.044 A 
HETATM   38  C   UNL     1       8.026  32.584  60.500  1.00  0.00     0.034 A 
ENDBRANCH  25  32
ENDBRANCH  20  21
ENDBRANCH   1  20
TORSDOF 8
ENDMDL
MODEL 10
REMARK VINA RESULT:      -9.4      4.629     11.362
REMARK  8 active torsions:
REMARK  status: ('A' for Active; 'I' for Inactive)
REMARK    1  A    between atoms: C_2  and  O_3 
REMARK    2  A    between atoms: O_3  and  C_4 
REMARK    3  A    between atoms: C_4  and  C_5 
REMARK    4  A    between atoms: C_6  and  N_7 
REMARK       I    between atoms: N_7  and  C_8 
REMARK    5  A    between atoms: C_8  and  C_9 
REMARK    6  A    between atoms: C_9  and  S_10 
REMARK    7  A    between atoms: S_10  and  C_11 
REMARK    8  A    between atoms: N_18  and  C_19 
ROOT
HETATM    1  C   UNL     1       3.894  31.284  58.326  1.00  0.00     0.185 C 
ENDROOT
BRANCH   1   2
HETATM    2  C   UNL     1       4.335  32.459  59.185  1.00  0.00     0.232 C 
HETATM    3  N   UNL     1       3.497  32.676  60.270  1.00  0.00    -0.320 N 
HETATM    4  H   UNL     1       2.620  32.156  60.317  1.00  0.00     0.169 HD
HETATM    5  O   UNL     1       5.357  33.080  58.905  1.00  0.00    -0.272 OA
BRANCH   3   6
HETATM    6  C   UNL     1       3.718  33.531  61.344  1.00  0.00     0.094 A 
HETATM    7  C   UNL     1       4.489  33.256  62.472  1.00  0.00     0.080 A 
HETATM    8  C   UNL     1       4.509  34.397  63.372  1.00  0.00    -0.026 A 
HETATM    9  C   UNL     1       3.812  35.467  62.843  1.00  0.00    -0.008 A 
HETATM   10  C   UNL     1       5.237  34.521  64.685  1.00  0.00     0.041 C 
HETATM   11  S   UNL     1       3.075  35.100  61.365  1.00  0.00    -0.075 SA
HETATM   12  C   UNL     1       3.680  36.819  63.469  1.00  0.00     0.047 C 
HETATM   13  C   UNL     1       4.769  37.019  64.531  1.00  0.00     0.005 C 
HETATM   14  C   UNL     1       4.867  35.799  65.454  1.00  0.00     0.005 C 
BRANCH   7  15
HETATM   15  C   UNL     1       5.184  31.973  62.631  1.00  0.00     0.296 C 
HETATM   16  O   UNL     1       4.762  31.080  63.360  1.00  0.00    -0.259 OA
BRANCH  15  17
HETATM   17  O   UNL     1       6.317  31.879  61.884  1.00  0.00    -0.318 OA
BRANCH  17  18
HETATM   18  C   UNL     1       7.477  31.385  62.566  1.00  0.00     0.174 C 
HETATM   19  C   UNL     1       8.066  32.528  63.370  1.00  0.00     0.034 C 
ENDBRANCH  17  18
ENDBRANCH  15  17
ENDBRANCH   7  15
ENDBRANCH   3   6
ENDBRANCH   1   2
BRANCH   1  20
HETATM   20  S   UNL     1       4.593  31.411  56.654  1.00  0.00    -0.083 SA
BRANCH  20  21
HETATM   21  C   UNL     1       5.702  30.086  56.733  1.00  0.00     0.171 A 
HETATM   22  N   UNL     1       5.626  29.084  55.913  1.00  0.00    -0.204 NA
HETATM   23  C   UNL     1       6.560  28.121  56.158  1.00  0.00     0.171 A 
HETATM   24  C   UNL     1       7.475  28.129  57.187  1.00  0.00     0.099 A 
HETATM   25  N   UNL     1       6.774  26.935  55.460  1.00  0.00    -0.215 N 
HETATM   26  C   UNL     1       7.540  29.259  58.066  1.00  0.00     0.263 A 
HETATM   27  C   UNL     1       8.141  26.908  57.118  1.00  0.00     0.160 A 
HETATM   28  O   UNL     1       8.318  29.357  59.006  1.00  0.00    -0.267 OA
HETATM   29  N   UNL     1       6.612  30.226  57.750  1.00  0.00    -0.301 N 
HETATM   30  H   UNL     1       6.587  31.053  58.327  1.00  0.00     0.171 HD
HETATM   31  N   UNL     1       7.698  26.154  56.109  1.00  0.00    -0.177 NA
BRANCH  25  32
HETATM   32  C   UNL     1       6.209  26.490  54.229  1.00  0.00     0.060 A 
HETATM   33  C   UNL     1       6.469  27.150  53.018  1.00  0.00     0.034 A 
HETATM   34  C   UNL     1       5.931  26.661  51.824  1.00  0.00     0.044 A 
HETATM   35  C   UNL     1       5.133  25.524  51.840  1.00  0.00     0.116 A 
HETATM   36  F   UNL     1       4.611  25.068  50.694  1.00  0.00    -0.206 F 
HETATM   37  C   UNL     1       4.861  24.859  53.028  1.00  0.00     0.044 A 
HETATM   38  C   UNL     1       5.405  25.335  54.223  1.00  0.00     0.034 A 
ENDBRANCH  25  32
ENDBRANCH  20  21
ENDBRANCH   1  20
TORSDOF 8
ENDMDL
