MODEL 1
REMARK VINA RESULT:      -9.0      0.000      0.000
REMARK  9 active torsions:
REMARK  status: ('A' for Active; 'I' for Inactive)
REMARK    1  A    between atoms: O_2  and  C_3 
REMARK    2  A    between atoms: C_9  and  C_13 
REMARK       I    between atoms: C_13  and  N_15 
REMARK    3  A    between atoms: N_15  and  C_16 
REMARK    4  A    between atoms: C_19  and  C_27 
REMARK    5  A    between atoms: C_21  and  O_22 
REMARK    6  A    between atoms: O_22  and  C_23 
REMARK    7  A    between atoms: C_23  and  C_24 
REMARK    8  A    between atoms: C_24  and  C_25 
REMARK    9  A    between atoms: C_25  and  O_26 
ROOT
HETATM    1  C   UNL     1       6.303  29.523  57.643  1.00  0.00     0.068 A 
HETATM    2  C   UNL     1       4.971  29.365  57.256  1.00  0.00     0.033 A 
HETATM    3  C   UNL     1       4.626  28.454  56.251  1.00  0.00     0.015 A 
HETATM    4  C   UNL     1       5.605  27.685  55.617  1.00  0.00    -0.020 A 
HETATM    5  C   UNL     1       6.945  27.850  55.996  1.00  0.00     0.051 A 
HETATM    6  C   UNL     1       7.301  28.762  57.000  1.00  0.00     0.096 A 
ENDROOT
BRANCH   1   7
HETATM    7  N   UNL     1       6.717  30.406  58.670  1.00  0.00    -0.324 N 
HETATM    8  C   UNL     1       6.542  31.775  58.732  1.00  0.00     0.228 C 
HETATM    9  O   UNL     1       6.031  32.474  57.862  1.00  0.00    -0.273 OA
HETATM   10  H   UNL     1       7.152  29.934  59.456  1.00  0.00     0.169 HD
BRANCH   8  11
HETATM   11  C   UNL     1       7.058  32.383  60.026  1.00  0.00     0.107 C 
HETATM   12  C   UNL     1       7.775  31.326  60.860  1.00  0.00     0.190 C 
HETATM   13  O   UNL     1       8.386  31.899  62.020  1.00  0.00    -0.350 OA
HETATM   14  C   UNL     1       7.542  32.672  62.770  1.00  0.00     0.075 A 
HETATM   15  C   UNL     1       7.942  32.922  64.079  1.00  0.00     0.040 A 
HETATM   16  C   UNL     1       6.356  33.225  62.273  1.00  0.00    -0.021 A 
HETATM   17  C   UNL     1       7.146  33.708  64.912  1.00  0.00     0.039 A 
HETATM   18  C   UNL     1       5.954  34.260  64.440  1.00  0.00     0.068 A 
HETATM   19  C   UNL     1       5.558  34.012  63.123  1.00  0.00     0.046 A 
HETATM   20  C   UNL     1       5.917  32.961  60.858  1.00  0.00     0.058 C 
BRANCH  18  21
HETATM   21  O   UNL     1       5.273  35.011  65.358  1.00  0.00    -0.356 OA
HETATM   22  C   UNL     1       4.171  34.391  66.007  1.00  0.00     0.210 C 
ENDBRANCH  18  21
ENDBRANCH   8  11
ENDBRANCH   1   7
BRANCH   6  23
HETATM   23  O   UNL     1       8.592  28.991  57.429  1.00  0.00    -0.349 OA
BRANCH  23  24
HETATM   24  C   UNL     1       9.585  29.188  56.421  1.00  0.00     0.178 C 
BRANCH  24  25
HETATM   25  C   UNL     1      10.583  30.235  56.902  1.00  0.00     0.053 C 
BRANCH  25  26
HETATM   26  C   UNL     1      10.245  30.744  58.297  1.00  0.00     0.166 C 
BRANCH  26  27
HETATM   27  O   UNL     1      10.267  32.166  58.307  1.00  0.00    -0.401 OA
HETATM   28  H   UNL     1      11.185  32.448  58.456  1.00  0.00     0.209 HD
ENDBRANCH  26  27
ENDBRANCH  25  26
ENDBRANCH  24  25
ENDBRANCH  23  24
ENDBRANCH   6  23
BRANCH   4  29
HETATM   29  C   UNL     1       5.224  26.742  54.578  1.00  0.00     0.010 A 
HETATM   30  C   UNL     1       5.571  25.382  54.391  1.00  0.00     0.152 A 
HETATM   31  N   UNL     1       5.030  24.857  53.289  1.00  0.00    -0.187 NA
HETATM   32  N   UNL     1       4.342  25.879  52.759  1.00  0.00    -0.289 N 
HETATM   33  H   UNL     1       3.843  25.722  51.889  1.00  0.00     0.188 HD
HETATM   34  C   UNL     1       4.425  27.029  53.491  1.00  0.00     0.123 A 
ENDBRANCH   4  29
TORSDOF 9
ENDMDL
MODEL 2
REMARK VINA RESULT:      -8.9      3.378      9.859
REMARK  9 active torsions:
REMARK  status: ('A' for Active; 'I' for Inactive)
REMARK    1  A    between atoms: O_2  and  C_3 
REMARK    2  A    between atoms: C_9  and  C_13 
REMARK       I    between atoms: C_13  and  N_15 
REMARK    3  A    between atoms: N_15  and  C_16 
REMARK    4  A    between atoms: C_19  and  C_27 
REMARK    5  A    between atoms: C_21  and  O_22 
REMARK    6  A    between atoms: O_22  and  C_23 
REMARK    7  A    between atoms: C_23  and  C_24 
REMARK    8  A    between atoms: C_24  and  C_25 
REMARK    9  A    between atoms: C_25  and  O_26 
ROOT
HETATM    1  C   UNL     1       6.917  32.074  62.631  1.00  0.00     0.068 A 
HETATM    2  C   UNL     1       7.898  32.661  63.432  1.00  0.00     0.033 A 
HETATM    3  C   UNL     1       7.544  33.359  64.591  1.00  0.00     0.015 A 
HETATM    4  C   UNL     1       6.205  33.481  64.971  1.00  0.00    -0.020 A 
HETATM    5  C   UNL     1       5.217  32.901  64.163  1.00  0.00     0.051 A 
HETATM    6  C   UNL     1       5.561  32.202  62.997  1.00  0.00     0.096 A 
ENDROOT
BRANCH   1   7
HETATM    7  N   UNL     1       7.208  31.331  61.460  1.00  0.00    -0.324 N 
HETATM    8  C   UNL     1       8.030  31.692  60.410  1.00  0.00     0.228 C 
HETATM    9  O   UNL     1       8.619  32.763  60.293  1.00  0.00    -0.273 OA
HETATM   10  H   UNL     1       6.776  30.413  61.448  1.00  0.00     0.169 HD
BRANCH   8  11
HETATM   11  C   UNL     1       8.158  30.606  59.354  1.00  0.00     0.107 C 
HETATM   12  C   UNL     1       9.445  30.786  58.558  1.00  0.00     0.190 C 
HETATM   13  O   UNL     1       9.656  29.704  57.647  1.00  0.00    -0.350 OA
HETATM   14  C   UNL     1       8.580  29.433  56.846  1.00  0.00     0.075 A 
HETATM   15  C   UNL     1       8.843  28.686  55.701  1.00  0.00     0.040 A 
HETATM   16  C   UNL     1       7.273  29.835  57.146  1.00  0.00    -0.021 A 
HETATM   17  C   UNL     1       7.803  28.357  54.832  1.00  0.00     0.039 A 
HETATM   18  C   UNL     1       6.495  28.758  55.106  1.00  0.00     0.068 A 
HETATM   19  C   UNL     1       6.234  29.503  56.260  1.00  0.00     0.046 A 
HETATM   20  C   UNL     1       6.981  30.641  58.383  1.00  0.00     0.058 C 
BRANCH  18  21
HETATM   21  O   UNL     1       5.574  28.366  54.174  1.00  0.00    -0.356 OA
HETATM   22  C   UNL     1       6.034  28.213  52.838  1.00  0.00     0.210 C 
ENDBRANCH  18  21
ENDBRANCH   8  11
ENDBRANCH   1   7
BRANCH   6  23
HETATM   23  O   UNL     1       4.656  31.608  62.143  1.00  0.00    -0.349 OA
BRANCH  23  24
HETATM   24  C   UNL     1       3.700  32.464  61.514  1.00  0.00     0.178 C 
BRANCH  24  25
HETATM   25  C   UNL     1       3.934  32.451  60.008  1.00  0.00     0.053 C 
BRANCH  25  26
HETATM   26  C   UNL     1       3.376  31.193  59.358  1.00  0.00     0.166 C 
BRANCH  26  27
HETATM   27  O   UNL     1       2.707  30.404  60.335  1.00  0.00    -0.401 OA
HETATM   28  H   UNL     1       2.925  30.767  61.210  1.00  0.00     0.209 HD
ENDBRANCH  26  27
ENDBRANCH  25  26
ENDBRANCH  24  25
ENDBRANCH  23  24
ENDBRANCH   6  23
BRANCH   4  29
HETATM   29  C   UNL     1       5.860  34.208  66.183  1.00  0.00     0.010 A 
HETATM   30  C   UNL     1       6.510  34.274  67.438  1.00  0.00     0.152 A 
HETATM   31  N   UNL     1       5.863  35.043  68.317  1.00  0.00    -0.187 NA
HETATM   32  N   UNL     1       4.789  35.466  67.633  1.00  0.00    -0.289 N 
HETATM   33  H   UNL     1       4.125  36.070  68.107  1.00  0.00     0.188 HD
HETATM   34  C   UNL     1       4.741  34.996  66.352  1.00  0.00     0.123 A 
ENDBRANCH   4  29
TORSDOF 9
ENDMDL
MODEL 3
REMARK VINA RESULT:      -8.6      3.042      5.013
REMARK  9 active torsions:
REMARK  status: ('A' for Active; 'I' for Inactive)
REMARK    1  A    between atoms: O_2  and  C_3 
REMARK    2  A    between atoms: C_9  and  C_13 
REMARK       I    between atoms: C_13  and  N_15 
REMARK    3  A    between atoms: N_15  and  C_16 
REMARK    4  A    between atoms: C_19  and  C_27 
REMARK    5  A    between atoms: C_21  and  O_22 
REMARK    6  A    between atoms: O_22  and  C_23 
REMARK    7  A    between atoms: C_23  and  C_24 
REMARK    8  A    between atoms: C_24  and  C_25 
REMARK    9  A    between atoms: C_25  and  O_26 
ROOT
HETATM    1  C   UNL     1       7.602  26.425  56.596  1.00  0.00     0.068 A 
HETATM    2  C   UNL     1       8.094  25.326  57.302  1.00  0.00     0.033 A 
HETATM    3  C   UNL     1       8.180  24.071  56.693  1.00  0.00     0.015 A 
HETATM    4  C   UNL     1       7.777  23.890  55.367  1.00  0.00    -0.020 A 
HETATM    5  C   UNL     1       7.271  24.990  54.659  1.00  0.00     0.051 A 
HETATM    6  C   UNL     1       7.179  26.253  55.262  1.00  0.00     0.096 A 
ENDROOT
BRANCH   1   7
HETATM    7  N   UNL     1       7.513  27.728  57.144  1.00  0.00    -0.324 N 
HETATM    8  C   UNL     1       8.523  28.662  57.276  1.00  0.00     0.228 C 
HETATM    9  O   UNL     1       9.702  28.493  56.980  1.00  0.00    -0.273 OA
HETATM   10  H   UNL     1       6.571  27.986  57.421  1.00  0.00     0.169 HD
BRANCH   8  11
HETATM   11  C   UNL     1       8.039  29.985  57.848  1.00  0.00     0.107 C 
HETATM   12  C   UNL     1       8.379  30.080  59.331  1.00  0.00     0.190 C 
HETATM   13  O   UNL     1       8.053  31.367  59.863  1.00  0.00    -0.350 OA
HETATM   14  C   UNL     1       6.775  31.774  59.594  1.00  0.00     0.075 A 
HETATM   15  C   UNL     1       6.278  32.798  60.394  1.00  0.00     0.040 A 
HETATM   16  C   UNL     1       5.997  31.240  58.560  1.00  0.00    -0.021 A 
HETATM   17  C   UNL     1       4.986  33.281  60.183  1.00  0.00     0.039 A 
HETATM   18  C   UNL     1       4.190  32.755  59.165  1.00  0.00     0.068 A 
HETATM   19  C   UNL     1       4.694  31.731  58.360  1.00  0.00     0.046 A 
HETATM   20  C   UNL     1       6.528  30.134  57.688  1.00  0.00     0.058 C 
BRANCH  18  21
HETATM   21  O   UNL     1       2.948  33.320  59.066  1.00  0.00    -0.356 OA
HETATM   22  C   UNL     1       2.582  34.253  60.075  1.00  0.00     0.210 C 
ENDBRANCH  18  21
ENDBRANCH   8  11
ENDBRANCH   1   7
BRANCH   6  23
HETATM   23  O   UNL     1       6.689  27.383  54.642  1.00  0.00    -0.349 OA
BRANCH  23  24
HETATM   24  C   UNL     1       5.322  27.354  54.227  1.00  0.00     0.178 C 
BRANCH  24  25
HETATM   25  C   UNL     1       4.678  28.700  54.540  1.00  0.00     0.053 C 
BRANCH  25  26
HETATM   26  C   UNL     1       3.906  28.668  55.852  1.00  0.00     0.166 C 
BRANCH  26  27
HETATM   27  O   UNL     1       4.262  27.506  56.591  1.00  0.00    -0.401 OA
HETATM   28  H   UNL     1       5.089  27.696  57.065  1.00  0.00     0.209 HD
ENDBRANCH  26  27
ENDBRANCH  25  26
ENDBRANCH  24  25
ENDBRANCH  23  24
ENDBRANCH   6  23
BRANCH   4  29
HETATM   29  C   UNL     1       7.879  22.576  54.752  1.00  0.00     0.010 A 
HETATM   30  C   UNL     1       7.901  22.193  53.390  1.00  0.00     0.152 A 
HETATM   31  N   UNL     1       7.983  20.870  53.226  1.00  0.00    -0.187 NA
HETATM   32  N   UNL     1       8.003  20.399  54.481  1.00  0.00    -0.289 N 
HETATM   33  H   UNL     1       8.052  19.394  54.616  1.00  0.00     0.188 HD
HETATM   34  C   UNL     1       7.944  21.378  55.431  1.00  0.00     0.123 A 
ENDBRANCH   4  29
TORSDOF 9
ENDMDL
MODEL 4
REMARK VINA RESULT:      -8.6      2.998      9.664
REMARK  9 active torsions:
REMARK  status: ('A' for Active; 'I' for Inactive)
REMARK    1  A    between atoms: O_2  and  C_3 
REMARK    2  A    between atoms: C_9  and  C_13 
REMARK       I    between atoms: C_13  and  N_15 
REMARK    3  A    between atoms: N_15  and  C_16 
REMARK    4  A    between atoms: C_19  and  C_27 
REMARK    5  A    between atoms: C_21  and  O_22 
REMARK    6  A    between atoms: O_22  and  C_23 
REMARK    7  A    between atoms: C_23  and  C_24 
REMARK    8  A    between atoms: C_24  and  C_25 
REMARK    9  A    between atoms: C_25  and  O_26 
ROOT
HETATM    1  C   UNL     1       7.715  30.867  59.800  1.00  0.00     0.068 A 
HETATM    2  C   UNL     1       8.331  30.592  61.022  1.00  0.00     0.033 A 
HETATM    3  C   UNL     1       8.114  31.418  62.129  1.00  0.00     0.015 A 
HETATM    4  C   UNL     1       7.275  32.531  62.037  1.00  0.00    -0.020 A 
HETATM    5  C   UNL     1       6.663  32.816  60.808  1.00  0.00     0.051 A 
HETATM    6  C   UNL     1       6.877  31.996  59.690  1.00  0.00     0.096 A 
ENDROOT
BRANCH   1   7
HETATM    7  N   UNL     1       7.871  30.058  58.648  1.00  0.00    -0.324 N 
HETATM    8  C   UNL     1       9.031  29.805  57.941  1.00  0.00     0.228 C 
HETATM    9  O   UNL     1      10.133  30.292  58.171  1.00  0.00    -0.273 OA
HETATM   10  H   UNL     1       7.015  29.592  58.364  1.00  0.00     0.169 HD
BRANCH   8  11
HETATM   11  C   UNL     1       8.827  28.828  56.794  1.00  0.00     0.107 C 
HETATM   12  C   UNL     1       7.679  29.287  55.902  1.00  0.00     0.190 C 
HETATM   13  O   UNL     1       7.551  28.458  54.742  1.00  0.00    -0.350 OA
HETATM   14  C   UNL     1       7.494  27.119  55.019  1.00  0.00     0.075 A 
HETATM   15  C   UNL     1       6.983  26.308  54.011  1.00  0.00     0.040 A 
HETATM   16  C   UNL     1       7.948  26.558  56.219  1.00  0.00    -0.021 A 
HETATM   17  C   UNL     1       6.897  24.929  54.204  1.00  0.00     0.039 A 
HETATM   18  C   UNL     1       7.333  24.351  55.397  1.00  0.00     0.068 A 
HETATM   19  C   UNL     1       7.852  25.168  56.405  1.00  0.00     0.046 A 
HETATM   20  C   UNL     1       8.505  27.429  57.313  1.00  0.00     0.058 C 
BRANCH  18  21
HETATM   21  O   UNL     1       7.195  22.992  55.453  1.00  0.00    -0.356 OA
HETATM   22  C   UNL     1       8.151  22.278  56.226  1.00  0.00     0.210 C 
ENDBRANCH  18  21
ENDBRANCH   8  11
ENDBRANCH   1   7
BRANCH   6  23
HETATM   23  O   UNL     1       6.322  32.207  58.446  1.00  0.00    -0.349 OA
BRANCH  23  24
HETATM   24  C   UNL     1       4.957  32.629  58.408  1.00  0.00     0.178 C 
BRANCH  24  25
HETATM   25  C   UNL     1       4.056  31.423  58.646  1.00  0.00     0.053 C 
BRANCH  25  26
HETATM   26  C   UNL     1       3.239  31.567  59.923  1.00  0.00     0.166 C 
BRANCH  26  27
HETATM   27  O   UNL     1       2.704  30.303  60.295  1.00  0.00    -0.401 OA
HETATM   28  H   UNL     1       2.152  30.434  61.084  1.00  0.00     0.209 HD
ENDBRANCH  26  27
ENDBRANCH  25  26
ENDBRANCH  24  25
ENDBRANCH  23  24
ENDBRANCH   6  23
BRANCH   4  29
HETATM   29  C   UNL     1       7.059  33.374  63.202  1.00  0.00     0.010 A 
HETATM   30  C   UNL     1       6.198  34.481  63.396  1.00  0.00     0.152 A 
HETATM   31  N   UNL     1       6.305  35.011  64.617  1.00  0.00    -0.187 NA
HETATM   32  N   UNL     1       7.241  34.255  65.208  1.00  0.00    -0.289 N 
HETATM   33  H   UNL     1       7.508  34.478  66.162  1.00  0.00     0.188 HD
HETATM   34  C   UNL     1       7.724  33.261  64.405  1.00  0.00     0.123 A 
ENDBRANCH   4  29
TORSDOF 9
ENDMDL
MODEL 5
REMARK VINA RESULT:      -8.5      3.421      9.550
REMARK  9 active torsions:
REMARK  status: ('A' for Active; 'I' for Inactive)
REMARK    1  A    between atoms: O_2  and  C_3 
REMARK    2  A    between atoms: C_9  and  C_13 
REMARK       I    between atoms: C_13  and  N_15 
REMARK    3  A    between atoms: N_15  and  C_16 
REMARK    4  A    between atoms: C_19  and  C_27 
REMARK    5  A    between atoms: C_21  and  O_22 
REMARK    6  A    between atoms: O_22  and  C_23 
REMARK    7  A    between atoms: C_23  and  C_24 
REMARK    8  A    between atoms: C_24  and  C_25 
REMARK    9  A    between atoms: C_25  and  O_26 
ROOT
HETATM    1  C   UNL     1       6.096  29.425  57.246  1.00  0.00     0.068 A 
HETATM    2  C   UNL     1       4.726  29.669  57.363  1.00  0.00     0.033 A 
HETATM    3  C   UNL     1       4.261  30.776  58.081  1.00  0.00     0.015 A 
HETATM    4  C   UNL     1       5.155  31.659  58.691  1.00  0.00    -0.020 A 
HETATM    5  C   UNL     1       6.531  31.410  58.584  1.00  0.00     0.051 A 
HETATM    6  C   UNL     1       7.007  30.301  57.870  1.00  0.00     0.096 A 
ENDROOT
BRANCH   1   7
HETATM    7  N   UNL     1       6.634  28.339  56.513  1.00  0.00    -0.324 N 
HETATM    8  C   UNL     1       6.620  28.151  55.144  1.00  0.00     0.228 C 
HETATM    9  O   UNL     1       6.081  28.887  54.323  1.00  0.00    -0.273 OA
HETATM   10  H   UNL     1       7.117  27.661  57.093  1.00  0.00     0.169 HD
BRANCH   8  11
HETATM   11  C   UNL     1       7.361  26.896  54.708  1.00  0.00     0.107 C 
HETATM   12  C   UNL     1       7.103  26.612  53.233  1.00  0.00     0.190 C 
HETATM   13  O   UNL     1       7.892  25.515  52.764  1.00  0.00    -0.350 OA
HETATM   14  C   UNL     1       7.796  24.390  53.537  1.00  0.00     0.075 A 
HETATM   15  C   UNL     1       8.203  23.201  52.939  1.00  0.00     0.040 A 
HETATM   16  C   UNL     1       7.353  24.401  54.865  1.00  0.00    -0.021 A 
HETATM   17  C   UNL     1       8.147  22.006  53.657  1.00  0.00     0.039 A 
HETATM   18  C   UNL     1       7.699  21.994  54.979  1.00  0.00     0.068 A 
HETATM   19  C   UNL     1       7.296  23.191  55.578  1.00  0.00     0.046 A 
HETATM   20  C   UNL     1       6.913  25.683  55.519  1.00  0.00     0.058 C 
BRANCH  18  21
HETATM   21  O   UNL     1       7.697  20.759  55.566  1.00  0.00    -0.356 OA
HETATM   22  C   UNL     1       8.931  20.297  56.100  1.00  0.00     0.210 C 
ENDBRANCH  18  21
ENDBRANCH   8  11
ENDBRANCH   1   7
BRANCH   6  23
HETATM   23  O   UNL     1       8.340  29.979  57.720  1.00  0.00    -0.349 OA
BRANCH  23  24
HETATM   24  C   UNL     1       9.291  30.846  58.340  1.00  0.00     0.178 C 
BRANCH  24  25
HETATM   25  C   UNL     1      10.628  30.718  57.619  1.00  0.00     0.053 C 
BRANCH  25  26
HETATM   26  C   UNL     1      10.661  29.508  56.696  1.00  0.00     0.166 C 
BRANCH  26  27
HETATM   27  O   UNL     1      10.118  29.855  55.429  1.00  0.00    -0.401 OA
HETATM   28  H   UNL     1      10.552  29.303  54.757  1.00  0.00     0.209 HD
ENDBRANCH  26  27
ENDBRANCH  25  26
ENDBRANCH  24  25
ENDBRANCH  23  24
ENDBRANCH   6  23
BRANCH   4  29
HETATM   29  C   UNL     1       4.650  32.806  59.429  1.00  0.00     0.010 A 
HETATM   30  C   UNL     1       4.233  32.928  60.776  1.00  0.00     0.152 A 
HETATM   31  N   UNL     1       3.807  34.158  61.077  1.00  0.00    -0.187 NA
HETATM   32  N   UNL     1       3.939  34.827  59.922  1.00  0.00    -0.289 N 
HETATM   33  H   UNL     1       3.662  35.803  59.898  1.00  0.00     0.188 HD
HETATM   34  C   UNL     1       4.441  34.065  58.905  1.00  0.00     0.123 A 
ENDBRANCH   4  29
TORSDOF 9
ENDMDL
MODEL 6
REMARK VINA RESULT:      -8.5      4.154      6.694
REMARK  9 active torsions:
REMARK  status: ('A' for Active; 'I' for Inactive)
REMARK    1  A    between atoms: O_2  and  C_3 
REMARK    2  A    between atoms: C_9  and  C_13 
REMARK       I    between atoms: C_13  and  N_15 
REMARK    3  A    between atoms: N_15  and  C_16 
REMARK    4  A    between atoms: C_19  and  C_27 
REMARK    5  A    between atoms: C_21  and  O_22 
REMARK    6  A    between atoms: O_22  and  C_23 
REMARK    7  A    between atoms: C_23  and  C_24 
REMARK    8  A    between atoms: C_24  and  C_25 
REMARK    9  A    between atoms: C_25  and  O_26 
ROOT
HETATM    1  C   UNL     1       7.440  25.717  55.833  1.00  0.00     0.068 A 
HETATM    2  C   UNL     1       7.662  24.798  56.860  1.00  0.00     0.033 A 
HETATM    3  C   UNL     1       7.999  23.473  56.568  1.00  0.00     0.015 A 
HETATM    4  C   UNL     1       8.123  23.042  55.244  1.00  0.00    -0.020 A 
HETATM    5  C   UNL     1       7.890  23.960  54.210  1.00  0.00     0.051 A 
HETATM    6  C   UNL     1       7.548  25.291  54.493  1.00  0.00     0.096 A 
ENDROOT
BRANCH   1   7
HETATM    7  N   UNL     1       7.122  27.078  56.060  1.00  0.00    -0.324 N 
HETATM    8  C   UNL     1       7.861  28.017  56.755  1.00  0.00     0.228 C 
HETATM    9  O   UNL     1       8.914  27.806  57.349  1.00  0.00    -0.273 OA
HETATM   10  H   UNL     1       6.264  27.373  55.605  1.00  0.00     0.169 HD
BRANCH   8  11
HETATM   11  C   UNL     1       7.235  29.402  56.731  1.00  0.00     0.107 C 
HETATM   12  C   UNL     1       7.269  30.026  58.122  1.00  0.00     0.190 C 
HETATM   13  O   UNL     1       6.808  31.380  58.102  1.00  0.00    -0.350 OA
HETATM   14  C   UNL     1       5.599  31.548  57.483  1.00  0.00     0.075 A 
HETATM   15  C   UNL     1       4.924  32.730  57.770  1.00  0.00     0.040 A 
HETATM   16  C   UNL     1       5.059  30.624  56.580  1.00  0.00    -0.021 A 
HETATM   17  C   UNL     1       3.689  32.988  57.177  1.00  0.00     0.039 A 
HETATM   18  C   UNL     1       3.127  32.075  56.283  1.00  0.00     0.068 A 
HETATM   19  C   UNL     1       3.811  30.892  55.992  1.00  0.00     0.046 A 
HETATM   20  C   UNL     1       5.784  29.344  56.262  1.00  0.00     0.058 C 
BRANCH  18  21
HETATM   21  O   UNL     1       1.916  32.453  55.772  1.00  0.00    -0.356 OA
HETATM   22  C   UNL     1       1.791  33.800  55.338  1.00  0.00     0.210 C 
ENDBRANCH  18  21
ENDBRANCH   8  11
ENDBRANCH   1   7
BRANCH   6  23
HETATM   23  O   UNL     1       7.296  26.255  53.540  1.00  0.00    -0.349 OA
BRANCH  23  24
HETATM   24  C   UNL     1       6.785  25.807  52.284  1.00  0.00     0.178 C 
BRANCH  24  25
HETATM   25  C   UNL     1       5.263  25.742  52.360  1.00  0.00     0.053 C 
BRANCH  25  26
HETATM   26  C   UNL     1       4.667  27.027  52.915  1.00  0.00     0.166 C 
BRANCH  26  27
HETATM   27  O   UNL     1       4.448  26.891  54.314  1.00  0.00    -0.401 OA
HETATM   28  H   UNL     1       3.720  27.486  54.561  1.00  0.00     0.209 HD
ENDBRANCH  26  27
ENDBRANCH  25  26
ENDBRANCH  24  25
ENDBRANCH  23  24
ENDBRANCH   6  23
BRANCH   4  29
HETATM   29  C   UNL     1       8.478  21.660  54.963  1.00  0.00     0.010 A 
HETATM   30  C   UNL     1       8.399  20.911  53.764  1.00  0.00     0.152 A 
HETATM   31  N   UNL     1       8.805  19.648  53.915  1.00  0.00    -0.187 NA
HETATM   32  N   UNL     1       9.138  19.579  55.212  1.00  0.00    -0.289 N 
HETATM   33  H   UNL     1       9.473  18.692  55.576  1.00  0.00     0.188 HD
HETATM   34  C   UNL     1       8.962  20.755  55.884  1.00  0.00     0.123 A 
ENDBRANCH   4  29
TORSDOF 9
ENDMDL
MODEL 7
REMARK VINA RESULT:      -8.5      1.589      3.005
REMARK  9 active torsions:
REMARK  status: ('A' for Active; 'I' for Inactive)
REMARK    1  A    between atoms: O_2  and  C_3 
REMARK    2  A    between atoms: C_9  and  C_13 
REMARK       I    between atoms: C_13  and  N_15 
REMARK    3  A    between atoms: N_15  and  C_16 
REMARK    4  A    between atoms: C_19  and  C_27 
REMARK    5  A    between atoms: C_21  and  O_22 
REMARK    6  A    between atoms: O_22  and  C_23 
REMARK    7  A    between atoms: C_23  and  C_24 
REMARK    8  A    between atoms: C_24  and  C_25 
REMARK    9  A    between atoms: C_25  and  O_26 
ROOT
HETATM    1  C   UNL     1       7.386  28.508  57.778  1.00  0.00     0.068 A 
HETATM    2  C   UNL     1       8.299  27.547  57.341  1.00  0.00     0.033 A 
HETATM    3  C   UNL     1       7.949  26.637  56.339  1.00  0.00     0.015 A 
HETATM    4  C   UNL     1       6.680  26.672  55.754  1.00  0.00    -0.020 A 
HETATM    5  C   UNL     1       5.757  27.630  56.198  1.00  0.00     0.051 A 
HETATM    6  C   UNL     1       6.098  28.545  57.205  1.00  0.00     0.096 A 
ENDROOT
BRANCH   1   7
HETATM    7  N   UNL     1       7.685  29.475  58.769  1.00  0.00    -0.324 N 
HETATM    8  C   UNL     1       8.669  30.445  58.736  1.00  0.00     0.228 C 
HETATM    9  O   UNL     1       9.497  30.599  57.844  1.00  0.00    -0.273 OA
HETATM   10  H   UNL     1       7.053  29.448  59.562  1.00  0.00     0.169 HD
BRANCH   8  11
HETATM   11  C   UNL     1       8.647  31.355  59.955  1.00  0.00     0.107 C 
HETATM   12  C   UNL     1       9.002  30.568  61.212  1.00  0.00     0.190 C 
HETATM   13  O   UNL     1       9.118  31.425  62.352  1.00  0.00    -0.350 OA
HETATM   14  C   UNL     1       8.045  32.252  62.539  1.00  0.00     0.075 A 
HETATM   15  C   UNL     1       7.913  32.806  63.809  1.00  0.00     0.040 A 
HETATM   16  C   UNL     1       7.133  32.575  61.527  1.00  0.00    -0.021 A 
HETATM   17  C   UNL     1       6.852  33.668  64.085  1.00  0.00     0.039 A 
HETATM   18  C   UNL     1       5.926  33.994  63.094  1.00  0.00     0.068 A 
HETATM   19  C   UNL     1       6.064  33.440  61.818  1.00  0.00     0.046 A 
HETATM   20  C   UNL     1       7.269  31.982  60.150  1.00  0.00     0.058 C 
BRANCH  18  21
HETATM   21  O   UNL     1       4.939  34.850  63.498  1.00  0.00    -0.356 OA
HETATM   22  C   UNL     1       5.230  35.692  64.606  1.00  0.00     0.210 C 
ENDBRANCH  18  21
ENDBRANCH   8  11
ENDBRANCH   1   7
BRANCH   6  23
HETATM   23  O   UNL     1       5.252  29.512  57.705  1.00  0.00    -0.349 OA
BRANCH  23  24
HETATM   24  C   UNL     1       4.985  30.636  56.864  1.00  0.00     0.178 C 
BRANCH  24  25
HETATM   25  C   UNL     1       3.724  31.338  57.357  1.00  0.00     0.053 C 
BRANCH  25  26
HETATM   26  C   UNL     1       3.724  31.512  58.869  1.00  0.00     0.166 C 
BRANCH  26  27
HETATM   27  O   UNL     1       3.126  30.376  59.483  1.00  0.00    -0.401 OA
HETATM   28  H   UNL     1       2.805  29.791  58.776  1.00  0.00     0.209 HD
ENDBRANCH  26  27
ENDBRANCH  25  26
ENDBRANCH  24  25
ENDBRANCH  23  24
ENDBRANCH   6  23
BRANCH   4  29
HETATM   29  C   UNL     1       6.338  25.719  54.710  1.00  0.00     0.010 A 
HETATM   30  C   UNL     1       6.953  24.502  54.332  1.00  0.00     0.152 A 
HETATM   31  N   UNL     1       6.347  23.916  53.297  1.00  0.00    -0.187 NA
HETATM   32  N   UNL     1       5.348  24.759  52.999  1.00  0.00    -0.289 N 
HETATM   33  H   UNL     1       4.740  24.527  52.220  1.00  0.00     0.188 HD
HETATM   34  C   UNL     1       5.297  25.853  53.815  1.00  0.00     0.123 A 
ENDBRANCH   4  29
TORSDOF 9
ENDMDL
MODEL 8
REMARK VINA RESULT:      -8.5      6.230     10.652
REMARK  9 active torsions:
REMARK  status: ('A' for Active; 'I' for Inactive)
REMARK    1  A    between atoms: O_2  and  C_3 
REMARK    2  A    between atoms: C_9  and  C_13 
REMARK       I    between atoms: C_13  and  N_15 
REMARK    3  A    between atoms: N_15  and  C_16 
REMARK    4  A    between atoms: C_19  and  C_27 
REMARK    5  A    between atoms: C_21  and  O_22 
REMARK    6  A    between atoms: O_22  and  C_23 
REMARK    7  A    between atoms: C_23  and  C_24 
REMARK    8  A    between atoms: C_24  and  C_25 
REMARK    9  A    between atoms: C_25  and  O_26 
ROOT
HETATM    1  C   UNL     1       6.402  25.096  53.071  1.00  0.00     0.068 A 
HETATM    2  C   UNL     1       7.304  24.319  52.341  1.00  0.00     0.033 A 
HETATM    3  C   UNL     1       7.921  23.208  52.926  1.00  0.00     0.015 A 
HETATM    4  C   UNL     1       7.647  22.854  54.250  1.00  0.00    -0.020 A 
HETATM    5  C   UNL     1       6.750  23.639  54.989  1.00  0.00     0.051 A 
HETATM    6  C   UNL     1       6.129  24.756  54.412  1.00  0.00     0.096 A 
ENDROOT
BRANCH   1   7
HETATM    7  N   UNL     1       5.723  26.215  52.531  1.00  0.00    -0.324 N 
HETATM    8  C   UNL     1       6.057  27.550  52.657  1.00  0.00     0.228 C 
HETATM    9  O   UNL     1       6.990  27.999  53.315  1.00  0.00    -0.273 OA
HETATM   10  H   UNL     1       4.926  25.964  51.954  1.00  0.00     0.169 HD
BRANCH   8  11
HETATM   11  C   UNL     1       5.130  28.471  51.879  1.00  0.00     0.107 C 
HETATM   12  C   UNL     1       3.909  28.830  52.719  1.00  0.00     0.190 C 
HETATM   13  O   UNL     1       3.086  29.799  52.063  1.00  0.00    -0.350 OA
HETATM   14  C   UNL     1       2.757  29.470  50.777  1.00  0.00     0.075 A 
HETATM   15  C   UNL     1       1.668  30.145  50.233  1.00  0.00     0.040 A 
HETATM   16  C   UNL     1       3.471  28.542  50.010  1.00  0.00    -0.021 A 
HETATM   17  C   UNL     1       1.267  29.878  48.924  1.00  0.00     0.039 A 
HETATM   18  C   UNL     1       1.959  28.948  48.146  1.00  0.00     0.068 A 
HETATM   19  C   UNL     1       3.055  28.276  48.693  1.00  0.00     0.046 A 
HETATM   20  C   UNL     1       4.651  27.809  50.590  1.00  0.00     0.058 C 
BRANCH  18  21
HETATM   21  O   UNL     1       1.463  28.785  46.882  1.00  0.00    -0.356 OA
HETATM   22  C   UNL     1       0.671  27.628  46.644  1.00  0.00     0.210 C 
ENDBRANCH  18  21
ENDBRANCH   8  11
ENDBRANCH   1   7
BRANCH   6  23
HETATM   23  O   UNL     1       5.241  25.584  55.066  1.00  0.00    -0.349 OA
BRANCH  23  24
HETATM   24  C   UNL     1       5.430  25.755  56.472  1.00  0.00     0.178 C 
BRANCH  24  25
HETATM   25  C   UNL     1       6.177  27.061  56.719  1.00  0.00     0.053 C 
BRANCH  25  26
HETATM   26  C   UNL     1       5.267  28.273  56.569  1.00  0.00     0.166 C 
BRANCH  26  27
HETATM   27  O   UNL     1       3.931  27.844  56.339  1.00  0.00    -0.401 OA
HETATM   28  H   UNL     1       3.718  27.165  57.002  1.00  0.00     0.209 HD
ENDBRANCH  26  27
ENDBRANCH  25  26
ENDBRANCH  24  25
ENDBRANCH  23  24
ENDBRANCH   6  23
BRANCH   4  29
HETATM   29  C   UNL     1       8.297  21.693  54.837  1.00  0.00     0.010 A 
HETATM   30  C   UNL     1       8.887  21.510  56.111  1.00  0.00     0.152 A 
HETATM   31  N   UNL     1       9.407  20.290  56.270  1.00  0.00    -0.187 NA
HETATM   32  N   UNL     1       9.162  19.689  55.097  1.00  0.00    -0.289 N 
HETATM   33  H   UNL     1       9.482  18.734  54.970  1.00  0.00     0.188 HD
HETATM   34  C   UNL     1       8.500  20.484  54.205  1.00  0.00     0.123 A 
ENDBRANCH   4  29
TORSDOF 9
ENDMDL
MODEL 9
REMARK VINA RESULT:      -8.3      6.719     11.126
REMARK  9 active torsions:
REMARK  status: ('A' for Active; 'I' for Inactive)
REMARK    1  A    between atoms: O_2  and  C_3 
REMARK    2  A    between atoms: C_9  and  C_13 
REMARK       I    between atoms: C_13  and  N_15 
REMARK    3  A    between atoms: N_15  and  C_16 
REMARK    4  A    between atoms: C_19  and  C_27 
REMARK    5  A    between atoms: C_21  and  O_22 
REMARK    6  A    between atoms: O_22  and  C_23 
REMARK    7  A    between atoms: C_23  and  C_24 
REMARK    8  A    between atoms: C_24  and  C_25 
REMARK    9  A    between atoms: C_25  and  O_26 
ROOT
HETATM    1  C   UNL     1       6.893  25.282  52.701  1.00  0.00     0.068 A 
HETATM    2  C   UNL     1       7.756  24.331  52.154  1.00  0.00     0.033 A 
HETATM    3  C   UNL     1       8.146  23.213  52.899  1.00  0.00     0.015 A 
HETATM    4  C   UNL     1       7.680  23.025  54.203  1.00  0.00    -0.020 A 
HETATM    5  C   UNL     1       6.822  23.985  54.759  1.00  0.00     0.051 A 
HETATM    6  C   UNL     1       6.427  25.110  54.021  1.00  0.00     0.096 A 
ENDROOT
BRANCH   1   7
HETATM    7  N   UNL     1       6.438  26.421  51.993  1.00  0.00    -0.324 N 
HETATM    8  C   UNL     1       5.395  26.497  51.090  1.00  0.00     0.228 C 
HETATM    9  O   UNL     1       4.707  25.556  50.706  1.00  0.00    -0.273 OA
HETATM   10  H   UNL     1       6.935  27.272  52.237  1.00  0.00     0.169 HD
BRANCH   8  11
HETATM   11  C   UNL     1       5.152  27.909  50.580  1.00  0.00     0.107 C 
HETATM   12  C   UNL     1       3.835  28.451  51.124  1.00  0.00     0.190 C 
HETATM   13  O   UNL     1       3.644  29.823  50.768  1.00  0.00    -0.350 OA
HETATM   14  C   UNL     1       3.803  30.079  49.433  1.00  0.00     0.075 A 
HETATM   15  C   UNL     1       3.257  31.273  48.971  1.00  0.00     0.040 A 
HETATM   16  C   UNL     1       4.498  29.232  48.562  1.00  0.00    -0.021 A 
HETATM   17  C   UNL     1       3.379  31.618  47.625  1.00  0.00     0.039 A 
HETATM   18  C   UNL     1       4.059  30.782  46.737  1.00  0.00     0.068 A 
HETATM   19  C   UNL     1       4.611  29.588  47.206  1.00  0.00     0.046 A 
HETATM   20  C   UNL     1       5.094  27.941  49.055  1.00  0.00     0.058 C 
BRANCH  18  21
HETATM   21  O   UNL     1       4.107  31.241  45.450  1.00  0.00    -0.356 OA
HETATM   22  C   UNL     1       4.889  32.404  45.208  1.00  0.00     0.210 C 
ENDBRANCH  18  21
ENDBRANCH   8  11
ENDBRANCH   1   7
BRANCH   6  23
HETATM   23  O   UNL     1       5.594  26.104  54.491  1.00  0.00    -0.349 OA
BRANCH  23  24
HETATM   24  C   UNL     1       5.991  26.768  55.692  1.00  0.00     0.178 C 
BRANCH  24  25
HETATM   25  C   UNL     1       5.243  28.092  55.801  1.00  0.00     0.053 C 
BRANCH  25  26
HETATM   26  C   UNL     1       5.281  28.874  54.496  1.00  0.00     0.166 C 
BRANCH  26  27
HETATM   27  O   UNL     1       6.561  28.735  53.890  1.00  0.00    -0.401 OA
HETATM   28  H   UNL     1       7.232  28.938  54.563  1.00  0.00     0.209 HD
ENDBRANCH  26  27
ENDBRANCH  25  26
ENDBRANCH  24  25
ENDBRANCH  23  24
ENDBRANCH   6  23
BRANCH   4  29
HETATM   29  C   UNL     1       8.095  21.854  54.958  1.00  0.00     0.010 A 
HETATM   30  C   UNL     1       8.361  21.691  56.339  1.00  0.00     0.152 A 
HETATM   31  N   UNL     1       8.744  20.450  56.649  1.00  0.00    -0.187 NA
HETATM   32  N   UNL     1       8.736  19.814  55.468  1.00  0.00    -0.289 N 
HETATM   33  H   UNL     1       9.009  18.837  55.447  1.00  0.00     0.188 HD
HETATM   34  C   UNL     1       8.354  20.609  54.425  1.00  0.00     0.123 A 
ENDBRANCH   4  29
TORSDOF 9
ENDMDL
MODEL 10
REMARK VINA RESULT:      -8.3      3.452     10.153
REMARK  9 active torsions:
REMARK  status: ('A' for Active; 'I' for Inactive)
REMARK    1  A    between atoms: O_2  and  C_3 
REMARK    2  A    between atoms: C_9  and  C_13 
REMARK       I    between atoms: C_13  and  N_15 
REMARK    3  A    between atoms: N_15  and  C_16 
REMARK    4  A    between atoms: C_19  and  C_27 
REMARK    5  A    between atoms: C_21  and  O_22 
REMARK    6  A    between atoms: O_22  and  C_23 
REMARK    7  A    between atoms: C_23  and  C_24 
REMARK    8  A    between atoms: C_24  and  C_25 
REMARK    9  A    between atoms: C_25  and  O_26 
ROOT
HETATM    1  C   UNL     1       6.669  32.947  62.856  1.00  0.00     0.068 A 
HETATM    2  C   UNL     1       7.726  33.143  63.745  1.00  0.00     0.033 A 
HETATM    3  C   UNL     1       7.482  33.555  65.060  1.00  0.00     0.015 A 
HETATM    4  C   UNL     1       6.178  33.776  65.509  1.00  0.00    -0.020 A 
HETATM    5  C   UNL     1       5.114  33.591  64.614  1.00  0.00     0.051 A 
HETATM    6  C   UNL     1       5.349  33.181  63.293  1.00  0.00     0.096 A 
ENDROOT
BRANCH   1   7
HETATM    7  N   UNL     1       6.843  32.506  61.521  1.00  0.00    -0.324 N 
HETATM    8  C   UNL     1       8.012  32.090  60.912  1.00  0.00     0.228 C 
HETATM    9  O   UNL     1       9.126  32.082  61.426  1.00  0.00    -0.273 OA
HETATM   10  H   UNL     1       5.977  32.464  60.994  1.00  0.00     0.169 HD
BRANCH   8  11
HETATM   11  C   UNL     1       7.802  31.619  59.482  1.00  0.00     0.107 C 
HETATM   12  C   UNL     1       6.355  31.840  59.056  1.00  0.00     0.190 C 
HETATM   13  O   UNL     1       6.161  31.530  57.673  1.00  0.00    -0.350 OA
HETATM   14  C   UNL     1       6.630  30.297  57.309  1.00  0.00     0.075 A 
HETATM   15  C   UNL     1       6.132  29.782  56.116  1.00  0.00     0.040 A 
HETATM   16  C   UNL     1       7.581  29.583  58.047  1.00  0.00    -0.021 A 
HETATM   17  C   UNL     1       6.562  28.534  55.663  1.00  0.00     0.039 A 
HETATM   18  C   UNL     1       7.502  27.802  56.390  1.00  0.00     0.068 A 
HETATM   19  C   UNL     1       8.004  28.325  57.585  1.00  0.00     0.046 A 
HETATM   20  C   UNL     1       8.127  30.135  59.337  1.00  0.00     0.058 C 
BRANCH  18  21
HETATM   21  O   UNL     1       7.838  26.599  55.833  1.00  0.00    -0.356 OA
HETATM   22  C   UNL     1       6.768  25.742  55.455  1.00  0.00     0.210 C 
ENDBRANCH  18  21
ENDBRANCH   8  11
ENDBRANCH   1   7
BRANCH   6  23
HETATM   23  O   UNL     1       4.364  32.982  62.348  1.00  0.00    -0.349 OA
BRANCH  23  24
HETATM   24  C   UNL     1       3.103  33.611  62.583  1.00  0.00     0.178 C 
BRANCH  24  25
HETATM   25  C   UNL     1       2.547  34.122  61.258  1.00  0.00     0.053 C 
BRANCH  25  26
HETATM   26  C   UNL     1       3.116  33.358  60.071  1.00  0.00     0.166 C 
BRANCH  26  27
HETATM   27  O   UNL     1       2.676  32.006  60.114  1.00  0.00    -0.401 OA
HETATM   28  H   UNL     1       2.420  31.748  59.213  1.00  0.00     0.209 HD
ENDBRANCH  26  27
ENDBRANCH  25  26
ENDBRANCH  24  25
ENDBRANCH  23  24
ENDBRANCH   6  23
BRANCH   4  29
HETATM   29  C   UNL     1       5.947  34.200  66.881  1.00  0.00     0.010 A 
HETATM   30  C   UNL     1       6.853  34.414  67.947  1.00  0.00     0.152 A 
HETATM   31  N   UNL     1       6.244  34.783  69.077  1.00  0.00    -0.187 NA
HETATM   32  N   UNL     1       4.945  34.798  68.744  1.00  0.00    -0.289 N 
HETATM   33  H   UNL     1       4.268  35.044  69.459  1.00  0.00     0.188 HD
HETATM   34  C   UNL     1       4.713  34.458  67.441  1.00  0.00     0.123 A 
ENDBRANCH   4  29
TORSDOF 9
ENDMDL
