MODEL 1
REMARK VINA RESULT:      -9.6      0.000      0.000
REMARK  6 active torsions:
REMARK  status: ('A' for Active; 'I' for Inactive)
REMARK    1  A    between atoms: O_2  and  C_3 
REMARK    2  A    between atoms: C_6  and  C_7 
REMARK    3  A    between atoms: C_12  and  C_13 
REMARK       I    between atoms: C_13  and  N_14 
REMARK    4  A    between atoms: N_14  and  C_15 
REMARK    5  A    between atoms: C_15  and  C_16 
REMARK    6  A    between atoms: C_24  and  C_25 
ROOT
HETATM    1  C   UNL     1       5.376  26.312  53.401  1.00  0.00     0.118 C 
HETATM    2  N   UNL     1       4.603  26.685  54.581  1.00  0.00    -0.366 N 
HETATM    3  C   UNL     1       4.843  27.806  55.291  1.00  0.00     0.123 A 
HETATM    4  N   UNL     1       5.840  28.677  54.948  1.00  0.00    -0.240 N 
HETATM    5  N   UNL     1       5.908  29.768  55.732  1.00  0.00    -0.165 NA
HETATM    6  C   UNL     1       4.945  29.553  56.658  1.00  0.00     0.148 A 
HETATM    7  C   UNL     1       4.252  28.336  56.408  1.00  0.00     0.088 A 
HETATM    8  C   UNL     1       6.728  28.488  53.820  1.00  0.00     0.221 C 
HETATM    9  C   UNL     1       6.089  27.535  52.794  1.00  0.00     0.066 C 
HETATM   10  H   UNL     1       3.916  25.998  54.890  1.00  0.00     0.161 HD
ENDROOT
BRANCH   6  11
HETATM   11  C   UNL     1       4.698  30.491  57.765  1.00  0.00     0.272 C 
HETATM   12  N   UNL     1       5.852  31.015  58.296  1.00  0.00    -0.351 N 
HETATM   13  H   UNL     1       6.717  30.741  57.839  1.00  0.00     0.163 HD
HETATM   14  O   UNL     1       3.571  30.756  58.171  1.00  0.00    -0.266 OA
BRANCH  12  15
HETATM   15  C   UNL     1       5.869  31.938  59.398  1.00  0.00     0.161 C 
BRANCH  15  16
HETATM   16  C   UNL     1       7.197  31.910  60.106  1.00  0.00    -0.041 A 
HETATM   17  C   UNL     1       8.390  31.865  59.370  1.00  0.00     0.009 A 
HETATM   18  C   UNL     1       9.623  31.835  60.021  1.00  0.00     0.001 A 
HETATM   19  C   UNL     1       9.678  31.839  61.414  1.00  0.00     0.000 A 
HETATM   20  C   UNL     1       8.498  31.869  62.157  1.00  0.00     0.001 A 
HETATM   21  C   UNL     1       7.263  31.901  61.507  1.00  0.00     0.009 A 
ENDBRANCH  15  16
ENDBRANCH  12  15
ENDBRANCH   6  11
BRANCH   8  22
HETATM   22  C   UNL     1       8.096  28.063  54.302  1.00  0.00     0.409 C 
HETATM   23  F   UNL     1       8.940  29.084  54.533  1.00  0.00    -0.169 F 
HETATM   24  F   UNL     1       7.986  27.360  55.460  1.00  0.00    -0.169 F 
HETATM   25  F   UNL     1       8.701  27.234  53.418  1.00  0.00    -0.169 F 
ENDBRANCH   8  22
BRANCH   1  26
HETATM   26  C   UNL     1       6.274  25.112  53.640  1.00  0.00    -0.035 A 
HETATM   27  C   UNL     1       6.974  24.557  52.555  1.00  0.00     0.012 A 
HETATM   28  C   UNL     1       7.815  23.455  52.731  1.00  0.00     0.037 A 
HETATM   29  C   UNL     1       7.988  22.886  53.992  1.00  0.00     0.068 A 
HETATM   30  C   UNL     1       7.284  23.411  55.073  1.00  0.00     0.037 A 
HETATM   31  C   UNL     1       6.432  24.508  54.895  1.00  0.00     0.012 A 
BRANCH  29  32
HETATM   32  O   UNL     1       8.852  21.828  54.033  1.00  0.00    -0.356 OA
HETATM   33  C   UNL     1       8.517  20.704  53.227  1.00  0.00     0.210 C 
ENDBRANCH  29  32
ENDBRANCH   1  26
TORSDOF 6
ENDMDL
MODEL 2
REMARK VINA RESULT:      -9.3      2.857      4.093
REMARK  6 active torsions:
REMARK  status: ('A' for Active; 'I' for Inactive)
REMARK    1  A    between atoms: O_2  and  C_3 
REMARK    2  A    between atoms: C_6  and  C_7 
REMARK    3  A    between atoms: C_12  and  C_13 
REMARK       I    between atoms: C_13  and  N_14 
REMARK    4  A    between atoms: N_14  and  C_15 
REMARK    5  A    between atoms: C_15  and  C_16 
REMARK    6  A    between atoms: C_24  and  C_25 
ROOT
HETATM    1  C   UNL     1       6.421  25.731  55.754  1.00  0.00     0.118 C 
HETATM    2  N   UNL     1       7.708  26.338  56.075  1.00  0.00    -0.366 N 
HETATM    3  C   UNL     1       7.824  27.490  56.766  1.00  0.00     0.123 A 
HETATM    4  N   UNL     1       6.730  28.174  57.216  1.00  0.00    -0.240 N 
HETATM    5  N   UNL     1       7.026  29.274  57.931  1.00  0.00    -0.165 NA
HETATM    6  C   UNL     1       8.377  29.327  57.884  1.00  0.00     0.148 A 
HETATM    7  C   UNL     1       8.912  28.219  57.168  1.00  0.00     0.088 A 
HETATM    8  C   UNL     1       5.362  27.750  56.995  1.00  0.00     0.221 C 
HETATM    9  C   UNL     1       5.314  26.241  56.697  1.00  0.00     0.066 C 
HETATM   10  H   UNL     1       8.523  25.878  55.670  1.00  0.00     0.161 HD
ENDROOT
BRANCH   6  11
HETATM   11  C   UNL     1       9.141  30.420  58.506  1.00  0.00     0.272 C 
HETATM   12  N   UNL     1       8.677  30.762  59.753  1.00  0.00    -0.351 N 
HETATM   13  H   UNL     1       7.912  30.199  60.113  1.00  0.00     0.163 HD
HETATM   14  O   UNL     1      10.085  30.972  57.948  1.00  0.00    -0.266 OA
BRANCH  12  15
HETATM   15  C   UNL     1       9.247  31.814  60.550  1.00  0.00     0.161 C 
BRANCH  15  16
HETATM   16  C   UNL     1       8.244  32.347  61.539  1.00  0.00    -0.041 A 
HETATM   17  C   UNL     1       8.517  32.305  62.914  1.00  0.00     0.009 A 
HETATM   18  C   UNL     1       7.590  32.794  63.834  1.00  0.00     0.001 A 
HETATM   19  C   UNL     1       6.378  33.321  63.392  1.00  0.00     0.000 A 
HETATM   20  C   UNL     1       6.090  33.356  62.028  1.00  0.00     0.001 A 
HETATM   21  C   UNL     1       7.017  32.868  61.106  1.00  0.00     0.009 A 
ENDBRANCH  15  16
ENDBRANCH  12  15
ENDBRANCH   6  11
BRANCH   8  22
HETATM   22  C   UNL     1       4.715  28.618  55.940  1.00  0.00     0.409 C 
HETATM   23  F   UNL     1       3.892  27.952  55.109  1.00  0.00    -0.169 F 
HETATM   24  F   UNL     1       3.987  29.603  56.525  1.00  0.00    -0.169 F 
HETATM   25  F   UNL     1       5.640  29.243  55.172  1.00  0.00    -0.169 F 
ENDBRANCH   8  22
BRANCH   1  26
HETATM   26  C   UNL     1       6.080  25.818  54.277  1.00  0.00    -0.035 A 
HETATM   27  C   UNL     1       5.144  24.919  53.739  1.00  0.00     0.012 A 
HETATM   28  C   UNL     1       4.797  24.968  52.385  1.00  0.00     0.037 A 
HETATM   29  C   UNL     1       5.367  25.918  51.539  1.00  0.00     0.068 A 
HETATM   30  C   UNL     1       6.313  26.802  52.053  1.00  0.00     0.037 A 
HETATM   31  C   UNL     1       6.669  26.746  53.406  1.00  0.00     0.012 A 
BRANCH  29  32
HETATM   32  O   UNL     1       4.929  25.873  50.244  1.00  0.00    -0.356 OA
HETATM   33  C   UNL     1       4.707  27.126  49.607  1.00  0.00     0.210 C 
ENDBRANCH  29  32
ENDBRANCH   1  26
TORSDOF 6
ENDMDL
MODEL 3
REMARK VINA RESULT:      -9.1      1.770      2.542
REMARK  6 active torsions:
REMARK  status: ('A' for Active; 'I' for Inactive)
REMARK    1  A    between atoms: O_2  and  C_3 
REMARK    2  A    between atoms: C_6  and  C_7 
REMARK    3  A    between atoms: C_12  and  C_13 
REMARK       I    between atoms: C_13  and  N_14 
REMARK    4  A    between atoms: N_14  and  C_15 
REMARK    5  A    between atoms: C_15  and  C_16 
REMARK    6  A    between atoms: C_24  and  C_25 
ROOT
HETATM    1  C   UNL     1       6.524  27.637  54.587  1.00  0.00     0.118 C 
HETATM    2  N   UNL     1       5.328  28.205  55.199  1.00  0.00    -0.366 N 
HETATM    3  C   UNL     1       5.373  29.145  56.165  1.00  0.00     0.123 A 
HETATM    4  N   UNL     1       6.558  29.631  56.641  1.00  0.00    -0.240 N 
HETATM    5  N   UNL     1       6.422  30.599  57.565  1.00  0.00    -0.165 NA
HETATM    6  C   UNL     1       5.082  30.693  57.730  1.00  0.00     0.148 A 
HETATM    7  C   UNL     1       4.393  29.801  56.862  1.00  0.00     0.088 A 
HETATM    8  C   UNL     1       7.859  29.194  56.178  1.00  0.00     0.221 C 
HETATM    9  C   UNL     1       7.740  28.562  54.779  1.00  0.00     0.066 C 
HETATM   10  H   UNL     1       4.445  27.786  54.908  1.00  0.00     0.161 HD
ENDROOT
BRANCH   6  11
HETATM   11  C   UNL     1       4.475  31.613  58.704  1.00  0.00     0.272 C 
HETATM   12  N   UNL     1       5.344  32.003  59.694  1.00  0.00    -0.351 N 
HETATM   13  H   UNL     1       6.296  31.661  59.610  1.00  0.00     0.163 HD
HETATM   14  O   UNL     1       3.304  31.974  58.635  1.00  0.00    -0.266 OA
BRANCH  12  15
HETATM   15  C   UNL     1       4.977  32.883  60.770  1.00  0.00     0.161 C 
BRANCH  15  16
HETATM   16  C   UNL     1       6.015  32.867  61.860  1.00  0.00    -0.041 A 
HETATM   17  C   UNL     1       5.785  33.546  63.065  1.00  0.00     0.009 A 
HETATM   18  C   UNL     1       6.745  33.538  64.077  1.00  0.00     0.001 A 
HETATM   19  C   UNL     1       7.949  32.860  63.891  1.00  0.00     0.000 A 
HETATM   20  C   UNL     1       8.194  32.192  62.692  1.00  0.00     0.001 A 
HETATM   21  C   UNL     1       7.234  32.199  61.679  1.00  0.00     0.009 A 
ENDBRANCH  15  16
ENDBRANCH  12  15
ENDBRANCH   6  11
BRANCH   8  22
HETATM   22  C   UNL     1       8.506  28.303  57.214  1.00  0.00     0.409 C 
HETATM   23  F   UNL     1       9.125  27.224  56.704  1.00  0.00    -0.169 F 
HETATM   24  F   UNL     1       9.431  29.002  57.922  1.00  0.00    -0.169 F 
HETATM   25  F   UNL     1       7.603  27.855  58.120  1.00  0.00    -0.169 F 
ENDBRANCH   8  22
BRANCH   1  26
HETATM   26  C   UNL     1       6.761  26.191  54.988  1.00  0.00    -0.035 A 
HETATM   27  C   UNL     1       7.547  25.374  54.159  1.00  0.00     0.012 A 
HETATM   28  C   UNL     1       7.794  24.039  54.493  1.00  0.00     0.037 A 
HETATM   29  C   UNL     1       7.272  23.490  55.663  1.00  0.00     0.068 A 
HETATM   30  C   UNL     1       6.473  24.282  56.484  1.00  0.00     0.037 A 
HETATM   31  C   UNL     1       6.215  25.616  56.144  1.00  0.00     0.012 A 
BRANCH  29  32
HETATM   32  O   UNL     1       7.604  22.182  55.884  1.00  0.00    -0.356 OA
HETATM   33  C   UNL     1       8.933  21.800  55.545  1.00  0.00     0.210 C 
ENDBRANCH  29  32
ENDBRANCH   1  26
TORSDOF 6
ENDMDL
MODEL 4
REMARK VINA RESULT:      -9.1      2.118      2.814
REMARK  6 active torsions:
REMARK  status: ('A' for Active; 'I' for Inactive)
REMARK    1  A    between atoms: O_2  and  C_3 
REMARK    2  A    between atoms: C_6  and  C_7 
REMARK    3  A    between atoms: C_12  and  C_13 
REMARK       I    between atoms: C_13  and  N_14 
REMARK    4  A    between atoms: N_14  and  C_15 
REMARK    5  A    between atoms: C_15  and  C_16 
REMARK    6  A    between atoms: C_24  and  C_25 
ROOT
HETATM    1  C   UNL     1       5.916  25.503  56.103  1.00  0.00     0.118 C 
HETATM    2  N   UNL     1       6.697  26.051  57.206  1.00  0.00    -0.366 N 
HETATM    3  C   UNL     1       7.189  27.306  57.205  1.00  0.00     0.123 A 
HETATM    4  N   UNL     1       6.986  28.159  56.156  1.00  0.00    -0.240 N 
HETATM    5  N   UNL     1       7.499  29.388  56.341  1.00  0.00    -0.165 NA
HETATM    6  C   UNL     1       8.114  29.296  57.543  1.00  0.00     0.148 A 
HETATM    7  C   UNL     1       7.932  28.008  58.118  1.00  0.00     0.088 A 
HETATM    8  C   UNL     1       6.247  27.810  54.960  1.00  0.00     0.221 C 
HETATM    9  C   UNL     1       5.306  26.626  55.242  1.00  0.00     0.066 C 
HETATM   10  H   UNL     1       6.923  25.393  57.953  1.00  0.00     0.161 HD
ENDROOT
BRANCH   6  11
HETATM   11  C   UNL     1       8.865  30.419  58.127  1.00  0.00     0.272 C 
HETATM   12  N   UNL     1       8.193  31.045  59.148  1.00  0.00    -0.351 N 
HETATM   13  H   UNL     1       7.300  30.638  59.410  1.00  0.00     0.163 HD
HETATM   14  O   UNL     1       9.972  30.760  57.722  1.00  0.00    -0.266 OA
BRANCH  12  15
HETATM   15  C   UNL     1       8.713  32.181  59.861  1.00  0.00     0.161 C 
BRANCH  15  16
HETATM   16  C   UNL     1       7.965  32.400  61.149  1.00  0.00    -0.041 A 
HETATM   17  C   UNL     1       6.609  32.759  61.126  1.00  0.00     0.009 A 
HETATM   18  C   UNL     1       5.912  32.967  62.316  1.00  0.00     0.001 A 
HETATM   19  C   UNL     1       6.563  32.830  63.540  1.00  0.00     0.000 A 
HETATM   20  C   UNL     1       7.914  32.488  63.575  1.00  0.00     0.001 A 
HETATM   21  C   UNL     1       8.613  32.277  62.386  1.00  0.00     0.009 A 
ENDBRANCH  15  16
ENDBRANCH  12  15
ENDBRANCH   6  11
BRANCH   8  22
HETATM   22  C   UNL     1       7.201  27.590  53.808  1.00  0.00     0.409 C 
HETATM   23  F   UNL     1       6.617  27.124  52.690  1.00  0.00    -0.169 F 
HETATM   24  F   UNL     1       7.821  28.755  53.484  1.00  0.00    -0.169 F 
HETATM   25  F   UNL     1       8.188  26.721  54.136  1.00  0.00    -0.169 F 
ENDBRANCH   8  22
BRANCH   1  26
HETATM   26  C   UNL     1       6.668  24.444  55.317  1.00  0.00    -0.035 A 
HETATM   27  C   UNL     1       7.736  23.768  55.931  1.00  0.00     0.012 A 
HETATM   28  C   UNL     1       8.452  22.783  55.245  1.00  0.00     0.037 A 
HETATM   29  C   UNL     1       8.114  22.440  53.936  1.00  0.00     0.068 A 
HETATM   30  C   UNL     1       7.072  23.116  53.307  1.00  0.00     0.037 A 
HETATM   31  C   UNL     1       6.362  24.112  53.989  1.00  0.00     0.012 A 
BRANCH  29  32
HETATM   32  O   UNL     1       8.877  21.448  53.386  1.00  0.00    -0.356 OA
HETATM   33  C   UNL     1       8.730  20.149  53.949  1.00  0.00     0.210 C 
ENDBRANCH  29  32
ENDBRANCH   1  26
TORSDOF 6
ENDMDL
MODEL 5
REMARK VINA RESULT:      -8.9      6.114      9.520
REMARK  6 active torsions:
REMARK  status: ('A' for Active; 'I' for Inactive)
REMARK    1  A    between atoms: O_2  and  C_3 
REMARK    2  A    between atoms: C_6  and  C_7 
REMARK    3  A    between atoms: C_12  and  C_13 
REMARK       I    between atoms: C_13  and  N_14 
REMARK    4  A    between atoms: N_14  and  C_15 
REMARK    5  A    between atoms: C_15  and  C_16 
REMARK    6  A    between atoms: C_24  and  C_25 
ROOT
HETATM    1  C   UNL     1       4.992  29.211  48.268  1.00  0.00     0.118 C 
HETATM    2  N   UNL     1       5.221  29.121  49.705  1.00  0.00    -0.366 N 
HETATM    3  C   UNL     1       5.182  27.956  50.383  1.00  0.00     0.123 A 
HETATM    4  N   UNL     1       4.920  26.768  49.759  1.00  0.00    -0.240 N 
HETATM    5  N   UNL     1       4.970  25.698  50.572  1.00  0.00    -0.165 NA
HETATM    6  C   UNL     1       5.217  26.238  51.789  1.00  0.00     0.148 A 
HETATM    7  C   UNL     1       5.363  27.650  51.706  1.00  0.00     0.088 A 
HETATM    8  C   UNL     1       4.655  26.639  48.341  1.00  0.00     0.221 C 
HETATM    9  C   UNL     1       5.221  27.852  47.581  1.00  0.00     0.066 C 
HETATM   10  H   UNL     1       5.333  30.012  50.189  1.00  0.00     0.161 HD
ENDROOT
BRANCH   6  11
HETATM   11  C   UNL     1       5.304  25.417  53.007  1.00  0.00     0.272 C 
HETATM   12  N   UNL     1       6.551  25.436  53.583  1.00  0.00    -0.351 N 
HETATM   13  H   UNL     1       7.236  26.041  53.142  1.00  0.00     0.163 HD
HETATM   14  O   UNL     1       4.354  24.773  53.443  1.00  0.00    -0.266 OA
BRANCH  12  15
HETATM   15  C   UNL     1       6.887  24.696  54.770  1.00  0.00     0.161 C 
BRANCH  15  16
HETATM   16  C   UNL     1       7.338  23.301  54.428  1.00  0.00    -0.041 A 
HETATM   17  C   UNL     1       7.588  22.946  53.095  1.00  0.00     0.009 A 
HETATM   18  C   UNL     1       8.002  21.654  52.772  1.00  0.00     0.001 A 
HETATM   19  C   UNL     1       8.162  20.701  53.776  1.00  0.00     0.000 A 
HETATM   20  C   UNL     1       7.903  21.038  55.104  1.00  0.00     0.001 A 
HETATM   21  C   UNL     1       7.489  22.331  55.429  1.00  0.00     0.009 A 
ENDBRANCH  15  16
ENDBRANCH  12  15
ENDBRANCH   6  11
BRANCH   8  22
HETATM   22  C   UNL     1       3.182  26.388  48.110  1.00  0.00     0.409 C 
HETATM   23  F   UNL     1       2.371  27.079  48.931  1.00  0.00    -0.169 F 
HETATM   24  F   UNL     1       2.844  26.718  46.837  1.00  0.00    -0.169 F 
HETATM   25  F   UNL     1       2.871  25.077  48.252  1.00  0.00    -0.169 F 
ENDBRANCH   8  22
BRANCH   1  26
HETATM   26  C   UNL     1       3.673  29.879  47.922  1.00  0.00    -0.035 A 
HETATM   27  C   UNL     1       3.348  30.087  46.571  1.00  0.00     0.012 A 
HETATM   28  C   UNL     1       2.142  30.694  46.208  1.00  0.00     0.037 A 
HETATM   29  C   UNL     1       1.228  31.097  47.180  1.00  0.00     0.068 A 
HETATM   30  C   UNL     1       1.546  30.917  48.524  1.00  0.00     0.037 A 
HETATM   31  C   UNL     1       2.759  30.321  48.889  1.00  0.00     0.012 A 
BRANCH  29  32
HETATM   32  O   UNL     1       0.079  31.657  46.694  1.00  0.00    -0.356 OA
HETATM   33  C   UNL     1      -1.111  30.892  46.844  1.00  0.00     0.210 C 
ENDBRANCH  29  32
ENDBRANCH   1  26
TORSDOF 6
ENDMDL
MODEL 6
REMARK VINA RESULT:      -8.8      4.781      9.118
REMARK  6 active torsions:
REMARK  status: ('A' for Active; 'I' for Inactive)
REMARK    1  A    between atoms: O_2  and  C_3 
REMARK    2  A    between atoms: C_6  and  C_7 
REMARK    3  A    between atoms: C_12  and  C_13 
REMARK       I    between atoms: C_13  and  N_14 
REMARK    4  A    between atoms: N_14  and  C_15 
REMARK    5  A    between atoms: C_15  and  C_16 
REMARK    6  A    between atoms: C_24  and  C_25 
ROOT
HETATM    1  C   UNL     1       5.337  26.686  54.974  1.00  0.00     0.118 C 
HETATM    2  N   UNL     1       4.826  27.546  53.913  1.00  0.00    -0.366 N 
HETATM    3  C   UNL     1       4.920  27.232  52.605  1.00  0.00     0.123 A 
HETATM    4  N   UNL     1       5.509  26.073  52.182  1.00  0.00    -0.240 N 
HETATM    5  N   UNL     1       5.471  25.892  50.850  1.00  0.00    -0.165 NA
HETATM    6  C   UNL     1       4.882  27.023  50.394  1.00  0.00     0.148 A 
HETATM    7  C   UNL     1       4.516  27.881  51.468  1.00  0.00     0.088 A 
HETATM    8  C   UNL     1       6.089  25.088  53.071  1.00  0.00     0.221 C 
HETATM    9  C   UNL     1       5.497  25.234  54.485  1.00  0.00     0.066 C 
HETATM   10  H   UNL     1       4.463  28.449  54.216  1.00  0.00     0.161 HD
ENDROOT
BRANCH   6  11
HETATM   11  C   UNL     1       4.680  27.277  48.959  1.00  0.00     0.272 C 
HETATM   12  N   UNL     1       4.143  28.515  48.701  1.00  0.00    -0.351 N 
HETATM   13  H   UNL     1       4.001  29.116  49.507  1.00  0.00     0.163 HD
HETATM   14  O   UNL     1       4.953  26.452  48.094  1.00  0.00    -0.266 OA
BRANCH  12  15
HETATM   15  C   UNL     1       3.836  28.986  47.377  1.00  0.00     0.161 C 
BRANCH  15  16
HETATM   16  C   UNL     1       2.373  28.814  47.068  1.00  0.00    -0.041 A 
HETATM   17  C   UNL     1       1.820  27.530  46.959  1.00  0.00     0.009 A 
HETATM   18  C   UNL     1       0.465  27.366  46.669  1.00  0.00     0.001 A 
HETATM   19  C   UNL     1      -0.348  28.481  46.474  1.00  0.00     0.000 A 
HETATM   20  C   UNL     1       0.194  29.762  46.566  1.00  0.00     0.001 A 
HETATM   21  C   UNL     1       1.549  29.929  46.857  1.00  0.00     0.009 A 
ENDBRANCH  15  16
ENDBRANCH  12  15
ENDBRANCH   6  11
BRANCH   8  22
HETATM   22  C   UNL     1       7.598  25.162  53.013  1.00  0.00     0.409 C 
HETATM   23  F   UNL     1       8.081  26.404  52.832  1.00  0.00    -0.169 F 
HETATM   24  F   UNL     1       8.135  24.684  54.165  1.00  0.00    -0.169 F 
HETATM   25  F   UNL     1       8.098  24.389  52.019  1.00  0.00    -0.169 F 
ENDBRANCH   8  22
BRANCH   1  26
HETATM   26  C   UNL     1       6.565  27.260  55.658  1.00  0.00    -0.035 A 
HETATM   27  C   UNL     1       7.110  28.465  55.183  1.00  0.00     0.012 A 
HETATM   28  C   UNL     1       8.237  29.031  55.787  1.00  0.00     0.037 A 
HETATM   29  C   UNL     1       8.841  28.415  56.883  1.00  0.00     0.068 A 
HETATM   30  C   UNL     1       8.326  27.209  57.351  1.00  0.00     0.037 A 
HETATM   31  C   UNL     1       7.205  26.635  56.739  1.00  0.00     0.012 A 
BRANCH  29  32
HETATM   32  O   UNL     1       9.921  29.080  57.393  1.00  0.00    -0.356 OA
HETATM   33  C   UNL     1      10.509  30.070  56.557  1.00  0.00     0.210 C 
ENDBRANCH  29  32
ENDBRANCH   1  26
TORSDOF 6
ENDMDL
MODEL 7
REMARK VINA RESULT:      -8.5      4.527      8.416
REMARK  6 active torsions:
REMARK  status: ('A' for Active; 'I' for Inactive)
REMARK    1  A    between atoms: O_2  and  C_3 
REMARK    2  A    between atoms: C_6  and  C_7 
REMARK    3  A    between atoms: C_12  and  C_13 
REMARK       I    between atoms: C_13  and  N_14 
REMARK    4  A    between atoms: N_14  and  C_15 
REMARK    5  A    between atoms: C_15  and  C_16 
REMARK    6  A    between atoms: C_24  and  C_25 
ROOT
HETATM    1  C   UNL     1       5.324  26.530  54.964  1.00  0.00     0.118 C 
HETATM    2  N   UNL     1       4.757  27.402  53.941  1.00  0.00    -0.366 N 
HETATM    3  C   UNL     1       4.856  27.145  52.621  1.00  0.00     0.123 A 
HETATM    4  N   UNL     1       5.503  26.037  52.149  1.00  0.00    -0.240 N 
HETATM    5  N   UNL     1       5.464  25.907  50.811  1.00  0.00    -0.165 NA
HETATM    6  C   UNL     1       4.810  27.020  50.405  1.00  0.00     0.148 A 
HETATM    7  C   UNL     1       4.408  27.815  51.514  1.00  0.00     0.088 A 
HETATM    8  C   UNL     1       6.144  25.050  52.995  1.00  0.00     0.221 C 
HETATM    9  C   UNL     1       5.558  25.109  54.417  1.00  0.00     0.066 C 
HETATM   10  H   UNL     1       4.348  28.271  54.283  1.00  0.00     0.161 HD
ENDROOT
BRANCH   6  11
HETATM   11  C   UNL     1       4.582  27.319  48.982  1.00  0.00     0.272 C 
HETATM   12  N   UNL     1       4.175  28.613  48.761  1.00  0.00    -0.351 N 
HETATM   13  H   UNL     1       4.132  29.212  49.580  1.00  0.00     0.163 HD
HETATM   14  O   UNL     1       4.728  26.483  48.096  1.00  0.00    -0.266 OA
BRANCH  12  15
HETATM   15  C   UNL     1       3.871  29.136  47.457  1.00  0.00     0.161 C 
BRANCH  15  16
HETATM   16  C   UNL     1       4.520  30.479  47.248  1.00  0.00    -0.041 A 
HETATM   17  C   UNL     1       4.992  31.213  48.345  1.00  0.00     0.009 A 
HETATM   18  C   UNL     1       5.591  32.459  48.158  1.00  0.00     0.001 A 
HETATM   19  C   UNL     1       5.716  32.988  46.875  1.00  0.00     0.000 A 
HETATM   20  C   UNL     1       5.237  32.273  45.778  1.00  0.00     0.001 A 
HETATM   21  C   UNL     1       4.639  31.026  45.963  1.00  0.00     0.009 A 
ENDBRANCH  15  16
ENDBRANCH  12  15
ENDBRANCH   6  11
BRANCH   8  22
HETATM   22  C   UNL     1       7.646  25.209  52.930  1.00  0.00     0.409 C 
HETATM   23  F   UNL     1       8.302  24.674  53.975  1.00  0.00    -0.169 F 
HETATM   24  F   UNL     1       8.130  24.622  51.805  1.00  0.00    -0.169 F 
HETATM   25  F   UNL     1       8.007  26.513  52.856  1.00  0.00    -0.169 F 
ENDBRANCH   8  22
BRANCH   1  26
HETATM   26  C   UNL     1       6.525  27.143  55.662  1.00  0.00    -0.035 A 
HETATM   27  C   UNL     1       6.933  28.439  55.306  1.00  0.00     0.012 A 
HETATM   28  C   UNL     1       8.030  29.043  55.927  1.00  0.00     0.037 A 
HETATM   29  C   UNL     1       8.740  28.374  56.923  1.00  0.00     0.068 A 
HETATM   30  C   UNL     1       8.361  27.080  57.272  1.00  0.00     0.037 A 
HETATM   31  C   UNL     1       7.270  26.470  56.642  1.00  0.00     0.012 A 
BRANCH  29  32
HETATM   32  O   UNL     1       9.778  29.081  57.465  1.00  0.00    -0.356 OA
HETATM   33  C   UNL     1      10.597  29.803  56.551  1.00  0.00     0.210 C 
ENDBRANCH  29  32
ENDBRANCH   1  26
TORSDOF 6
ENDMDL
MODEL 8
REMARK VINA RESULT:      -8.4      5.436     11.488
REMARK  6 active torsions:
REMARK  status: ('A' for Active; 'I' for Inactive)
REMARK    1  A    between atoms: O_2  and  C_3 
REMARK    2  A    between atoms: C_6  and  C_7 
REMARK    3  A    between atoms: C_12  and  C_13 
REMARK       I    between atoms: C_13  and  N_14 
REMARK    4  A    between atoms: N_14  and  C_15 
REMARK    5  A    between atoms: C_15  and  C_16 
REMARK    6  A    between atoms: C_24  and  C_25 
ROOT
HETATM    1  C   UNL     1       4.316  34.210  62.346  1.00  0.00     0.118 C 
HETATM    2  N   UNL     1       4.857  33.869  61.036  1.00  0.00    -0.366 N 
HETATM    3  C   UNL     1       5.791  32.914  60.853  1.00  0.00     0.123 A 
HETATM    4  N   UNL     1       6.299  32.194  61.899  1.00  0.00    -0.240 N 
HETATM    5  N   UNL     1       7.182  31.247  61.535  1.00  0.00    -0.165 NA
HETATM    6  C   UNL     1       7.288  31.411  60.196  1.00  0.00     0.148 A 
HETATM    7  C   UNL     1       6.424  32.442  59.733  1.00  0.00     0.088 A 
HETATM    8  C   UNL     1       5.905  32.382  63.280  1.00  0.00     0.221 C 
HETATM    9  C   UNL     1       4.526  33.061  63.351  1.00  0.00     0.066 C 
HETATM   10  H   UNL     1       4.545  34.459  60.265  1.00  0.00     0.161 HD
ENDROOT
BRANCH   6  11
HETATM   11  C   UNL     1       8.204  30.601  59.377  1.00  0.00     0.272 C 
HETATM   12  N   UNL     1       7.558  29.651  58.624  1.00  0.00    -0.351 N 
HETATM   13  H   UNL     1       6.544  29.653  58.678  1.00  0.00     0.163 HD
HETATM   14  O   UNL     1       9.421  30.760  59.388  1.00  0.00    -0.266 OA
BRANCH  12  15
HETATM   15  C   UNL     1       8.240  28.726  57.759  1.00  0.00     0.161 C 
BRANCH  15  16
HETATM   16  C   UNL     1       7.365  27.546  57.432  1.00  0.00    -0.041 A 
HETATM   17  C   UNL     1       7.902  26.251  57.415  1.00  0.00     0.009 A 
HETATM   18  C   UNL     1       7.097  25.154  57.109  1.00  0.00     0.001 A 
HETATM   19  C   UNL     1       5.749  25.340  56.806  1.00  0.00     0.000 A 
HETATM   20  C   UNL     1       5.207  26.624  56.805  1.00  0.00     0.001 A 
HETATM   21  C   UNL     1       6.011  27.723  57.113  1.00  0.00     0.009 A 
ENDBRANCH  15  16
ENDBRANCH  12  15
ENDBRANCH   6  11
BRANCH   8  22
HETATM   22  C   UNL     1       6.998  33.103  64.036  1.00  0.00     0.409 C 
HETATM   23  F   UNL     1       6.637  33.514  65.265  1.00  0.00    -0.169 F 
HETATM   24  F   UNL     1       8.078  32.293  64.182  1.00  0.00    -0.169 F 
HETATM   25  F   UNL     1       7.436  34.193  63.361  1.00  0.00    -0.169 F 
ENDBRANCH   8  22
BRANCH   1  26
HETATM   26  C   UNL     1       4.776  35.571  62.838  1.00  0.00    -0.035 A 
HETATM   27  C   UNL     1       4.531  35.931  64.174  1.00  0.00     0.012 A 
HETATM   28  C   UNL     1       4.942  37.173  64.669  1.00  0.00     0.037 A 
HETATM   29  C   UNL     1       5.614  38.079  63.850  1.00  0.00     0.068 A 
HETATM   30  C   UNL     1       5.844  37.744  62.518  1.00  0.00     0.037 A 
HETATM   31  C   UNL     1       5.422  36.506  62.017  1.00  0.00     0.012 A 
BRANCH  29  32
HETATM   32  O   UNL     1       5.979  39.246  64.460  1.00  0.00    -0.356 OA
HETATM   33  C   UNL     1       7.085  39.939  63.892  1.00  0.00     0.210 C 
ENDBRANCH  29  32
ENDBRANCH   1  26
TORSDOF 6
ENDMDL
MODEL 9
REMARK VINA RESULT:      -8.3      4.755      9.166
REMARK  6 active torsions:
REMARK  status: ('A' for Active; 'I' for Inactive)
REMARK    1  A    between atoms: O_2  and  C_3 
REMARK    2  A    between atoms: C_6  and  C_7 
REMARK    3  A    between atoms: C_12  and  C_13 
REMARK       I    between atoms: C_13  and  N_14 
REMARK    4  A    between atoms: N_14  and  C_15 
REMARK    5  A    between atoms: C_15  and  C_16 
REMARK    6  A    between atoms: C_24  and  C_25 
ROOT
HETATM    1  C   UNL     1       4.981  26.583  55.032  1.00  0.00     0.118 C 
HETATM    2  N   UNL     1       4.425  27.520  54.063  1.00  0.00    -0.366 N 
HETATM    3  C   UNL     1       4.680  27.446  52.741  1.00  0.00     0.123 A 
HETATM    4  N   UNL     1       5.488  26.477  52.216  1.00  0.00    -0.240 N 
HETATM    5  N   UNL     1       5.594  26.517  50.876  1.00  0.00    -0.165 NA
HETATM    6  C   UNL     1       4.865  27.604  50.534  1.00  0.00     0.148 A 
HETATM    7  C   UNL     1       4.271  28.206  51.677  1.00  0.00     0.088 A 
HETATM    8  C   UNL     1       6.148  25.457  53.006  1.00  0.00     0.221 C 
HETATM    9  C   UNL     1       5.423  25.274  54.351  1.00  0.00     0.066 C 
HETATM   10  H   UNL     1       3.891  28.294  54.457  1.00  0.00     0.161 HD
ENDROOT
BRANCH   6  11
HETATM   11  C   UNL     1       4.745  28.060  49.140  1.00  0.00     0.272 C 
HETATM   12  N   UNL     1       3.751  28.991  48.960  1.00  0.00    -0.351 N 
HETATM   13  H   UNL     1       3.262  29.288  49.799  1.00  0.00     0.163 HD
HETATM   14  O   UNL     1       5.457  27.631  48.237  1.00  0.00    -0.266 OA
BRANCH  12  15
HETATM   15  C   UNL     1       3.429  29.571  47.684  1.00  0.00     0.161 C 
BRANCH  15  16
HETATM   16  C   UNL     1       2.138  29.013  47.146  1.00  0.00    -0.041 A 
HETATM   17  C   UNL     1       1.118  29.877  46.723  1.00  0.00     0.009 A 
HETATM   18  C   UNL     1      -0.082  29.365  46.228  1.00  0.00     0.001 A 
HETATM   19  C   UNL     1      -0.279  27.987  46.160  1.00  0.00     0.000 A 
HETATM   20  C   UNL     1       0.723  27.119  46.591  1.00  0.00     0.001 A 
HETATM   21  C   UNL     1       1.925  27.629  47.086  1.00  0.00     0.009 A 
ENDBRANCH  15  16
ENDBRANCH  12  15
ENDBRANCH   6  11
BRANCH   8  22
HETATM   22  C   UNL     1       7.622  25.768  53.126  1.00  0.00     0.409 C 
HETATM   23  F   UNL     1       8.362  25.341  52.087  1.00  0.00    -0.169 F 
HETATM   24  F   UNL     1       7.811  27.109  53.232  1.00  0.00    -0.169 F 
HETATM   25  F   UNL     1       8.157  25.226  54.247  1.00  0.00    -0.169 F 
ENDBRANCH   8  22
BRANCH   1  26
HETATM   26  C   UNL     1       6.033  27.216  55.926  1.00  0.00    -0.035 A 
HETATM   27  C   UNL     1       6.334  28.579  55.767  1.00  0.00     0.012 A 
HETATM   28  C   UNL     1       7.292  29.202  56.573  1.00  0.00     0.037 A 
HETATM   29  C   UNL     1       7.966  28.484  57.560  1.00  0.00     0.068 A 
HETATM   30  C   UNL     1       7.695  27.127  57.715  1.00  0.00     0.037 A 
HETATM   31  C   UNL     1       6.744  26.500  56.901  1.00  0.00     0.012 A 
BRANCH  29  32
HETATM   32  O   UNL     1       8.862  29.213  58.292  1.00  0.00    -0.356 OA
HETATM   33  C   UNL     1       8.314  30.112  59.250  1.00  0.00     0.210 C 
ENDBRANCH  29  32
ENDBRANCH   1  26
TORSDOF 6
ENDMDL
MODEL 10
REMARK VINA RESULT:      -8.3      5.178      8.696
REMARK  6 active torsions:
REMARK  status: ('A' for Active; 'I' for Inactive)
REMARK    1  A    between atoms: O_2  and  C_3 
REMARK    2  A    between atoms: C_6  and  C_7 
REMARK    3  A    between atoms: C_12  and  C_13 
REMARK       I    between atoms: C_13  and  N_14 
REMARK    4  A    between atoms: N_14  and  C_15 
REMARK    5  A    between atoms: C_15  and  C_16 
REMARK    6  A    between atoms: C_24  and  C_25 
ROOT
HETATM    1  C   UNL     1       3.820  28.827  49.691  1.00  0.00     0.118 C 
HETATM    2  N   UNL     1       4.806  27.876  50.192  1.00  0.00    -0.366 N 
HETATM    3  C   UNL     1       4.884  27.515  51.488  1.00  0.00     0.123 A 
HETATM    4  N   UNL     1       4.034  28.023  52.430  1.00  0.00    -0.240 N 
HETATM    5  N   UNL     1       4.216  27.517  53.663  1.00  0.00    -0.165 NA
HETATM    6  C   UNL     1       5.276  26.689  53.512  1.00  0.00     0.148 A 
HETATM    7  C   UNL     1       5.715  26.657  52.159  1.00  0.00     0.088 A 
HETATM    8  C   UNL     1       2.991  28.987  52.145  1.00  0.00     0.221 C 
HETATM    9  C   UNL     1       2.621  28.944  50.651  1.00  0.00     0.066 C 
HETATM   10  H   UNL     1       5.496  27.559  49.510  1.00  0.00     0.161 HD
ENDROOT
BRANCH   6  11
HETATM   11  C   UNL     1       5.860  25.949  54.642  1.00  0.00     0.272 C 
HETATM   12  N   UNL     1       7.015  25.284  54.312  1.00  0.00    -0.351 N 
HETATM   13  H   UNL     1       7.353  25.420  53.364  1.00  0.00     0.163 HD
HETATM   14  O   UNL     1       5.346  25.925  55.756  1.00  0.00    -0.266 OA
BRANCH  12  15
HETATM   15  C   UNL     1       7.758  24.476  55.241  1.00  0.00     0.161 C 
BRANCH  15  16
HETATM   16  C   UNL     1       7.843  23.049  54.770  1.00  0.00    -0.041 A 
HETATM   17  C   UNL     1       7.819  21.996  55.696  1.00  0.00     0.009 A 
HETATM   18  C   UNL     1       7.902  20.672  55.265  1.00  0.00     0.001 A 
HETATM   19  C   UNL     1       8.019  20.386  53.906  1.00  0.00     0.000 A 
HETATM   20  C   UNL     1       8.057  21.425  52.977  1.00  0.00     0.001 A 
HETATM   21  C   UNL     1       7.974  22.750  53.406  1.00  0.00     0.009 A 
ENDBRANCH  15  16
ENDBRANCH  12  15
ENDBRANCH   6  11
BRANCH   8  22
HETATM   22  C   UNL     1       3.395  30.352  52.651  1.00  0.00     0.409 C 
HETATM   23  F   UNL     1       4.721  30.577  52.631  1.00  0.00    -0.169 F 
HETATM   24  F   UNL     1       2.810  31.322  51.902  1.00  0.00    -0.169 F 
HETATM   25  F   UNL     1       2.974  30.558  53.923  1.00  0.00    -0.169 F 
ENDBRANCH   8  22
BRANCH   1  26
HETATM   26  C   UNL     1       4.434  30.155  49.283  1.00  0.00    -0.035 A 
HETATM   27  C   UNL     1       3.688  31.034  48.480  1.00  0.00     0.012 A 
HETATM   28  C   UNL     1       4.213  32.268  48.087  1.00  0.00     0.037 A 
HETATM   29  C   UNL     1       5.489  32.659  48.491  1.00  0.00     0.068 A 
HETATM   30  C   UNL     1       6.249  31.789  49.269  1.00  0.00     0.037 A 
HETATM   31  C   UNL     1       5.728  30.548  49.653  1.00  0.00     0.012 A 
BRANCH  29  32
HETATM   32  O   UNL     1       5.877  33.896  48.056  1.00  0.00    -0.356 OA
HETATM   33  C   UNL     1       6.567  33.943  46.812  1.00  0.00     0.210 C 
ENDBRANCH  29  32
ENDBRANCH   1  26
TORSDOF 6
ENDMDL
