MODEL 1
REMARK VINA RESULT:      -9.0      0.000      0.000
REMARK  7 active torsions:
REMARK  status: ('A' for Active; 'I' for Inactive)
REMARK    1  A    between atoms: O_2  and  C_3 
REMARK    2  A    between atoms: C_4  and  O_5 
REMARK    3  A    between atoms: C_13  and  C_14 
REMARK       I    between atoms: C_14  and  N_15 
REMARK    4  A    between atoms: N_15  and  C_16 
REMARK    5  A    between atoms: C_16  and  C_17 
REMARK    6  A    between atoms: C_17  and  C_18 
REMARK    7  A    between atoms: C_18  and  C_19 
ROOT
HETATM    1  C   UNL     1       5.992  27.111  54.071  1.00  0.00     0.268 C 
HETATM    2  N   UNL     1       5.047  26.575  54.912  1.00  0.00    -0.356 N 
HETATM    3  O   UNL     1       7.019  27.642  54.482  1.00  0.00    -0.266 OA
HETATM    4  H   UNL     1       4.154  26.284  54.536  1.00  0.00     0.162 HD
ENDROOT
BRANCH   1   5
HETATM    5  C   UNL     1       5.671  27.051  52.664  1.00  0.00     0.102 A 
HETATM    6  N   UNL     1       5.801  28.161  51.856  1.00  0.00    -0.351 N 
HETATM    7  C   UNL     1       5.379  27.894  50.577  1.00  0.00     0.045 A 
HETATM    8  H   UNL     1       6.137  29.057  52.189  1.00  0.00     0.166 HD
HETATM    9  C   UNL     1       5.304  28.723  49.455  1.00  0.00     0.070 A 
HETATM   10  C   UNL     1       5.006  26.556  50.543  1.00  0.00    -0.004 A 
HETATM   11  C   UNL     1       4.829  28.179  48.250  1.00  0.00     0.103 A 
HETATM   12  C   UNL     1       4.408  26.841  48.195  1.00  0.00     0.102 A 
HETATM   13  C   UNL     1       4.529  26.018  49.331  1.00  0.00     0.053 A 
HETATM   14  C   UNL     1       5.207  26.031  51.851  1.00  0.00     0.049 A 
BRANCH  11  15
HETATM   15  O   UNL     1       4.788  29.110  47.240  1.00  0.00    -0.353 OA
HETATM   16  C   UNL     1       3.597  29.872  47.098  1.00  0.00     0.210 C 
ENDBRANCH  11  15
BRANCH  12  17
HETATM   17  O   UNL     1       3.907  26.349  47.014  1.00  0.00    -0.353 OA
HETATM   18  C   UNL     1       2.498  26.144  46.989  1.00  0.00     0.210 C 
ENDBRANCH  12  17
ENDBRANCH   1   5
BRANCH   2  19
HETATM   19  C   UNL     1       5.136  26.699  56.349  1.00  0.00     0.123 C 
BRANCH  19  20
HETATM   20  C   UNL     1       5.507  25.382  57.038  1.00  0.00     0.027 C 
BRANCH  20  21
HETATM   21  C   UNL     1       7.004  25.061  57.035  1.00  0.00     0.080 C 
BRANCH  21  22
HETATM   22  C   UNL     1       7.342  23.931  56.125  1.00  0.00     0.105 A 
HETATM   23  N   UNL     1       7.140  23.885  54.824  1.00  0.00    -0.233 NA
HETATM   24  C   UNL     1       7.619  22.660  54.420  1.00  0.00     0.085 A 
HETATM   25  C   UNL     1       8.126  21.946  55.500  1.00  0.00     0.062 A 
HETATM   26  C   UNL     1       7.656  22.086  53.142  1.00  0.00     0.034 A 
HETATM   27  N   UNL     1       7.933  22.775  56.574  1.00  0.00    -0.343 N 
HETATM   28  C   UNL     1       8.682  20.671  55.384  1.00  0.00     0.032 A 
HETATM   29  H   UNL     1       8.185  22.572  57.530  1.00  0.00     0.167 HD
HETATM   30  C   UNL     1       8.712  20.114  54.101  1.00  0.00     0.002 A 
HETATM   31  C   UNL     1       8.208  20.806  52.996  1.00  0.00     0.002 A 
ENDBRANCH  21  22
ENDBRANCH  20  21
ENDBRANCH  19  20
ENDBRANCH   2  19
TORSDOF 7
ENDMDL
MODEL 2
REMARK VINA RESULT:      -8.9      7.143     10.898
REMARK  7 active torsions:
REMARK  status: ('A' for Active; 'I' for Inactive)
REMARK    1  A    between atoms: O_2  and  C_3 
REMARK    2  A    between atoms: C_4  and  O_5 
REMARK    3  A    between atoms: C_13  and  C_14 
REMARK       I    between atoms: C_14  and  N_15 
REMARK    4  A    between atoms: N_15  and  C_16 
REMARK    5  A    between atoms: C_16  and  C_17 
REMARK    6  A    between atoms: C_17  and  C_18 
REMARK    7  A    between atoms: C_18  and  C_19 
ROOT
HETATM    1  C   UNL     1       9.273  31.541  59.201  1.00  0.00     0.268 C 
HETATM    2  N   UNL     1       8.991  30.319  58.639  1.00  0.00    -0.356 N 
HETATM    3  O   UNL     1      10.145  32.285  58.764  1.00  0.00    -0.266 OA
HETATM    4  H   UNL     1       8.371  29.681  59.121  1.00  0.00     0.162 HD
ENDROOT
BRANCH   1   5
HETATM    5  C   UNL     1       8.504  31.870  60.380  1.00  0.00     0.102 A 
HETATM    6  N   UNL     1       7.126  31.860  60.356  1.00  0.00    -0.351 N 
HETATM    7  C   UNL     1       6.608  32.267  61.561  1.00  0.00     0.045 A 
HETATM    8  H   UNL     1       6.583  31.611  59.538  1.00  0.00     0.166 HD
HETATM    9  C   UNL     1       5.282  32.437  61.967  1.00  0.00     0.070 A 
HETATM   10  C   UNL     1       7.684  32.506  62.406  1.00  0.00    -0.004 A 
HETATM   11  C   UNL     1       5.033  32.869  63.281  1.00  0.00     0.103 A 
HETATM   12  C   UNL     1       6.101  33.155  64.146  1.00  0.00     0.102 A 
HETATM   13  C   UNL     1       7.427  32.940  63.722  1.00  0.00     0.053 A 
HETATM   14  C   UNL     1       8.869  32.239  61.663  1.00  0.00     0.049 A 
BRANCH  11  15
HETATM   15  O   UNL     1       3.691  33.013  63.535  1.00  0.00    -0.353 OA
HETATM   16  C   UNL     1       2.937  33.819  62.639  1.00  0.00     0.210 C 
ENDBRANCH  11  15
BRANCH  12  17
HETATM   17  O   UNL     1       5.828  33.617  65.410  1.00  0.00    -0.353 OA
HETATM   18  C   UNL     1       6.968  33.956  66.194  1.00  0.00     0.210 C 
ENDBRANCH  12  17
ENDBRANCH   1   5
BRANCH   2  19
HETATM   19  C   UNL     1       9.777  29.768  57.559  1.00  0.00     0.123 C 
BRANCH  19  20
HETATM   20  C   UNL     1       9.002  28.748  56.719  1.00  0.00     0.027 C 
BRANCH  20  21
HETATM   21  C   UNL     1       8.047  27.858  57.519  1.00  0.00     0.080 C 
BRANCH  21  22
HETATM   22  C   UNL     1       8.022  26.456  57.017  1.00  0.00     0.105 A 
HETATM   23  N   UNL     1       8.391  25.380  57.680  1.00  0.00    -0.233 NA
HETATM   24  C   UNL     1       8.180  24.327  56.820  1.00  0.00     0.085 A 
HETATM   25  C   UNL     1       7.668  24.773  55.607  1.00  0.00     0.062 A 
HETATM   26  C   UNL     1       8.402  22.956  57.006  1.00  0.00     0.034 A 
HETATM   27  N   UNL     1       7.581  26.132  55.757  1.00  0.00    -0.343 N 
HETATM   28  C   UNL     1       7.353  23.922  54.547  1.00  0.00     0.032 A 
HETATM   29  H   UNL     1       7.248  26.783  55.060  1.00  0.00     0.167 HD
HETATM   30  C   UNL     1       7.580  22.555  54.750  1.00  0.00     0.002 A 
HETATM   31  C   UNL     1       8.097  22.077  55.958  1.00  0.00     0.002 A 
ENDBRANCH  21  22
ENDBRANCH  20  21
ENDBRANCH  19  20
ENDBRANCH   2  19
TORSDOF 7
ENDMDL
MODEL 3
REMARK VINA RESULT:      -8.9      1.100      2.275
REMARK  7 active torsions:
REMARK  status: ('A' for Active; 'I' for Inactive)
REMARK    1  A    between atoms: O_2  and  C_3 
REMARK    2  A    between atoms: C_4  and  O_5 
REMARK    3  A    between atoms: C_13  and  C_14 
REMARK       I    between atoms: C_14  and  N_15 
REMARK    4  A    between atoms: N_15  and  C_16 
REMARK    5  A    between atoms: C_16  and  C_17 
REMARK    6  A    between atoms: C_17  and  C_18 
REMARK    7  A    between atoms: C_18  and  C_19 
ROOT
HETATM    1  C   UNL     1       5.592  25.928  53.914  1.00  0.00     0.268 C 
HETATM    2  N   UNL     1       5.747  26.874  54.899  1.00  0.00    -0.356 N 
HETATM    3  O   UNL     1       5.666  24.723  54.136  1.00  0.00    -0.266 OA
HETATM    4  H   UNL     1       5.826  27.849  54.644  1.00  0.00     0.162 HD
ENDROOT
BRANCH   1   5
HETATM    5  C   UNL     1       5.387  26.451  52.583  1.00  0.00     0.102 A 
HETATM    6  N   UNL     1       4.779  25.691  51.605  1.00  0.00    -0.351 N 
HETATM    7  C   UNL     1       4.748  26.361  50.408  1.00  0.00     0.045 A 
HETATM    8  H   UNL     1       4.434  24.752  51.762  1.00  0.00     0.166 HD
HETATM    9  C   UNL     1       4.263  25.964  49.158  1.00  0.00     0.070 A 
HETATM   10  C   UNL     1       5.313  27.611  50.626  1.00  0.00    -0.004 A 
HETATM   11  C   UNL     1       4.358  26.865  48.085  1.00  0.00     0.103 A 
HETATM   12  C   UNL     1       4.958  28.121  48.266  1.00  0.00     0.102 A 
HETATM   13  C   UNL     1       5.405  28.510  49.544  1.00  0.00     0.053 A 
HETATM   14  C   UNL     1       5.696  27.666  51.996  1.00  0.00     0.049 A 
BRANCH  11  15
HETATM   15  O   UNL     1       3.865  26.335  46.917  1.00  0.00    -0.353 OA
HETATM   16  C   UNL     1       2.510  25.907  46.912  1.00  0.00     0.210 C 
ENDBRANCH  11  15
BRANCH  12  17
HETATM   17  O   UNL     1       5.075  28.965  47.188  1.00  0.00    -0.353 OA
HETATM   18  C   UNL     1       4.111  30.011  47.125  1.00  0.00     0.210 C 
ENDBRANCH  12  17
ENDBRANCH   1   5
BRANCH   2  19
HETATM   19  C   UNL     1       6.120  26.524  56.250  1.00  0.00     0.123 C 
BRANCH  19  20
HETATM   20  C   UNL     1       7.637  26.511  56.465  1.00  0.00     0.027 C 
BRANCH  20  21
HETATM   21  C   UNL     1       8.148  25.358  57.333  1.00  0.00     0.080 C 
BRANCH  21  22
HETATM   22  C   UNL     1       8.279  24.087  56.569  1.00  0.00     0.105 A 
HETATM   23  N   UNL     1       8.323  22.870  57.074  1.00  0.00    -0.233 NA
HETATM   24  C   UNL     1       8.437  22.027  55.992  1.00  0.00     0.085 A 
HETATM   25  C   UNL     1       8.459  22.746  54.803  1.00  0.00     0.062 A 
HETATM   26  C   UNL     1       8.525  20.629  55.948  1.00  0.00     0.034 A 
HETATM   27  N   UNL     1       8.362  24.055  55.198  1.00  0.00    -0.343 N 
HETATM   28  C   UNL     1       8.562  22.149  53.546  1.00  0.00     0.032 A 
HETATM   29  H   UNL     1       8.351  24.858  54.586  1.00  0.00     0.167 HD
HETATM   30  C   UNL     1       8.647  20.752  53.520  1.00  0.00     0.002 A 
HETATM   31  C   UNL     1       8.631  20.002  54.699  1.00  0.00     0.002 A 
ENDBRANCH  21  22
ENDBRANCH  20  21
ENDBRANCH  19  20
ENDBRANCH   2  19
TORSDOF 7
ENDMDL
MODEL 4
REMARK VINA RESULT:      -8.8      6.406     10.125
REMARK  7 active torsions:
REMARK  status: ('A' for Active; 'I' for Inactive)
REMARK    1  A    between atoms: O_2  and  C_3 
REMARK    2  A    between atoms: C_4  and  O_5 
REMARK    3  A    between atoms: C_13  and  C_14 
REMARK       I    between atoms: C_14  and  N_15 
REMARK    4  A    between atoms: N_15  and  C_16 
REMARK    5  A    between atoms: C_16  and  C_17 
REMARK    6  A    between atoms: C_17  and  C_18 
REMARK    7  A    between atoms: C_18  and  C_19 
ROOT
HETATM    1  C   UNL     1       8.812  29.807  58.446  1.00  0.00     0.268 C 
HETATM    2  N   UNL     1       7.929  28.823  58.075  1.00  0.00    -0.356 N 
HETATM    3  O   UNL     1       9.870  30.005  57.855  1.00  0.00    -0.266 OA
HETATM    4  H   UNL     1       7.147  28.602  58.678  1.00  0.00     0.162 HD
ENDROOT
BRANCH   1   5
HETATM    5  C   UNL     1       8.435  30.566  59.617  1.00  0.00     0.102 A 
HETATM    6  N   UNL     1       7.233  31.240  59.671  1.00  0.00    -0.351 N 
HETATM    7  C   UNL     1       7.114  31.942  60.845  1.00  0.00     0.045 A 
HETATM    8  H   UNL     1       6.553  31.230  58.921  1.00  0.00     0.166 HD
HETATM    9  C   UNL     1       6.091  32.779  61.301  1.00  0.00     0.070 A 
HETATM   10  C   UNL     1       8.254  31.680  61.594  1.00  0.00    -0.004 A 
HETATM   11  C   UNL     1       6.229  33.378  62.564  1.00  0.00     0.103 A 
HETATM   12  C   UNL     1       7.388  33.163  63.328  1.00  0.00     0.102 A 
HETATM   13  C   UNL     1       8.385  32.286  62.860  1.00  0.00     0.053 A 
HETATM   14  C   UNL     1       9.070  30.803  60.824  1.00  0.00     0.049 A 
BRANCH  11  15
HETATM   15  O   UNL     1       5.164  34.190  62.873  1.00  0.00    -0.353 OA
HETATM   16  C   UNL     1       3.859  33.659  62.685  1.00  0.00     0.210 C 
ENDBRANCH  11  15
BRANCH  12  17
HETATM   17  O   UNL     1       7.514  33.797  64.539  1.00  0.00    -0.353 OA
HETATM   18  C   UNL     1       6.515  33.474  65.503  1.00  0.00     0.210 C 
ENDBRANCH  12  17
ENDBRANCH   1   5
BRANCH   2  19
HETATM   19  C   UNL     1       8.231  27.871  57.030  1.00  0.00     0.123 C 
BRANCH  19  20
HETATM   20  C   UNL     1       7.383  26.599  57.120  1.00  0.00     0.027 C 
BRANCH  20  21
HETATM   21  C   UNL     1       8.152  25.350  57.560  1.00  0.00     0.080 C 
BRANCH  21  22
HETATM   22  C   UNL     1       8.115  24.270  56.535  1.00  0.00     0.105 A 
HETATM   23  N   UNL     1       7.938  24.425  55.239  1.00  0.00    -0.233 NA
HETATM   24  C   UNL     1       7.992  23.157  54.706  1.00  0.00     0.085 A 
HETATM   25  C   UNL     1       8.210  22.211  55.700  1.00  0.00     0.062 A 
HETATM   26  C   UNL     1       7.864  22.735  53.376  1.00  0.00     0.034 A 
HETATM   27  N   UNL     1       8.281  22.944  56.856  1.00  0.00    -0.343 N 
HETATM   28  C   UNL     1       8.315  20.842  55.448  1.00  0.00     0.032 A 
HETATM   29  H   UNL     1       8.430  22.574  57.783  1.00  0.00     0.167 HD
HETATM   30  C   UNL     1       8.186  20.438  54.114  1.00  0.00     0.002 A 
HETATM   31  C   UNL     1       7.963  21.366  53.093  1.00  0.00     0.002 A 
ENDBRANCH  21  22
ENDBRANCH  20  21
ENDBRANCH  19  20
ENDBRANCH   2  19
TORSDOF 7
ENDMDL
MODEL 5
REMARK VINA RESULT:      -8.6      6.237      9.866
REMARK  7 active torsions:
REMARK  status: ('A' for Active; 'I' for Inactive)
REMARK    1  A    between atoms: O_2  and  C_3 
REMARK    2  A    between atoms: C_4  and  O_5 
REMARK    3  A    between atoms: C_13  and  C_14 
REMARK       I    between atoms: C_14  and  N_15 
REMARK    4  A    between atoms: N_15  and  C_16 
REMARK    5  A    between atoms: C_16  and  C_17 
REMARK    6  A    between atoms: C_17  and  C_18 
REMARK    7  A    between atoms: C_18  and  C_19 
ROOT
HETATM    1  C   UNL     1       8.576  29.814  58.365  1.00  0.00     0.268 C 
HETATM    2  N   UNL     1       7.861  28.726  57.924  1.00  0.00    -0.356 N 
HETATM    3  O   UNL     1       9.756  29.991  58.077  1.00  0.00    -0.266 OA
HETATM    4  H   UNL     1       6.942  28.547  58.307  1.00  0.00     0.162 HD
ENDROOT
BRANCH   1   5
HETATM    5  C   UNL     1       7.856  30.713  59.237  1.00  0.00     0.102 A 
HETATM    6  N   UNL     1       8.043  30.682  60.603  1.00  0.00    -0.351 N 
HETATM    7  C   UNL     1       7.212  31.574  61.235  1.00  0.00     0.045 A 
HETATM    8  H   UNL     1       8.691  30.055  61.064  1.00  0.00     0.166 HD
HETATM    9  C   UNL     1       7.043  31.848  62.595  1.00  0.00     0.070 A 
HETATM   10  C   UNL     1       6.496  32.236  60.245  1.00  0.00    -0.004 A 
HETATM   11  C   UNL     1       6.109  32.829  62.970  1.00  0.00     0.103 A 
HETATM   12  C   UNL     1       5.343  33.487  61.994  1.00  0.00     0.102 A 
HETATM   13  C   UNL     1       5.561  33.217  60.629  1.00  0.00     0.053 A 
HETATM   14  C   UNL     1       6.918  31.702  58.995  1.00  0.00     0.049 A 
BRANCH  11  15
HETATM   15  O   UNL     1       6.031  32.978  64.334  1.00  0.00    -0.353 OA
HETATM   16  C   UNL     1       7.198  33.420  65.013  1.00  0.00     0.210 C 
ENDBRANCH  11  15
BRANCH  12  17
HETATM   17  O   UNL     1       4.407  34.410  62.393  1.00  0.00    -0.353 OA
HETATM   18  C   UNL     1       4.731  35.768  62.112  1.00  0.00     0.210 C 
ENDBRANCH  12  17
ENDBRANCH   1   5
BRANCH   2  19
HETATM   19  C   UNL     1       8.476  27.650  57.181  1.00  0.00     0.123 C 
BRANCH  19  20
HETATM   20  C   UNL     1       7.654  26.358  57.215  1.00  0.00     0.027 C 
BRANCH  20  21
HETATM   21  C   UNL     1       6.861  26.074  55.937  1.00  0.00     0.080 C 
BRANCH  21  22
HETATM   22  C   UNL     1       7.156  24.728  55.372  1.00  0.00     0.105 A 
HETATM   23  N   UNL     1       7.288  24.424  54.096  1.00  0.00    -0.233 NA
HETATM   24  C   UNL     1       7.565  23.077  54.065  1.00  0.00     0.085 A 
HETATM   25  C   UNL     1       7.606  22.550  55.351  1.00  0.00     0.062 A 
HETATM   26  C   UNL     1       7.796  22.232  52.972  1.00  0.00     0.034 A 
HETATM   27  N   UNL     1       7.338  23.620  56.164  1.00  0.00    -0.343 N 
HETATM   28  C   UNL     1       7.872  21.207  55.622  1.00  0.00     0.032 A 
HETATM   29  H   UNL     1       7.286  23.598  57.172  1.00  0.00     0.167 HD
HETATM   30  C   UNL     1       8.102  20.377  54.518  1.00  0.00     0.002 A 
HETATM   31  C   UNL     1       8.064  20.878  53.213  1.00  0.00     0.002 A 
ENDBRANCH  21  22
ENDBRANCH  20  21
ENDBRANCH  19  20
ENDBRANCH   2  19
TORSDOF 7
ENDMDL
MODEL 6
REMARK VINA RESULT:      -8.5      3.740      7.252
REMARK  7 active torsions:
REMARK  status: ('A' for Active; 'I' for Inactive)
REMARK    1  A    between atoms: O_2  and  C_3 
REMARK    2  A    between atoms: C_4  and  O_5 
REMARK    3  A    between atoms: C_13  and  C_14 
REMARK       I    between atoms: C_14  and  N_15 
REMARK    4  A    between atoms: N_15  and  C_16 
REMARK    5  A    between atoms: C_16  and  C_17 
REMARK    6  A    between atoms: C_17  and  C_18 
REMARK    7  A    between atoms: C_18  and  C_19 
ROOT
HETATM    1  C   UNL     1       5.713  26.352  55.143  1.00  0.00     0.268 C 
HETATM    2  N   UNL     1       5.756  26.508  53.779  1.00  0.00    -0.356 N 
HETATM    3  O   UNL     1       5.393  25.295  55.679  1.00  0.00    -0.266 OA
HETATM    4  H   UNL     1       5.879  27.432  53.387  1.00  0.00     0.162 HD
ENDROOT
BRANCH   1   5
HETATM    5  C   UNL     1       6.022  27.538  55.910  1.00  0.00     0.102 A 
HETATM    6  N   UNL     1       7.268  27.718  56.470  1.00  0.00    -0.351 N 
HETATM    7  C   UNL     1       7.316  28.877  57.205  1.00  0.00     0.045 A 
HETATM    8  H   UNL     1       8.028  27.056  56.367  1.00  0.00     0.166 HD
HETATM    9  C   UNL     1       8.355  29.429  57.960  1.00  0.00     0.070 A 
HETATM   10  C   UNL     1       6.076  29.489  57.081  1.00  0.00    -0.004 A 
HETATM   11  C   UNL     1       8.128  30.648  58.621  1.00  0.00     0.103 A 
HETATM   12  C   UNL     1       6.872  31.272  58.544  1.00  0.00     0.102 A 
HETATM   13  C   UNL     1       5.856  30.712  57.746  1.00  0.00     0.053 A 
HETATM   14  C   UNL     1       5.275  28.652  56.253  1.00  0.00     0.049 A 
BRANCH  11  15
HETATM   15  O   UNL     1       9.223  31.061  59.341  1.00  0.00    -0.353 OA
HETATM   16  C   UNL     1      10.316  31.608  58.616  1.00  0.00     0.210 C 
ENDBRANCH  11  15
BRANCH  12  17
HETATM   17  O   UNL     1       6.666  32.441  59.235  1.00  0.00    -0.353 OA
HETATM   18  C   UNL     1       5.307  32.852  59.346  1.00  0.00     0.210 C 
ENDBRANCH  12  17
ENDBRANCH   1   5
BRANCH   2  19
HETATM   19  C   UNL     1       5.318  25.472  52.871  1.00  0.00     0.123 C 
BRANCH  19  20
HETATM   20  C   UNL     1       6.319  25.207  51.742  1.00  0.00     0.027 C 
BRANCH  20  21
HETATM   21  C   UNL     1       7.761  24.989  52.208  1.00  0.00     0.080 C 
BRANCH  21  22
HETATM   22  C   UNL     1       7.880  23.872  53.186  1.00  0.00     0.105 A 
HETATM   23  N   UNL     1       7.750  22.587  52.927  1.00  0.00    -0.233 NA
HETATM   24  C   UNL     1       7.954  21.947  54.128  1.00  0.00     0.085 A 
HETATM   25  C   UNL     1       8.218  22.864  55.140  1.00  0.00     0.062 A 
HETATM   26  C   UNL     1       7.932  20.579  54.433  1.00  0.00     0.034 A 
HETATM   27  N   UNL     1       8.160  24.082  54.515  1.00  0.00    -0.343 N 
HETATM   28  C   UNL     1       8.469  22.497  56.462  1.00  0.00     0.032 A 
HETATM   29  H   UNL     1       8.302  24.979  54.955  1.00  0.00     0.167 HD
HETATM   30  C   UNL     1       8.444  21.127  56.749  1.00  0.00     0.002 A 
HETATM   31  C   UNL     1       8.179  20.181  55.754  1.00  0.00     0.002 A 
ENDBRANCH  21  22
ENDBRANCH  20  21
ENDBRANCH  19  20
ENDBRANCH   2  19
TORSDOF 7
ENDMDL
MODEL 7
REMARK VINA RESULT:      -8.5      3.899      7.211
REMARK  7 active torsions:
REMARK  status: ('A' for Active; 'I' for Inactive)
REMARK    1  A    between atoms: O_2  and  C_3 
REMARK    2  A    between atoms: C_4  and  O_5 
REMARK    3  A    between atoms: C_13  and  C_14 
REMARK       I    between atoms: C_14  and  N_15 
REMARK    4  A    between atoms: N_15  and  C_16 
REMARK    5  A    between atoms: C_16  and  C_17 
REMARK    6  A    between atoms: C_17  and  C_18 
REMARK    7  A    between atoms: C_18  and  C_19 
ROOT
HETATM    1  C   UNL     1       5.782  26.260  55.672  1.00  0.00     0.268 C 
HETATM    2  N   UNL     1       5.714  26.438  54.311  1.00  0.00    -0.356 N 
HETATM    3  O   UNL     1       5.522  25.191  56.214  1.00  0.00    -0.266 OA
HETATM    4  H   UNL     1       5.792  27.370  53.926  1.00  0.00     0.162 HD
ENDROOT
BRANCH   1   5
HETATM    5  C   UNL     1       6.134  27.439  56.431  1.00  0.00     0.102 A 
HETATM    6  N   UNL     1       5.341  28.566  56.403  1.00  0.00    -0.351 N 
HETATM    7  C   UNL     1       5.899  29.580  57.141  1.00  0.00     0.045 A 
HETATM    8  H   UNL     1       4.478  28.629  55.877  1.00  0.00     0.166 HD
HETATM    9  C   UNL     1       5.462  30.890  57.359  1.00  0.00     0.070 A 
HETATM   10  C   UNL     1       7.068  29.081  57.701  1.00  0.00    -0.004 A 
HETATM   11  C   UNL     1       6.240  31.730  58.173  1.00  0.00     0.103 A 
HETATM   12  C   UNL     1       7.446  31.265  58.722  1.00  0.00     0.102 A 
HETATM   13  C   UNL     1       7.844  29.930  58.516  1.00  0.00     0.053 A 
HETATM   14  C   UNL     1       7.200  27.732  57.264  1.00  0.00     0.049 A 
BRANCH  11  15
HETATM   15  O   UNL     1       5.704  32.990  58.282  1.00  0.00    -0.353 OA
HETATM   16  C   UNL     1       4.417  33.107  58.873  1.00  0.00     0.210 C 
ENDBRANCH  11  15
BRANCH  12  17
HETATM   17  O   UNL     1       8.208  32.122  59.478  1.00  0.00    -0.353 OA
HETATM   18  C   UNL     1       9.614  31.902  59.419  1.00  0.00     0.210 C 
ENDBRANCH  12  17
ENDBRANCH   1   5
BRANCH   2  19
HETATM   19  C   UNL     1       5.220  25.409  53.425  1.00  0.00     0.123 C 
BRANCH  19  20
HETATM   20  C   UNL     1       6.084  25.237  52.172  1.00  0.00     0.027 C 
BRANCH  20  21
HETATM   21  C   UNL     1       7.569  24.991  52.451  1.00  0.00     0.080 C 
BRANCH  21  22
HETATM   22  C   UNL     1       7.795  23.797  53.312  1.00  0.00     0.105 A 
HETATM   23  N   UNL     1       7.738  22.536  52.933  1.00  0.00    -0.233 NA
HETATM   24  C   UNL     1       8.027  21.801  54.059  1.00  0.00     0.085 A 
HETATM   25  C   UNL     1       8.269  22.633  55.147  1.00  0.00     0.062 A 
HETATM   26  C   UNL     1       8.104  20.412  54.231  1.00  0.00     0.034 A 
HETATM   27  N   UNL     1       8.111  23.898  54.645  1.00  0.00    -0.343 N 
HETATM   28  C   UNL     1       8.592  22.160  56.419  1.00  0.00     0.032 A 
HETATM   29  H   UNL     1       8.211  24.757  55.166  1.00  0.00     0.167 HD
HETATM   30  C   UNL     1       8.666  20.770  56.572  1.00  0.00     0.002 A 
HETATM   31  C   UNL     1       8.425  19.908  55.499  1.00  0.00     0.002 A 
ENDBRANCH  21  22
ENDBRANCH  20  21
ENDBRANCH  19  20
ENDBRANCH   2  19
TORSDOF 7
ENDMDL
MODEL 8
REMARK VINA RESULT:      -8.4      6.929     10.473
REMARK  7 active torsions:
REMARK  status: ('A' for Active; 'I' for Inactive)
REMARK    1  A    between atoms: O_2  and  C_3 
REMARK    2  A    between atoms: C_4  and  O_5 
REMARK    3  A    between atoms: C_13  and  C_14 
REMARK       I    between atoms: C_14  and  N_15 
REMARK    4  A    between atoms: N_15  and  C_16 
REMARK    5  A    between atoms: C_16  and  C_17 
REMARK    6  A    between atoms: C_17  and  C_18 
REMARK    7  A    between atoms: C_18  and  C_19 
ROOT
HETATM    1  C   UNL     1       8.595  31.572  59.092  1.00  0.00     0.268 C 
HETATM    2  N   UNL     1       8.432  30.338  58.510  1.00  0.00    -0.356 N 
HETATM    3  O   UNL     1       9.602  32.255  58.927  1.00  0.00    -0.266 OA
HETATM    4  H   UNL     1       7.657  29.753  58.792  1.00  0.00     0.162 HD
ENDROOT
BRANCH   1   5
HETATM    5  C   UNL     1       7.517  31.993  59.957  1.00  0.00     0.102 A 
HETATM    6  N   UNL     1       7.682  32.048  61.325  1.00  0.00    -0.351 N 
HETATM    7  C   UNL     1       6.514  32.409  61.949  1.00  0.00     0.045 A 
HETATM    8  H   UNL     1       8.551  31.819  61.792  1.00  0.00     0.166 HD
HETATM    9  C   UNL     1       6.218  32.554  63.308  1.00  0.00     0.070 A 
HETATM   10  C   UNL     1       5.574  32.639  60.953  1.00  0.00    -0.004 A 
HETATM   11  C   UNL     1       4.919  32.943  63.674  1.00  0.00     0.103 A 
HETATM   12  C   UNL     1       3.937  33.146  62.690  1.00  0.00     0.102 A 
HETATM   13  C   UNL     1       4.272  33.028  61.328  1.00  0.00     0.053 A 
HETATM   14  C   UNL     1       6.215  32.392  59.706  1.00  0.00     0.049 A 
BRANCH  11  15
HETATM   15  O   UNL     1       4.765  33.024  65.037  1.00  0.00    -0.353 OA
HETATM   16  C   UNL     1       5.567  33.969  65.732  1.00  0.00     0.210 C 
ENDBRANCH  11  15
BRANCH  12  17
HETATM   17  O   UNL     1       2.665  33.483  63.080  1.00  0.00    -0.353 OA
HETATM   18  C   UNL     1       2.116  34.632  62.441  1.00  0.00     0.210 C 
ENDBRANCH  12  17
ENDBRANCH   1   5
BRANCH   2  19
HETATM   19  C   UNL     1       9.483  29.701  57.750  1.00  0.00     0.123 C 
BRANCH  19  20
HETATM   20  C   UNL     1       8.957  28.637  56.782  1.00  0.00     0.027 C 
BRANCH  20  21
HETATM   21  C   UNL     1       7.974  27.641  57.403  1.00  0.00     0.080 C 
BRANCH  21  22
HETATM   22  C   UNL     1       7.884  26.373  56.628  1.00  0.00     0.105 A 
HETATM   23  N   UNL     1       7.500  26.246  55.374  1.00  0.00    -0.233 NA
HETATM   24  C   UNL     1       7.591  24.901  55.095  1.00  0.00     0.085 A 
HETATM   25  C   UNL     1       8.044  24.195  56.204  1.00  0.00     0.062 A 
HETATM   26  C   UNL     1       7.305  24.207  53.912  1.00  0.00     0.034 A 
HETATM   27  N   UNL     1       8.219  25.154  57.167  1.00  0.00    -0.343 N 
HETATM   28  C   UNL     1       8.237  22.813  56.208  1.00  0.00     0.032 A 
HETATM   29  H   UNL     1       8.540  24.992  58.110  1.00  0.00     0.167 HD
HETATM   30  C   UNL     1       7.947  22.136  55.017  1.00  0.00     0.002 A 
HETATM   31  C   UNL     1       7.487  22.818  53.887  1.00  0.00     0.002 A 
ENDBRANCH  21  22
ENDBRANCH  20  21
ENDBRANCH  19  20
ENDBRANCH   2  19
TORSDOF 7
ENDMDL
MODEL 9
REMARK VINA RESULT:      -8.3      5.420      8.946
REMARK  7 active torsions:
REMARK  status: ('A' for Active; 'I' for Inactive)
REMARK    1  A    between atoms: O_2  and  C_3 
REMARK    2  A    between atoms: C_4  and  O_5 
REMARK    3  A    between atoms: C_13  and  C_14 
REMARK       I    between atoms: C_14  and  N_15 
REMARK    4  A    between atoms: N_15  and  C_16 
REMARK    5  A    between atoms: C_16  and  C_17 
REMARK    6  A    between atoms: C_17  and  C_18 
REMARK    7  A    between atoms: C_18  and  C_19 
ROOT
HETATM    1  C   UNL     1       8.518  29.268  56.931  1.00  0.00     0.268 C 
HETATM    2  N   UNL     1       7.676  29.302  55.846  1.00  0.00    -0.356 N 
HETATM    3  O   UNL     1       9.525  28.568  56.966  1.00  0.00    -0.266 OA
HETATM    4  H   UNL     1       6.786  29.776  55.921  1.00  0.00     0.162 HD
ENDROOT
BRANCH   1   5
HETATM    5  C   UNL     1       8.109  30.079  58.055  1.00  0.00     0.102 A 
HETATM    6  N   UNL     1       6.953  30.829  58.008  1.00  0.00    -0.351 N 
HETATM    7  C   UNL     1       6.797  31.568  59.154  1.00  0.00     0.045 A 
HETATM    8  H   UNL     1       6.329  30.843  57.211  1.00  0.00     0.166 HD
HETATM    9  C   UNL     1       5.802  32.480  59.517  1.00  0.00     0.070 A 
HETATM   10  C   UNL     1       7.862  31.254  59.989  1.00  0.00    -0.004 A 
HETATM   11  C   UNL     1       5.889  33.102  60.774  1.00  0.00     0.103 A 
HETATM   12  C   UNL     1       6.974  32.834  61.623  1.00  0.00     0.102 A 
HETATM   13  C   UNL     1       7.943  31.884  61.247  1.00  0.00     0.053 A 
HETATM   14  C   UNL     1       8.671  30.308  59.299  1.00  0.00     0.049 A 
BRANCH  11  15
HETATM   15  O   UNL     1       4.860  33.987  60.988  1.00  0.00    -0.353 OA
HETATM   16  C   UNL     1       3.873  34.103  59.971  1.00  0.00     0.210 C 
ENDBRANCH  11  15
BRANCH  12  17
HETATM   17  O   UNL     1       7.055  33.490  62.827  1.00  0.00    -0.353 OA
HETATM   18  C   UNL     1       7.847  32.845  63.820  1.00  0.00     0.210 C 
ENDBRANCH  12  17
ENDBRANCH   1   5
BRANCH   2  19
HETATM   19  C   UNL     1       7.851  28.428  54.708  1.00  0.00     0.123 C 
BRANCH  19  20
HETATM   20  C   UNL     1       6.830  27.287  54.670  1.00  0.00     0.027 C 
BRANCH  20  21
HETATM   21  C   UNL     1       6.988  26.254  55.789  1.00  0.00     0.080 C 
BRANCH  21  22
HETATM   22  C   UNL     1       7.238  24.883  55.265  1.00  0.00     0.105 A 
HETATM   23  N   UNL     1       7.443  24.550  54.007  1.00  0.00    -0.233 NA
HETATM   24  C   UNL     1       7.637  23.187  54.014  1.00  0.00     0.085 A 
HETATM   25  C   UNL     1       7.551  22.681  55.306  1.00  0.00     0.062 A 
HETATM   26  C   UNL     1       7.894  22.311  52.952  1.00  0.00     0.034 A 
HETATM   27  N   UNL     1       7.292  23.780  56.083  1.00  0.00    -0.343 N 
HETATM   28  C   UNL     1       7.711  21.329  55.613  1.00  0.00     0.032 A 
HETATM   29  H   UNL     1       7.164  23.779  57.084  1.00  0.00     0.167 HD
HETATM   30  C   UNL     1       7.968  20.468  54.540  1.00  0.00     0.002 A 
HETATM   31  C   UNL     1       8.058  20.947  53.230  1.00  0.00     0.002 A 
ENDBRANCH  21  22
ENDBRANCH  20  21
ENDBRANCH  19  20
ENDBRANCH   2  19
TORSDOF 7
ENDMDL
MODEL 10
REMARK VINA RESULT:      -8.2      7.852     11.863
REMARK  7 active torsions:
REMARK  status: ('A' for Active; 'I' for Inactive)
REMARK    1  A    between atoms: O_2  and  C_3 
REMARK    2  A    between atoms: C_4  and  O_5 
REMARK    3  A    between atoms: C_13  and  C_14 
REMARK       I    between atoms: C_14  and  N_15 
REMARK    4  A    between atoms: N_15  and  C_16 
REMARK    5  A    between atoms: C_16  and  C_17 
REMARK    6  A    between atoms: C_17  and  C_18 
REMARK    7  A    between atoms: C_18  and  C_19 
ROOT
HETATM    1  C   UNL     1       8.673  30.757  60.987  1.00  0.00     0.268 C 
HETATM    2  N   UNL     1       8.181  30.842  59.707  1.00  0.00    -0.356 N 
HETATM    3  O   UNL     1       9.650  30.074  61.278  1.00  0.00    -0.266 OA
HETATM    4  H   UNL     1       7.292  31.295  59.545  1.00  0.00     0.162 HD
ENDROOT
BRANCH   1   5
HETATM    5  C   UNL     1       7.928  31.492  61.984  1.00  0.00     0.102 A 
HETATM    6  N   UNL     1       6.554  31.583  61.923  1.00  0.00    -0.351 N 
HETATM    7  C   UNL     1       6.066  32.379  62.929  1.00  0.00     0.045 A 
HETATM    8  H   UNL     1       5.997  31.138  61.203  1.00  0.00     0.166 HD
HETATM    9  C   UNL     1       4.756  32.768  63.223  1.00  0.00     0.070 A 
HETATM   10  C   UNL     1       7.154  32.781  63.693  1.00  0.00    -0.004 A 
HETATM   11  C   UNL     1       4.538  33.602  64.333  1.00  0.00     0.103 A 
HETATM   12  C   UNL     1       5.621  34.055  65.102  1.00  0.00     0.102 A 
HETATM   13  C   UNL     1       6.926  33.618  64.805  1.00  0.00     0.053 A 
HETATM   14  C   UNL     1       8.316  32.207  63.105  1.00  0.00     0.049 A 
BRANCH  11  15
HETATM   15  O   UNL     1       3.211  33.921  64.489  1.00  0.00    -0.353 OA
HETATM   16  C   UNL     1       2.451  34.161  63.312  1.00  0.00     0.210 C 
ENDBRANCH  11  15
BRANCH  12  17
HETATM   17  O   UNL     1       5.381  34.903  66.155  1.00  0.00    -0.353 OA
HETATM   18  C   UNL     1       5.135  34.268  67.406  1.00  0.00     0.210 C 
ENDBRANCH  12  17
ENDBRANCH   1   5
BRANCH   2  19
HETATM   19  C   UNL     1       8.708  30.042  58.625  1.00  0.00     0.123 C 
BRANCH  19  20
HETATM   20  C   UNL     1       7.678  29.064  58.051  1.00  0.00     0.027 C 
BRANCH  20  21
HETATM   21  C   UNL     1       8.269  27.755  57.521  1.00  0.00     0.080 C 
BRANCH  21  22
HETATM   22  C   UNL     1       7.458  27.170  56.418  1.00  0.00     0.105 A 
HETATM   23  N   UNL     1       7.407  25.900  56.070  1.00  0.00    -0.233 NA
HETATM   24  C   UNL     1       6.522  25.842  55.018  1.00  0.00     0.085 A 
HETATM   25  C   UNL     1       6.022  27.104  54.721  1.00  0.00     0.062 A 
HETATM   26  C   UNL     1       6.094  24.741  54.264  1.00  0.00     0.034 A 
HETATM   27  N   UNL     1       6.636  27.932  55.623  1.00  0.00    -0.343 N 
HETATM   28  C   UNL     1       5.100  27.345  53.701  1.00  0.00     0.032 A 
HETATM   29  H   UNL     1       6.506  28.931  55.693  1.00  0.00     0.167 HD
HETATM   30  C   UNL     1       4.682  26.234  52.958  1.00  0.00     0.002 A 
HETATM   31  C   UNL     1       5.170  24.952  53.231  1.00  0.00     0.002 A 
ENDBRANCH  21  22
ENDBRANCH  20  21
ENDBRANCH  19  20
ENDBRANCH   2  19
TORSDOF 7
ENDMDL
