MODEL 1
REMARK VINA RESULT:     -11.4      0.000      0.000
REMARK  7 active torsions:
REMARK  status: ('A' for Active; 'I' for Inactive)
REMARK       I    between atoms: C_2  and  N_3 
REMARK       I    between atoms: C_2  and  N_12 
REMARK    1  A    between atoms: N_3  and  C_4 
REMARK    2  A    between atoms: C_16  and  C_17 
REMARK    3  A    between atoms: C_21  and  C_23 
REMARK       I    between atoms: C_23  and  N_25 
REMARK    4  A    between atoms: N_25  and  C_26 
REMARK    5  A    between atoms: C_29  and  C_30 
REMARK    6  A    between atoms: C_30  and  C_31 
REMARK    7  A    between atoms: C_31  and  N_32 
ROOT
HETATM    1  C   UNL     1       7.352  24.523  54.655  1.00  0.00     0.037 A 
HETATM    2  C   UNL     1       7.963  24.575  55.910  1.00  0.00     0.029 A 
HETATM    3  C   UNL     1       8.694  23.485  56.391  1.00  0.00     0.004 A 
HETATM    4  C   UNL     1       8.819  22.330  55.621  1.00  0.00     0.023 A 
HETATM    5  C   UNL     1       8.210  22.264  54.366  1.00  0.00     0.046 A 
HETATM    6  C   UNL     1       7.480  23.357  53.887  1.00  0.00     0.052 A 
HETATM    7  C   UNL     1       8.320  21.072  53.576  1.00  0.00     0.099 C 
HETATM    8  N   UNL     1       8.397  20.104  52.941  1.00  0.00    -0.191 NA
ENDROOT
BRANCH   1   9
HETATM    9  N   UNL     1       6.555  25.557  54.126  1.00  0.00    -0.309 N 
HETATM   10  C   UNL     1       6.418  25.937  52.811  1.00  0.00     0.323 C 
HETATM   11  O   UNL     1       6.794  25.273  51.848  1.00  0.00    -0.247 OA
HETATM   12  N   UNL     1       5.837  27.180  52.632  1.00  0.00    -0.325 N 
HETATM   13  C   UNL     1       5.600  27.685  51.290  1.00  0.00     0.128 C 
HETATM   14  C   UNL     1       5.342  28.117  53.644  1.00  0.00     0.122 C 
HETATM   15  C   UNL     1       5.338  29.171  51.472  1.00  0.00     0.022 C 
HETATM   16  C   UNL     1       4.672  29.241  52.841  1.00  0.00     0.032 C 
HETATM   17  H   UNL     1       6.001  26.066  54.792  1.00  0.00     0.170 HD
BRANCH  14  18
HETATM   18  C   UNL     1       6.435  28.611  54.576  1.00  0.00    -0.034 A 
HETATM   19  C   UNL     1       7.797  28.374  54.327  1.00  0.00     0.009 A 
HETATM   20  C   UNL     1       8.776  28.785  55.234  1.00  0.00     0.002 A 
HETATM   21  C   UNL     1       8.410  29.426  56.417  1.00  0.00     0.017 A 
HETATM   22  C   UNL     1       7.058  29.663  56.687  1.00  0.00     0.033 A 
HETATM   23  C   UNL     1       6.080  29.283  55.757  1.00  0.00     0.026 A 
BRANCH  22  24
HETATM   24  C   UNL     1       6.616  30.317  57.949  1.00  0.00     0.256 C 
HETATM   25  O   UNL     1       5.427  30.586  58.071  1.00  0.00    -0.267 OA
HETATM   26  N   UNL     1       7.615  30.496  58.886  1.00  0.00    -0.323 N 
HETATM   27  H   UNL     1       8.514  30.073  58.690  1.00  0.00     0.169 HD
BRANCH  26  28
HETATM   28  C   UNL     1       7.512  31.150  60.131  1.00  0.00     0.035 A 
HETATM   29  C   UNL     1       6.600  32.171  60.399  1.00  0.00     0.030 A 
HETATM   30  C   UNL     1       6.595  32.810  61.643  1.00  0.00     0.009 A 
HETATM   31  C   UNL     1       7.494  32.433  62.648  1.00  0.00    -0.056 A 
HETATM   32  C   UNL     1       8.398  31.400  62.384  1.00  0.00     0.009 A 
HETATM   33  C   UNL     1       8.408  30.766  61.136  1.00  0.00     0.030 A 
BRANCH  31  34
HETATM   34  C   UNL     1       7.529  33.166  63.970  1.00  0.00     0.068 C 
BRANCH  34  35
HETATM   35  C   UNL     1       6.487  34.296  64.066  1.00  0.00     0.277 C 
BRANCH  35  36
HETATM   36  N   UNL     1       5.188  33.828  64.587  1.00  0.00     0.092 N 
HETATM   37  C   UNL     1       5.115  33.820  66.066  1.00  0.00     0.298 C 
HETATM   38  C   UNL     1       5.009  35.217  66.702  1.00  0.00     0.198 C 
HETATM   39  O   UNL     1       3.894  35.946  66.177  1.00  0.00    -0.388 OA
HETATM   40  C   UNL     1       3.984  36.054  64.750  1.00  0.00     0.198 C 
HETATM   41  C   UNL     1       4.074  34.668  64.087  1.00  0.00     0.298 C 
ENDBRANCH  35  36
ENDBRANCH  34  35
ENDBRANCH  31  34
ENDBRANCH  26  28
ENDBRANCH  22  24
ENDBRANCH  14  18
ENDBRANCH   1   9
TORSDOF 7
ENDMDL
MODEL 2
REMARK VINA RESULT:     -11.4      2.866     11.311
REMARK  7 active torsions:
REMARK  status: ('A' for Active; 'I' for Inactive)
REMARK       I    between atoms: C_2  and  N_3 
REMARK       I    between atoms: C_2  and  N_12 
REMARK    1  A    between atoms: N_3  and  C_4 
REMARK    2  A    between atoms: C_16  and  C_17 
REMARK    3  A    between atoms: C_21  and  C_23 
REMARK       I    between atoms: C_23  and  N_25 
REMARK    4  A    between atoms: N_25  and  C_26 
REMARK    5  A    between atoms: C_29  and  C_30 
REMARK    6  A    between atoms: C_30  and  C_31 
REMARK    7  A    between atoms: C_31  and  N_32 
ROOT
HETATM    1  C   UNL     1       4.766  31.613  58.384  1.00  0.00     0.037 A 
HETATM    2  C   UNL     1       3.800  30.719  57.918  1.00  0.00     0.029 A 
HETATM    3  C   UNL     1       3.249  30.869  56.642  1.00  0.00     0.004 A 
HETATM    4  C   UNL     1       3.657  31.918  55.821  1.00  0.00     0.023 A 
HETATM    5  C   UNL     1       4.620  32.821  56.276  1.00  0.00     0.046 A 
HETATM    6  C   UNL     1       5.172  32.667  57.554  1.00  0.00     0.052 A 
HETATM    7  C   UNL     1       5.032  33.913  55.443  1.00  0.00     0.099 C 
HETATM    8  N   UNL     1       5.358  34.804  54.775  1.00  0.00    -0.191 NA
ENDROOT
BRANCH   1   9
HETATM    9  N   UNL     1       5.327  31.560  59.675  1.00  0.00    -0.309 N 
HETATM   10  C   UNL     1       5.212  32.480  60.691  1.00  0.00     0.323 C 
HETATM   11  O   UNL     1       4.396  33.398  60.715  1.00  0.00    -0.247 OA
HETATM   12  N   UNL     1       6.133  32.324  61.713  1.00  0.00    -0.325 N 
HETATM   13  C   UNL     1       6.097  33.208  62.865  1.00  0.00     0.128 C 
HETATM   14  C   UNL     1       7.183  31.312  61.855  1.00  0.00     0.122 C 
HETATM   15  C   UNL     1       7.439  33.011  63.551  1.00  0.00     0.022 C 
HETATM   16  C   UNL     1       7.770  31.553  63.253  1.00  0.00     0.032 C 
HETATM   17  H   UNL     1       5.860  30.735  59.886  1.00  0.00     0.170 HD
BRANCH  14  18
HETATM   18  C   UNL     1       8.219  31.375  60.747  1.00  0.00    -0.034 A 
HETATM   19  C   UNL     1       9.073  32.477  60.580  1.00  0.00     0.009 A 
HETATM   20  C   UNL     1       9.973  32.535  59.514  1.00  0.00     0.002 A 
HETATM   21  C   UNL     1      10.022  31.499  58.582  1.00  0.00     0.017 A 
HETATM   22  C   UNL     1       9.172  30.397  58.726  1.00  0.00     0.033 A 
HETATM   23  C   UNL     1       8.298  30.324  59.818  1.00  0.00     0.026 A 
BRANCH  22  24
HETATM   24  C   UNL     1       9.168  29.281  57.741  1.00  0.00     0.256 C 
HETATM   25  O   UNL     1      10.201  29.054  57.125  1.00  0.00    -0.267 OA
HETATM   26  N   UNL     1       7.983  28.572  57.679  1.00  0.00    -0.323 N 
HETATM   27  H   UNL     1       7.277  28.789  58.371  1.00  0.00     0.169 HD
BRANCH  26  28
HETATM   28  C   UNL     1       7.662  27.521  56.795  1.00  0.00     0.035 A 
HETATM   29  C   UNL     1       7.104  27.712  55.531  1.00  0.00     0.030 A 
HETATM   30  C   UNL     1       6.762  26.615  54.733  1.00  0.00     0.009 A 
HETATM   31  C   UNL     1       6.981  25.306  55.179  1.00  0.00    -0.056 A 
HETATM   32  C   UNL     1       7.553  25.115  56.439  1.00  0.00     0.009 A 
HETATM   33  C   UNL     1       7.889  26.213  57.241  1.00  0.00     0.030 A 
BRANCH  31  34
HETATM   34  C   UNL     1       6.554  24.122  54.340  1.00  0.00     0.068 C 
BRANCH  34  35
HETATM   35  C   UNL     1       7.172  22.791  54.808  1.00  0.00     0.277 C 
BRANCH  35  36
HETATM   36  N   UNL     1       8.496  22.538  54.205  1.00  0.00     0.092 N 
HETATM   37  C   UNL     1       9.385  21.718  55.060  1.00  0.00     0.298 C 
HETATM   38  C   UNL     1       8.995  20.232  55.136  1.00  0.00     0.198 C 
HETATM   39  O   UNL     1       8.919  19.645  53.832  1.00  0.00    -0.388 OA
HETATM   40  C   UNL     1       7.991  20.362  53.007  1.00  0.00     0.198 C 
HETATM   41  C   UNL     1       8.367  21.849  52.899  1.00  0.00     0.298 C 
ENDBRANCH  35  36
ENDBRANCH  34  35
ENDBRANCH  31  34
ENDBRANCH  26  28
ENDBRANCH  22  24
ENDBRANCH  14  18
ENDBRANCH   1   9
TORSDOF 7
ENDMDL
MODEL 3
REMARK VINA RESULT:     -10.5      3.539     11.348
REMARK  7 active torsions:
REMARK  status: ('A' for Active; 'I' for Inactive)
REMARK       I    between atoms: C_2  and  N_3 
REMARK       I    between atoms: C_2  and  N_12 
REMARK    1  A    between atoms: N_3  and  C_4 
REMARK    2  A    between atoms: C_16  and  C_17 
REMARK    3  A    between atoms: C_21  and  C_23 
REMARK       I    between atoms: C_23  and  N_25 
REMARK    4  A    between atoms: N_25  and  C_26 
REMARK    5  A    between atoms: C_29  and  C_30 
REMARK    6  A    between atoms: C_30  and  C_31 
REMARK    7  A    between atoms: C_31  and  N_32 
ROOT
HETATM    1  C   UNL     1       4.745  31.784  58.200  1.00  0.00     0.037 A 
HETATM    2  C   UNL     1       3.691  30.958  57.802  1.00  0.00     0.029 A 
HETATM    3  C   UNL     1       3.057  31.158  56.572  1.00  0.00     0.004 A 
HETATM    4  C   UNL     1       3.470  32.187  55.729  1.00  0.00     0.023 A 
HETATM    5  C   UNL     1       4.520  33.022  56.117  1.00  0.00     0.046 A 
HETATM    6  C   UNL     1       5.154  32.819  57.349  1.00  0.00     0.052 A 
HETATM    7  C   UNL     1       4.939  34.094  55.262  1.00  0.00     0.099 C 
HETATM    8  N   UNL     1       5.270  34.971  54.578  1.00  0.00    -0.191 NA
ENDROOT
BRANCH   1   9
HETATM    9  N   UNL     1       5.395  31.680  59.445  1.00  0.00    -0.309 N 
HETATM   10  C   UNL     1       5.508  32.636  60.428  1.00  0.00     0.323 C 
HETATM   11  O   UNL     1       4.847  33.671  60.476  1.00  0.00    -0.247 OA
HETATM   12  N   UNL     1       6.474  32.367  61.381  1.00  0.00    -0.325 N 
HETATM   13  C   UNL     1       6.671  33.279  62.495  1.00  0.00     0.128 C 
HETATM   14  C   UNL     1       7.365  31.208  61.484  1.00  0.00     0.122 C 
HETATM   15  C   UNL     1       8.018  32.894  63.084  1.00  0.00     0.022 C 
HETATM   16  C   UNL     1       8.095  31.394  62.821  1.00  0.00     0.032 C 
HETATM   17  H   UNL     1       5.811  30.789  59.649  1.00  0.00     0.170 HD
BRANCH  14  18
HETATM   18  C   UNL     1       8.303  31.075  60.297  1.00  0.00    -0.034 A 
HETATM   19  C   UNL     1       9.363  31.970  60.076  1.00  0.00     0.009 A 
HETATM   20  C   UNL     1      10.170  31.861  58.942  1.00  0.00     0.002 A 
HETATM   21  C   UNL     1       9.921  30.865  57.997  1.00  0.00     0.017 A 
HETATM   22  C   UNL     1       8.864  29.972  58.196  1.00  0.00     0.033 A 
HETATM   23  C   UNL     1       8.079  30.060  59.353  1.00  0.00     0.026 A 
BRANCH  22  24
HETATM   24  C   UNL     1       8.540  28.911  57.202  1.00  0.00     0.256 C 
HETATM   25  O   UNL     1       9.248  27.912  57.177  1.00  0.00    -0.267 OA
HETATM   26  N   UNL     1       7.411  29.157  56.444  1.00  0.00    -0.323 N 
HETATM   27  H   UNL     1       6.848  29.958  56.699  1.00  0.00     0.169 HD
BRANCH  26  28
HETATM   28  C   UNL     1       6.909  28.376  55.383  1.00  0.00     0.035 A 
HETATM   29  C   UNL     1       7.646  28.043  54.246  1.00  0.00     0.030 A 
HETATM   30  C   UNL     1       7.059  27.310  53.209  1.00  0.00     0.009 A 
HETATM   31  C   UNL     1       5.728  26.885  53.294  1.00  0.00    -0.056 A 
HETATM   32  C   UNL     1       4.994  27.206  54.439  1.00  0.00     0.009 A 
HETATM   33  C   UNL     1       5.579  27.946  55.473  1.00  0.00     0.030 A 
BRANCH  31  34
HETATM   34  C   UNL     1       5.077  26.146  52.146  1.00  0.00     0.068 C 
BRANCH  34  35
HETATM   35  C   UNL     1       5.468  26.705  50.764  1.00  0.00     0.277 C 
BRANCH  35  36
HETATM   36  N   UNL     1       4.358  27.426  50.110  1.00  0.00     0.092 N 
HETATM   37  C   UNL     1       4.748  28.755  49.586  1.00  0.00     0.298 C 
HETATM   38  C   UNL     1       5.627  28.705  48.325  1.00  0.00     0.198 C 
HETATM   39  O   UNL     1       4.999  27.951  47.282  1.00  0.00    -0.388 OA
HETATM   40  C   UNL     1       4.694  26.623  47.729  1.00  0.00     0.198 C 
HETATM   41  C   UNL     1       3.801  26.643  48.981  1.00  0.00     0.298 C 
ENDBRANCH  35  36
ENDBRANCH  34  35
ENDBRANCH  31  34
ENDBRANCH  26  28
ENDBRANCH  22  24
ENDBRANCH  14  18
ENDBRANCH   1   9
TORSDOF 7
ENDMDL
MODEL 4
REMARK VINA RESULT:     -10.5      2.652     10.457
REMARK  7 active torsions:
REMARK  status: ('A' for Active; 'I' for Inactive)
REMARK       I    between atoms: C_2  and  N_3 
REMARK       I    between atoms: C_2  and  N_12 
REMARK    1  A    between atoms: N_3  and  C_4 
REMARK    2  A    between atoms: C_16  and  C_17 
REMARK    3  A    between atoms: C_21  and  C_23 
REMARK       I    between atoms: C_23  and  N_25 
REMARK    4  A    between atoms: N_25  and  C_26 
REMARK    5  A    between atoms: C_29  and  C_30 
REMARK    6  A    between atoms: C_30  and  C_31 
REMARK    7  A    between atoms: C_31  and  N_32 
ROOT
HETATM    1  C   UNL     1       8.844  31.396  59.325  1.00  0.00     0.037 A 
HETATM    2  C   UNL     1       9.958  31.678  58.531  1.00  0.00     0.029 A 
HETATM    3  C   UNL     1      10.392  30.764  57.566  1.00  0.00     0.004 A 
HETATM    4  C   UNL     1       9.717  29.559  57.387  1.00  0.00     0.023 A 
HETATM    5  C   UNL     1       8.603  29.264  58.175  1.00  0.00     0.046 A 
HETATM    6  C   UNL     1       8.170  30.181  59.141  1.00  0.00     0.052 A 
HETATM    7  C   UNL     1       7.914  28.018  58.008  1.00  0.00     0.099 C 
HETATM    8  N   UNL     1       7.363  27.005  57.883  1.00  0.00    -0.191 NA
ENDROOT
BRANCH   1   9
HETATM    9  N   UNL     1       8.379  32.239  60.353  1.00  0.00    -0.309 N 
HETATM   10  C   UNL     1       8.584  32.120  61.708  1.00  0.00     0.323 C 
HETATM   11  O   UNL     1       9.415  31.379  62.228  1.00  0.00    -0.247 OA
HETATM   12  N   UNL     1       7.739  32.894  62.485  1.00  0.00    -0.325 N 
HETATM   13  C   UNL     1       7.874  32.889  63.932  1.00  0.00     0.128 C 
HETATM   14  C   UNL     1       6.686  33.818  62.056  1.00  0.00     0.122 C 
HETATM   15  C   UNL     1       6.584  33.505  64.448  1.00  0.00     0.022 C 
HETATM   16  C   UNL     1       6.208  34.493  63.349  1.00  0.00     0.032 C 
HETATM   17  H   UNL     1       7.850  33.040  60.056  1.00  0.00     0.170 HD
BRANCH  14  18
HETATM   18  C   UNL     1       5.572  33.129  61.288  1.00  0.00    -0.034 A 
HETATM   19  C   UNL     1       4.390  32.694  61.909  1.00  0.00     0.009 A 
HETATM   20  C   UNL     1       3.411  32.007  61.189  1.00  0.00     0.002 A 
HETATM   21  C   UNL     1       3.602  31.726  59.837  1.00  0.00     0.017 A 
HETATM   22  C   UNL     1       4.778  32.142  59.203  1.00  0.00     0.033 A 
HETATM   23  C   UNL     1       5.742  32.865  59.919  1.00  0.00     0.026 A 
BRANCH  22  24
HETATM   24  C   UNL     1       5.041  31.840  57.770  1.00  0.00     0.256 C 
HETATM   25  O   UNL     1       5.655  32.671  57.110  1.00  0.00    -0.267 OA
HETATM   26  N   UNL     1       4.605  30.597  57.353  1.00  0.00    -0.323 N 
HETATM   27  H   UNL     1       4.257  29.966  58.064  1.00  0.00     0.169 HD
BRANCH  26  28
HETATM   28  C   UNL     1       4.647  30.071  56.045  1.00  0.00     0.035 A 
HETATM   29  C   UNL     1       3.625  30.230  55.110  1.00  0.00     0.030 A 
HETATM   30  C   UNL     1       3.717  29.631  53.849  1.00  0.00     0.009 A 
HETATM   31  C   UNL     1       4.838  28.871  53.495  1.00  0.00    -0.056 A 
HETATM   32  C   UNL     1       5.869  28.724  54.427  1.00  0.00     0.009 A 
HETATM   33  C   UNL     1       5.773  29.318  55.691  1.00  0.00     0.030 A 
BRANCH  31  34
HETATM   34  C   UNL     1       4.907  28.174  52.154  1.00  0.00     0.068 C 
BRANCH  34  35
HETATM   35  C   UNL     1       6.174  27.315  51.981  1.00  0.00     0.277 C 
BRANCH  35  36
HETATM   36  N   UNL     1       5.866  25.889  51.757  1.00  0.00     0.092 N 
HETATM   37  C   UNL     1       7.063  25.017  51.785  1.00  0.00     0.298 C 
HETATM   38  C   UNL     1       7.655  24.799  53.188  1.00  0.00     0.198 C 
HETATM   39  O   UNL     1       6.672  24.284  54.093  1.00  0.00    -0.388 OA
HETATM   40  C   UNL     1       5.537  25.157  54.162  1.00  0.00     0.198 C 
HETATM   41  C   UNL     1       4.915  25.379  52.773  1.00  0.00     0.298 C 
ENDBRANCH  35  36
ENDBRANCH  34  35
ENDBRANCH  31  34
ENDBRANCH  26  28
ENDBRANCH  22  24
ENDBRANCH  14  18
ENDBRANCH   1   9
TORSDOF 7
ENDMDL
MODEL 5
REMARK VINA RESULT:     -10.4      2.896      5.835
REMARK  7 active torsions:
REMARK  status: ('A' for Active; 'I' for Inactive)
REMARK       I    between atoms: C_2  and  N_3 
REMARK       I    between atoms: C_2  and  N_12 
REMARK    1  A    between atoms: N_3  and  C_4 
REMARK    2  A    between atoms: C_16  and  C_17 
REMARK    3  A    between atoms: C_21  and  C_23 
REMARK       I    between atoms: C_23  and  N_25 
REMARK    4  A    between atoms: N_25  and  C_26 
REMARK    5  A    between atoms: C_29  and  C_30 
REMARK    6  A    between atoms: C_30  and  C_31 
REMARK    7  A    between atoms: C_31  and  N_32 
ROOT
HETATM    1  C   UNL     1       8.482  29.794  58.647  1.00  0.00     0.037 A 
HETATM    2  C   UNL     1       9.410  30.464  57.846  1.00  0.00     0.029 A 
HETATM    3  C   UNL     1      10.081  31.592  58.328  1.00  0.00     0.004 A 
HETATM    4  C   UNL     1       9.829  32.061  59.615  1.00  0.00     0.023 A 
HETATM    5  C   UNL     1       8.902  31.402  60.425  1.00  0.00     0.046 A 
HETATM    6  C   UNL     1       8.232  30.272  59.941  1.00  0.00     0.052 A 
HETATM    7  C   UNL     1       8.626  31.890  61.745  1.00  0.00     0.099 C 
HETATM    8  N   UNL     1       8.391  32.291  62.808  1.00  0.00    -0.191 NA
ENDROOT
BRANCH   1   9
HETATM    9  N   UNL     1       7.727  28.686  58.214  1.00  0.00    -0.309 N 
HETATM   10  C   UNL     1       8.134  27.636  57.424  1.00  0.00     0.323 C 
HETATM   11  O   UNL     1       9.304  27.372  57.159  1.00  0.00    -0.247 OA
HETATM   12  N   UNL     1       7.100  26.883  56.896  1.00  0.00    -0.325 N 
HETATM   13  C   UNL     1       7.393  25.722  56.074  1.00  0.00     0.128 C 
HETATM   14  C   UNL     1       5.656  27.048  57.082  1.00  0.00     0.122 C 
HETATM   15  C   UNL     1       6.085  25.399  55.371  1.00  0.00     0.022 C 
HETATM   16  C   UNL     1       5.031  25.831  56.385  1.00  0.00     0.032 C 
HETATM   17  H   UNL     1       6.778  28.649  58.543  1.00  0.00     0.170 HD
BRANCH  14  18
HETATM   18  C   UNL     1       5.140  28.375  56.555  1.00  0.00    -0.034 A 
HETATM   19  C   UNL     1       5.089  28.668  55.182  1.00  0.00     0.009 A 
HETATM   20  C   UNL     1       4.669  29.921  54.730  1.00  0.00     0.002 A 
HETATM   21  C   UNL     1       4.310  30.911  55.643  1.00  0.00     0.017 A 
HETATM   22  C   UNL     1       4.364  30.641  57.014  1.00  0.00     0.033 A 
HETATM   23  C   UNL     1       4.749  29.371  57.464  1.00  0.00     0.026 A 
BRANCH  22  24
HETATM   24  C   UNL     1       4.018  31.675  58.028  1.00  0.00     0.256 C 
HETATM   25  O   UNL     1       3.189  32.524  57.724  1.00  0.00    -0.267 OA
HETATM   26  N   UNL     1       4.645  31.517  59.249  1.00  0.00    -0.323 N 
HETATM   27  H   UNL     1       5.182  30.670  59.387  1.00  0.00     0.169 HD
BRANCH  26  28
HETATM   28  C   UNL     1       4.573  32.377  60.364  1.00  0.00     0.035 A 
HETATM   29  C   UNL     1       3.556  32.329  61.318  1.00  0.00     0.030 A 
HETATM   30  C   UNL     1       3.523  33.253  62.368  1.00  0.00     0.009 A 
HETATM   31  C   UNL     1       4.512  34.236  62.491  1.00  0.00    -0.056 A 
HETATM   32  C   UNL     1       5.539  34.275  61.543  1.00  0.00     0.009 A 
HETATM   33  C   UNL     1       5.568  33.355  60.489  1.00  0.00     0.030 A 
BRANCH  31  34
HETATM   34  C   UNL     1       4.441  35.273  63.590  1.00  0.00     0.068 C 
BRANCH  34  35
HETATM   35  C   UNL     1       5.640  35.219  64.555  1.00  0.00     0.277 C 
BRANCH  35  36
HETATM   36  N   UNL     1       5.723  33.939  65.286  1.00  0.00     0.092 N 
HETATM   37  C   UNL     1       6.821  33.899  66.280  1.00  0.00     0.298 C 
HETATM   38  C   UNL     1       6.566  34.746  67.538  1.00  0.00     0.198 C 
HETATM   39  O   UNL     1       5.336  34.378  68.174  1.00  0.00    -0.388 OA
HETATM   40  C   UNL     1       4.237  34.497  67.262  1.00  0.00     0.198 C 
HETATM   41  C   UNL     1       4.459  33.646  66.000  1.00  0.00     0.298 C 
ENDBRANCH  35  36
ENDBRANCH  34  35
ENDBRANCH  31  34
ENDBRANCH  26  28
ENDBRANCH  22  24
ENDBRANCH  14  18
ENDBRANCH   1   9
TORSDOF 7
ENDMDL
MODEL 6
REMARK VINA RESULT:     -10.4      2.338      5.171
REMARK  7 active torsions:
REMARK  status: ('A' for Active; 'I' for Inactive)
REMARK       I    between atoms: C_2  and  N_3 
REMARK       I    between atoms: C_2  and  N_12 
REMARK    1  A    between atoms: N_3  and  C_4 
REMARK    2  A    between atoms: C_16  and  C_17 
REMARK    3  A    between atoms: C_21  and  C_23 
REMARK       I    between atoms: C_23  and  N_25 
REMARK    4  A    between atoms: N_25  and  C_26 
REMARK    5  A    between atoms: C_29  and  C_30 
REMARK    6  A    between atoms: C_30  and  C_31 
REMARK    7  A    between atoms: C_31  and  N_32 
ROOT
HETATM    1  C   UNL     1       4.581  29.364  54.953  1.00  0.00     0.037 A 
HETATM    2  C   UNL     1       4.473  29.258  56.341  1.00  0.00     0.029 A 
HETATM    3  C   UNL     1       3.734  30.194  57.071  1.00  0.00     0.004 A 
HETATM    4  C   UNL     1       3.096  31.247  56.418  1.00  0.00     0.023 A 
HETATM    5  C   UNL     1       3.197  31.365  55.030  1.00  0.00     0.046 A 
HETATM    6  C   UNL     1       3.938  30.426  54.302  1.00  0.00     0.052 A 
HETATM    7  C   UNL     1       2.557  32.456  54.353  1.00  0.00     0.099 C 
HETATM    8  N   UNL     1       2.051  33.345  53.805  1.00  0.00    -0.191 NA
ENDROOT
BRANCH   1   9
HETATM    9  N   UNL     1       5.351  28.495  54.157  1.00  0.00    -0.309 N 
HETATM   10  C   UNL     1       4.915  27.464  53.357  1.00  0.00     0.323 C 
HETATM   11  O   UNL     1       3.747  27.284  53.022  1.00  0.00    -0.247 OA
HETATM   12  N   UNL     1       5.909  26.585  52.963  1.00  0.00    -0.325 N 
HETATM   13  C   UNL     1       5.589  25.471  52.086  1.00  0.00     0.128 C 
HETATM   14  C   UNL     1       7.342  26.621  53.270  1.00  0.00     0.122 C 
HETATM   15  C   UNL     1       6.782  24.535  52.191  1.00  0.00     0.022 C 
HETATM   16  C   UNL     1       7.949  25.486  52.434  1.00  0.00     0.032 C 
HETATM   17  H   UNL     1       6.341  28.664  54.156  1.00  0.00     0.170 HD
BRANCH  14  18
HETATM   18  C   UNL     1       7.631  26.498  54.755  1.00  0.00    -0.034 A 
HETATM   19  C   UNL     1       7.516  25.279  55.444  1.00  0.00     0.009 A 
HETATM   20  C   UNL     1       7.727  25.209  56.822  1.00  0.00     0.002 A 
HETATM   21  C   UNL     1       8.041  26.362  57.542  1.00  0.00     0.017 A 
HETATM   22  C   UNL     1       8.150  27.586  56.876  1.00  0.00     0.033 A 
HETATM   23  C   UNL     1       7.975  27.647  55.487  1.00  0.00     0.026 A 
BRANCH  22  24
HETATM   24  C   UNL     1       8.453  28.848  57.605  1.00  0.00     0.256 C 
HETATM   25  O   UNL     1       9.538  29.381  57.405  1.00  0.00    -0.267 OA
HETATM   26  N   UNL     1       7.424  29.317  58.399  1.00  0.00    -0.323 N 
HETATM   27  H   UNL     1       6.533  28.841  58.330  1.00  0.00     0.169 HD
BRANCH  26  28
HETATM   28  C   UNL     1       7.448  30.436  59.257  1.00  0.00     0.035 A 
HETATM   29  C   UNL     1       8.335  30.577  60.324  1.00  0.00     0.030 A 
HETATM   30  C   UNL     1       8.262  31.693  61.165  1.00  0.00     0.009 A 
HETATM   31  C   UNL     1       7.307  32.694  60.949  1.00  0.00    -0.056 A 
HETATM   32  C   UNL     1       6.428  32.559  59.871  1.00  0.00     0.009 A 
HETATM   33  C   UNL     1       6.497  31.439  59.034  1.00  0.00     0.030 A 
BRANCH  31  34
HETATM   34  C   UNL     1       7.189  33.867  61.896  1.00  0.00     0.068 C 
BRANCH  34  35
HETATM   35  C   UNL     1       5.730  34.242  62.220  1.00  0.00     0.277 C 
BRANCH  35  36
HETATM   36  N   UNL     1       4.994  33.141  62.872  1.00  0.00     0.092 N 
HETATM   37  C   UNL     1       5.170  33.104  64.342  1.00  0.00     0.298 C 
HETATM   38  C   UNL     1       4.425  34.218  65.097  1.00  0.00     0.198 C 
HETATM   39  O   UNL     1       3.027  34.213  64.787  1.00  0.00    -0.388 OA
HETATM   40  C   UNL     1       2.819  34.343  63.375  1.00  0.00     0.198 C 
HETATM   41  C   UNL     1       3.540  33.229  62.596  1.00  0.00     0.298 C 
ENDBRANCH  35  36
ENDBRANCH  34  35
ENDBRANCH  31  34
ENDBRANCH  26  28
ENDBRANCH  22  24
ENDBRANCH  14  18
ENDBRANCH   1   9
TORSDOF 7
ENDMDL
MODEL 7
REMARK VINA RESULT:     -10.2      5.536     11.940
REMARK  7 active torsions:
REMARK  status: ('A' for Active; 'I' for Inactive)
REMARK       I    between atoms: C_2  and  N_3 
REMARK       I    between atoms: C_2  and  N_12 
REMARK    1  A    between atoms: N_3  and  C_4 
REMARK    2  A    between atoms: C_16  and  C_17 
REMARK    3  A    between atoms: C_21  and  C_23 
REMARK       I    between atoms: C_23  and  N_25 
REMARK    4  A    between atoms: N_25  and  C_26 
REMARK    5  A    between atoms: C_29  and  C_30 
REMARK    6  A    between atoms: C_30  and  C_31 
REMARK    7  A    between atoms: C_31  and  N_32 
ROOT
HETATM    1  C   UNL     1       7.323  26.908  56.834  1.00  0.00     0.037 A 
HETATM    2  C   UNL     1       6.240  27.735  57.142  1.00  0.00     0.029 A 
HETATM    3  C   UNL     1       6.426  29.107  57.338  1.00  0.00     0.004 A 
HETATM    4  C   UNL     1       7.698  29.664  57.231  1.00  0.00     0.023 A 
HETATM    5  C   UNL     1       8.789  28.849  56.926  1.00  0.00     0.046 A 
HETATM    6  C   UNL     1       8.600  27.475  56.729  1.00  0.00     0.052 A 
HETATM    7  C   UNL     1      10.104  29.413  56.831  1.00  0.00     0.099 C 
HETATM    8  N   UNL     1      11.170  29.866  56.767  1.00  0.00    -0.191 NA
ENDROOT
BRANCH   1   9
HETATM    9  N   UNL     1       7.225  25.512  56.676  1.00  0.00    -0.309 N 
HETATM   10  C   UNL     1       8.051  24.538  57.188  1.00  0.00     0.323 C 
HETATM   11  O   UNL     1       8.884  24.721  58.072  1.00  0.00    -0.247 OA
HETATM   12  N   UNL     1       7.905  23.295  56.598  1.00  0.00    -0.325 N 
HETATM   13  C   UNL     1       8.692  22.169  57.070  1.00  0.00     0.128 C 
HETATM   14  C   UNL     1       6.987  22.887  55.530  1.00  0.00     0.122 C 
HETATM   15  C   UNL     1       8.570  21.120  55.978  1.00  0.00     0.022 C 
HETATM   16  C   UNL     1       7.176  21.369  55.412  1.00  0.00     0.032 C 
HETATM   17  H   UNL     1       6.440  25.187  56.141  1.00  0.00     0.170 HD
BRANCH  14  18
HETATM   18  C   UNL     1       7.230  23.628  54.227  1.00  0.00    -0.034 A 
HETATM   19  C   UNL     1       8.510  23.750  53.661  1.00  0.00     0.009 A 
HETATM   20  C   UNL     1       8.712  24.491  52.495  1.00  0.00     0.002 A 
HETATM   21  C   UNL     1       7.641  25.141  51.883  1.00  0.00     0.017 A 
HETATM   22  C   UNL     1       6.361  25.040  52.438  1.00  0.00     0.033 A 
HETATM   23  C   UNL     1       6.154  24.264  53.586  1.00  0.00     0.026 A 
BRANCH  22  24
HETATM   24  C   UNL     1       5.192  25.739  51.838  1.00  0.00     0.256 C 
HETATM   25  O   UNL     1       4.240  25.994  52.564  1.00  0.00    -0.267 OA
HETATM   26  N   UNL     1       5.346  26.082  50.508  1.00  0.00    -0.323 N 
HETATM   27  H   UNL     1       6.259  25.938  50.096  1.00  0.00     0.169 HD
BRANCH  26  28
HETATM   28  C   UNL     1       4.386  26.677  49.663  1.00  0.00     0.035 A 
HETATM   29  C   UNL     1       4.039  28.026  49.710  1.00  0.00     0.030 A 
HETATM   30  C   UNL     1       3.038  28.532  48.875  1.00  0.00     0.009 A 
HETATM   31  C   UNL     1       2.371  27.700  47.968  1.00  0.00    -0.056 A 
HETATM   32  C   UNL     1       2.729  26.350  47.910  1.00  0.00     0.009 A 
HETATM   33  C   UNL     1       3.727  25.843  48.751  1.00  0.00     0.030 A 
BRANCH  31  34
HETATM   34  C   UNL     1       1.246  28.234  47.109  1.00  0.00     0.068 C 
BRANCH  34  35
HETATM   35  C   UNL     1       0.714  29.599  47.586  1.00  0.00     0.277 C 
BRANCH  35  36
HETATM   36  N   UNL     1       0.370  30.496  46.466  1.00  0.00     0.092 N 
HETATM   37  C   UNL     1      -0.410  29.830  45.397  1.00  0.00     0.298 C 
HETATM   38  C   UNL     1      -1.872  29.531  45.772  1.00  0.00     0.198 C 
HETATM   39  O   UNL     1      -2.556  30.719  46.189  1.00  0.00    -0.388 OA
HETATM   40  C   UNL     1      -1.876  31.338  47.289  1.00  0.00     0.198 C 
HETATM   41  C   UNL     1      -0.415  31.663  46.934  1.00  0.00     0.298 C 
ENDBRANCH  35  36
ENDBRANCH  34  35
ENDBRANCH  31  34
ENDBRANCH  26  28
ENDBRANCH  22  24
ENDBRANCH  14  18
ENDBRANCH   1   9
TORSDOF 7
ENDMDL
MODEL 8
REMARK VINA RESULT:     -10.1      3.723     11.007
REMARK  7 active torsions:
REMARK  status: ('A' for Active; 'I' for Inactive)
REMARK       I    between atoms: C_2  and  N_3 
REMARK       I    between atoms: C_2  and  N_12 
REMARK    1  A    between atoms: N_3  and  C_4 
REMARK    2  A    between atoms: C_16  and  C_17 
REMARK    3  A    between atoms: C_21  and  C_23 
REMARK       I    between atoms: C_23  and  N_25 
REMARK    4  A    between atoms: N_25  and  C_26 
REMARK    5  A    between atoms: C_29  and  C_30 
REMARK    6  A    between atoms: C_30  and  C_31 
REMARK    7  A    between atoms: C_31  and  N_32 
ROOT
HETATM    1  C   UNL     1       8.781  31.328  59.279  1.00  0.00     0.037 A 
HETATM    2  C   UNL     1       9.976  31.546  58.590  1.00  0.00     0.029 A 
HETATM    3  C   UNL     1      10.416  30.636  57.624  1.00  0.00     0.004 A 
HETATM    4  C   UNL     1       9.666  29.497  57.340  1.00  0.00     0.023 A 
HETATM    5  C   UNL     1       8.470  29.266  58.024  1.00  0.00     0.046 A 
HETATM    6  C   UNL     1       8.031  30.179  58.990  1.00  0.00     0.052 A 
HETATM    7  C   UNL     1       7.702  28.087  57.749  1.00  0.00     0.099 C 
HETATM    8  N   UNL     1       7.085  27.127  57.537  1.00  0.00    -0.191 NA
ENDROOT
BRANCH   1   9
HETATM    9  N   UNL     1       8.300  32.169  60.302  1.00  0.00    -0.309 N 
HETATM   10  C   UNL     1       8.488  32.049  61.660  1.00  0.00     0.323 C 
HETATM   11  O   UNL     1       9.315  31.311  62.189  1.00  0.00    -0.247 OA
HETATM   12  N   UNL     1       7.631  32.819  62.426  1.00  0.00    -0.325 N 
HETATM   13  C   UNL     1       7.748  32.813  63.875  1.00  0.00     0.128 C 
HETATM   14  C   UNL     1       6.580  33.740  61.984  1.00  0.00     0.122 C 
HETATM   15  C   UNL     1       6.449  33.424  64.375  1.00  0.00     0.022 C 
HETATM   16  C   UNL     1       6.083  34.411  63.272  1.00  0.00     0.032 C 
HETATM   17  H   UNL     1       7.772  32.968  59.999  1.00  0.00     0.170 HD
BRANCH  14  18
HETATM   18  C   UNL     1       5.478  33.047  61.202  1.00  0.00    -0.034 A 
HETATM   19  C   UNL     1       4.422  32.370  61.832  1.00  0.00     0.009 A 
HETATM   20  C   UNL     1       3.458  31.689  61.087  1.00  0.00     0.002 A 
HETATM   21  C   UNL     1       3.542  31.656  59.695  1.00  0.00     0.017 A 
HETATM   22  C   UNL     1       4.593  32.316  59.050  1.00  0.00     0.033 A 
HETATM   23  C   UNL     1       5.538  33.030  59.799  1.00  0.00     0.026 A 
BRANCH  22  24
HETATM   24  C   UNL     1       4.743  32.285  57.569  1.00  0.00     0.256 C 
HETATM   25  O   UNL     1       5.535  33.065  57.055  1.00  0.00    -0.267 OA
HETATM   26  N   UNL     1       3.995  31.311  56.934  1.00  0.00    -0.323 N 
HETATM   27  H   UNL     1       3.512  30.643  57.522  1.00  0.00     0.169 HD
BRANCH  26  28
HETATM   28  C   UNL     1       3.876  31.095  55.546  1.00  0.00     0.035 A 
HETATM   29  C   UNL     1       3.062  31.857  54.708  1.00  0.00     0.030 A 
HETATM   30  C   UNL     1       2.955  31.546  53.348  1.00  0.00     0.009 A 
HETATM   31  C   UNL     1       3.668  30.475  52.798  1.00  0.00    -0.056 A 
HETATM   32  C   UNL     1       4.496  29.721  53.635  1.00  0.00     0.009 A 
HETATM   33  C   UNL     1       4.597  30.028  54.997  1.00  0.00     0.030 A 
BRANCH  31  34
HETATM   34  C   UNL     1       3.504  30.103  51.341  1.00  0.00     0.068 C 
BRANCH  34  35
HETATM   35  C   UNL     1       3.774  28.612  51.060  1.00  0.00     0.277 C 
BRANCH  35  36
HETATM   36  N   UNL     1       5.025  28.395  50.308  1.00  0.00     0.092 N 
HETATM   37  C   UNL     1       5.328  26.964  50.071  1.00  0.00     0.298 C 
HETATM   38  C   UNL     1       4.430  26.293  49.019  1.00  0.00     0.198 C 
HETATM   39  O   UNL     1       4.471  26.998  47.773  1.00  0.00    -0.388 OA
HETATM   40  C   UNL     1       4.089  28.368  47.952  1.00  0.00     0.198 C 
HETATM   41  C   UNL     1       4.983  29.070  48.989  1.00  0.00     0.298 C 
ENDBRANCH  35  36
ENDBRANCH  34  35
ENDBRANCH  31  34
ENDBRANCH  26  28
ENDBRANCH  22  24
ENDBRANCH  14  18
ENDBRANCH   1   9
TORSDOF 7
ENDMDL
MODEL 9
REMARK VINA RESULT:     -10.0      4.436      7.686
REMARK  7 active torsions:
REMARK  status: ('A' for Active; 'I' for Inactive)
REMARK       I    between atoms: C_2  and  N_3 
REMARK       I    between atoms: C_2  and  N_12 
REMARK    1  A    between atoms: N_3  and  C_4 
REMARK    2  A    between atoms: C_16  and  C_17 
REMARK    3  A    between atoms: C_21  and  C_23 
REMARK       I    between atoms: C_23  and  N_25 
REMARK    4  A    between atoms: N_25  and  C_26 
REMARK    5  A    between atoms: C_29  and  C_30 
REMARK    6  A    between atoms: C_30  and  C_31 
REMARK    7  A    between atoms: C_31  and  N_32 
ROOT
HETATM    1  C   UNL     1       7.465  27.036  57.092  1.00  0.00     0.037 A 
HETATM    2  C   UNL     1       6.390  27.854  57.446  1.00  0.00     0.029 A 
HETATM    3  C   UNL     1       6.586  29.215  57.700  1.00  0.00     0.004 A 
HETATM    4  C   UNL     1       7.860  29.770  57.604  1.00  0.00     0.023 A 
HETATM    5  C   UNL     1       8.944  28.962  57.254  1.00  0.00     0.046 A 
HETATM    6  C   UNL     1       8.745  27.600  57.000  1.00  0.00     0.052 A 
HETATM    7  C   UNL     1      10.261  29.523  57.171  1.00  0.00     0.099 C 
HETATM    8  N   UNL     1      11.330  29.972  57.116  1.00  0.00    -0.191 NA
ENDROOT
BRANCH   1   9
HETATM    9  N   UNL     1       7.358  25.648  56.875  1.00  0.00    -0.309 N 
HETATM   10  C   UNL     1       8.220  24.655  57.278  1.00  0.00     0.323 C 
HETATM   11  O   UNL     1       9.116  24.799  58.107  1.00  0.00    -0.247 OA
HETATM   12  N   UNL     1       8.033  23.441  56.641  1.00  0.00    -0.325 N 
HETATM   13  C   UNL     1       8.854  22.297  57.000  1.00  0.00     0.128 C 
HETATM   14  C   UNL     1       7.040  23.080  55.625  1.00  0.00     0.122 C 
HETATM   15  C   UNL     1       8.653  21.301  55.870  1.00  0.00     0.022 C 
HETATM   16  C   UNL     1       7.221  21.570  55.421  1.00  0.00     0.032 C 
HETATM   17  H   UNL     1       6.536  25.345  56.384  1.00  0.00     0.170 HD
BRANCH  14  18
HETATM   18  C   UNL     1       7.186  23.884  54.345  1.00  0.00    -0.034 A 
HETATM   19  C   UNL     1       7.815  23.366  53.202  1.00  0.00     0.009 A 
HETATM   20  C   UNL     1       7.991  24.150  52.060  1.00  0.00     0.002 A 
HETATM   21  C   UNL     1       7.557  25.475  52.047  1.00  0.00     0.017 A 
HETATM   22  C   UNL     1       6.936  26.012  53.180  1.00  0.00     0.033 A 
HETATM   23  C   UNL     1       6.727  25.211  54.310  1.00  0.00     0.026 A 
BRANCH  22  24
HETATM   24  C   UNL     1       6.482  27.429  53.224  1.00  0.00     0.256 C 
HETATM   25  O   UNL     1       7.336  28.307  53.209  1.00  0.00    -0.267 OA
HETATM   26  N   UNL     1       5.110  27.595  53.215  1.00  0.00    -0.323 N 
HETATM   27  H   UNL     1       4.545  26.768  53.065  1.00  0.00     0.169 HD
BRANCH  26  28
HETATM   28  C   UNL     1       4.396  28.805  53.326  1.00  0.00     0.035 A 
HETATM   29  C   UNL     1       3.911  29.525  52.234  1.00  0.00     0.030 A 
HETATM   30  C   UNL     1       3.258  30.748  52.423  1.00  0.00     0.009 A 
HETATM   31  C   UNL     1       3.067  31.269  53.708  1.00  0.00    -0.056 A 
HETATM   32  C   UNL     1       3.539  30.540  54.803  1.00  0.00     0.009 A 
HETATM   33  C   UNL     1       4.199  29.320  54.613  1.00  0.00     0.030 A 
BRANCH  31  34
HETATM   34  C   UNL     1       2.416  32.620  53.906  1.00  0.00     0.068 C 
BRANCH  34  35
HETATM   35  C   UNL     1       2.273  33.014  55.388  1.00  0.00     0.277 C 
BRANCH  35  36
HETATM   36  N   UNL     1       2.538  34.448  55.622  1.00  0.00     0.092 N 
HETATM   37  C   UNL     1       2.692  34.792  57.054  1.00  0.00     0.298 C 
HETATM   38  C   UNL     1       4.013  34.317  57.680  1.00  0.00     0.198 C 
HETATM   39  O   UNL     1       5.143  34.810  56.950  1.00  0.00    -0.388 OA
HETATM   40  C   UNL     1       5.072  34.411  55.575  1.00  0.00     0.198 C 
HETATM   41  C   UNL     1       3.766  34.889  54.919  1.00  0.00     0.298 C 
ENDBRANCH  35  36
ENDBRANCH  34  35
ENDBRANCH  31  34
ENDBRANCH  26  28
ENDBRANCH  22  24
ENDBRANCH  14  18
ENDBRANCH   1   9
TORSDOF 7
ENDMDL
MODEL 10
REMARK VINA RESULT:     -10.0      5.546     11.444
REMARK  7 active torsions:
REMARK  status: ('A' for Active; 'I' for Inactive)
REMARK       I    between atoms: C_2  and  N_3 
REMARK       I    between atoms: C_2  and  N_12 
REMARK    1  A    between atoms: N_3  and  C_4 
REMARK    2  A    between atoms: C_16  and  C_17 
REMARK    3  A    between atoms: C_21  and  C_23 
REMARK       I    between atoms: C_23  and  N_25 
REMARK    4  A    between atoms: N_25  and  C_26 
REMARK    5  A    between atoms: C_29  and  C_30 
REMARK    6  A    between atoms: C_30  and  C_31 
REMARK    7  A    between atoms: C_31  and  N_32 
ROOT
HETATM    1  C   UNL     1       7.220  26.861  56.787  1.00  0.00     0.037 A 
HETATM    2  C   UNL     1       6.108  27.664  57.052  1.00  0.00     0.029 A 
HETATM    3  C   UNL     1       6.252  29.045  57.219  1.00  0.00     0.004 A 
HETATM    4  C   UNL     1       7.510  29.635  57.125  1.00  0.00     0.023 A 
HETATM    5  C   UNL     1       8.630  28.843  56.864  1.00  0.00     0.046 A 
HETATM    6  C   UNL     1       8.484  27.461  56.696  1.00  0.00     0.052 A 
HETATM    7  C   UNL     1       9.931  29.442  56.783  1.00  0.00     0.099 C 
HETATM    8  N   UNL     1      10.986  29.923  56.731  1.00  0.00    -0.191 NA
ENDROOT
BRANCH   1   9
HETATM    9  N   UNL     1       7.164  25.459  56.661  1.00  0.00    -0.309 N 
HETATM   10  C   UNL     1       8.012  24.522  57.204  1.00  0.00     0.323 C 
HETATM   11  O   UNL     1       8.829  24.749  58.093  1.00  0.00    -0.247 OA
HETATM   12  N   UNL     1       7.907  23.261  56.643  1.00  0.00    -0.325 N 
HETATM   13  C   UNL     1       8.721  22.170  57.150  1.00  0.00     0.128 C 
HETATM   14  C   UNL     1       7.014  22.803  55.575  1.00  0.00     0.122 C 
HETATM   15  C   UNL     1       8.642  21.093  56.080  1.00  0.00     0.022 C 
HETATM   16  C   UNL     1       7.247  21.288  55.495  1.00  0.00     0.032 C 
HETATM   17  H   UNL     1       6.394  25.099  56.125  1.00  0.00     0.170 HD
BRANCH  14  18
HETATM   18  C   UNL     1       7.250  23.520  54.258  1.00  0.00    -0.034 A 
HETATM   19  C   UNL     1       8.514  23.570  53.647  1.00  0.00     0.009 A 
HETATM   20  C   UNL     1       8.715  24.291  52.468  1.00  0.00     0.002 A 
HETATM   21  C   UNL     1       7.658  24.991  51.886  1.00  0.00     0.017 A 
HETATM   22  C   UNL     1       6.395  24.962  52.486  1.00  0.00     0.033 A 
HETATM   23  C   UNL     1       6.188  24.207  53.648  1.00  0.00     0.026 A 
BRANCH  22  24
HETATM   24  C   UNL     1       5.244  25.717  51.919  1.00  0.00     0.256 C 
HETATM   25  O   UNL     1       4.302  25.971  52.660  1.00  0.00    -0.267 OA
HETATM   26  N   UNL     1       5.402  26.107  50.603  1.00  0.00    -0.323 N 
HETATM   27  H   UNL     1       6.310  25.953  50.181  1.00  0.00     0.169 HD
BRANCH  26  28
HETATM   28  C   UNL     1       4.457  26.762  49.787  1.00  0.00     0.035 A 
HETATM   29  C   UNL     1       3.752  26.136  48.759  1.00  0.00     0.030 A 
HETATM   30  C   UNL     1       2.870  26.867  47.956  1.00  0.00     0.009 A 
HETATM   31  C   UNL     1       2.667  28.235  48.172  1.00  0.00    -0.056 A 
HETATM   32  C   UNL     1       3.363  28.859  49.212  1.00  0.00     0.009 A 
HETATM   33  C   UNL     1       4.251  28.129  50.011  1.00  0.00     0.030 A 
BRANCH  31  34
HETATM   34  C   UNL     1       1.761  29.036  47.264  1.00  0.00     0.068 C 
BRANCH  34  35
HETATM   35  C   UNL     1       2.512  30.094  46.435  1.00  0.00     0.277 C 
BRANCH  35  36
HETATM   36  N   UNL     1       1.859  31.417  46.477  1.00  0.00     0.092 N 
HETATM   37  C   UNL     1       1.785  31.994  47.839  1.00  0.00     0.298 C 
HETATM   38  C   UNL     1       3.131  32.501  48.386  1.00  0.00     0.198 C 
HETATM   39  O   UNL     1       3.727  33.455  47.499  1.00  0.00    -0.388 OA
HETATM   40  C   UNL     1       3.900  32.893  46.191  1.00  0.00     0.198 C 
HETATM   41  C   UNL     1       2.565  32.393  45.614  1.00  0.00     0.298 C 
ENDBRANCH  35  36
ENDBRANCH  34  35
ENDBRANCH  31  34
ENDBRANCH  26  28
ENDBRANCH  22  24
ENDBRANCH  14  18
ENDBRANCH   1   9
TORSDOF 7
ENDMDL
