MODEL 1
REMARK VINA RESULT:      -7.7      0.000      0.000
REMARK  6 active torsions:
REMARK  status: ('A' for Active; 'I' for Inactive)
REMARK    1  A    between atoms: C_2  and  O_3 
REMARK    2  A    between atoms: O_3  and  C_4 
REMARK    3  A    between atoms: C_4  and  C_5 
REMARK    4  A    between atoms: C_10  and  C_11 
REMARK    5  A    between atoms: C_11  and  N_12 
REMARK    6  A    between atoms: C_11  and  C_16 
ROOT
HETATM    1  C   UNL     1       6.311  27.576  53.530  1.00  0.00     0.118 A 
HETATM    2  N   UNL     1       7.206  28.594  53.728  1.00  0.00    -0.350 N 
HETATM    3  H   UNL     1       7.334  29.381  53.103  1.00  0.00     0.166 HD
HETATM    4  C   UNL     1       7.842  28.447  54.933  1.00  0.00     0.043 A 
HETATM    5  C   UNL     1       7.407  27.245  55.497  1.00  0.00     0.002 A 
HETATM    6  C   UNL     1       6.464  26.654  54.577  1.00  0.00     0.022 A 
HETATM    7  C   UNL     1       8.770  29.297  55.547  1.00  0.00     0.030 A 
HETATM    8  C   UNL     1       9.279  28.919  56.789  1.00  0.00     0.002 A 
HETATM    9  C   UNL     1       8.875  27.734  57.387  1.00  0.00     0.001 A 
HETATM   10  C   UNL     1       7.949  26.893  56.756  1.00  0.00     0.014 A 
ENDROOT
BRANCH   6  11
HETATM   11  C   UNL     1       5.690  25.354  54.625  1.00  0.00     0.252 C 
BRANCH  11  12
HETATM   12  N   UNL     1       4.885  25.270  55.862  1.00  0.00    -0.067 N 
HETATM   13  H   UNL     1       4.188  24.523  55.798  1.00  0.00     0.275 HD
HETATM   14  H   UNL     1       5.482  25.136  56.681  1.00  0.00     0.275 HD
HETATM   15  H   UNL     1       4.379  26.166  55.964  1.00  0.00     0.275 HD
ENDBRANCH  11  12
BRANCH  11  16
HETATM   16  C   UNL     1       6.583  24.165  54.363  1.00  0.00    -0.024 A 
HETATM   17  C   UNL     1       7.061  23.423  55.464  1.00  0.00     0.009 A 
HETATM   18  C   UNL     1       7.927  22.343  55.281  1.00  0.00     0.001 A 
HETATM   19  C   UNL     1       8.331  21.986  53.999  1.00  0.00     0.000 A 
HETATM   20  C   UNL     1       7.870  22.704  52.898  1.00  0.00     0.001 A 
HETATM   21  C   UNL     1       7.003  23.787  53.075  1.00  0.00     0.009 A 
ENDBRANCH  11  16
ENDBRANCH   6  11
BRANCH   1  22
HETATM   22  C   UNL     1       5.379  27.513  52.430  1.00  0.00     0.310 C 
HETATM   23  O   UNL     1       4.259  28.010  52.487  1.00  0.00    -0.258 OA
BRANCH  22  24
HETATM   24  O   UNL     1       5.928  26.855  51.382  1.00  0.00    -0.317 OA
BRANCH  24  25
HETATM   25  C   UNL     1       5.068  25.939  50.686  1.00  0.00     0.175 C 
HETATM   26  C   UNL     1       4.667  26.535  49.348  1.00  0.00     0.034 C 
ENDBRANCH  24  25
ENDBRANCH  22  24
ENDBRANCH   1  22
TORSDOF 6
ENDMDL
MODEL 2
REMARK VINA RESULT:      -7.6      1.735      2.348
REMARK  6 active torsions:
REMARK  status: ('A' for Active; 'I' for Inactive)
REMARK    1  A    between atoms: C_2  and  O_3 
REMARK    2  A    between atoms: O_3  and  C_4 
REMARK    3  A    between atoms: C_4  and  C_5 
REMARK    4  A    between atoms: C_10  and  C_11 
REMARK    5  A    between atoms: C_11  and  N_12 
REMARK    6  A    between atoms: C_11  and  C_16 
ROOT
HETATM    1  C   UNL     1       5.617  25.922  53.307  1.00  0.00     0.118 A 
HETATM    2  N   UNL     1       4.835  26.802  54.007  1.00  0.00    -0.350 N 
HETATM    3  H   UNL     1       3.910  27.105  53.726  1.00  0.00     0.166 HD
HETATM    4  C   UNL     1       5.441  27.149  55.187  1.00  0.00     0.043 A 
HETATM    5  C   UNL     1       6.699  26.540  55.212  1.00  0.00     0.002 A 
HETATM    6  C   UNL     1       6.840  25.793  53.984  1.00  0.00     0.022 A 
HETATM    7  C   UNL     1       4.956  27.961  56.219  1.00  0.00     0.030 A 
HETATM    8  C   UNL     1       5.774  28.164  57.329  1.00  0.00     0.002 A 
HETATM    9  C   UNL     1       7.031  27.578  57.397  1.00  0.00     0.001 A 
HETATM   10  C   UNL     1       7.502  26.772  56.352  1.00  0.00     0.014 A 
ENDROOT
BRANCH   6  11
HETATM   11  C   UNL     1       7.980  24.963  53.436  1.00  0.00     0.252 C 
BRANCH  11  12
HETATM   12  N   UNL     1       8.149  25.198  51.987  1.00  0.00    -0.067 N 
HETATM   13  H   UNL     1       7.530  25.945  51.660  1.00  0.00     0.275 HD
HETATM   14  H   UNL     1       9.123  25.412  51.759  1.00  0.00     0.275 HD
HETATM   15  H   UNL     1       7.878  24.328  51.497  1.00  0.00     0.275 HD
ENDBRANCH  11  12
BRANCH  11  16
HETATM   16  C   UNL     1       7.854  23.513  53.835  1.00  0.00    -0.024 A 
HETATM   17  C   UNL     1       7.765  23.193  55.206  1.00  0.00     0.009 A 
HETATM   18  C   UNL     1       7.694  21.866  55.632  1.00  0.00     0.001 A 
HETATM   19  C   UNL     1       7.713  20.835  54.700  1.00  0.00     0.000 A 
HETATM   20  C   UNL     1       7.800  21.127  53.341  1.00  0.00     0.001 A 
HETATM   21  C   UNL     1       7.872  22.455  52.908  1.00  0.00     0.009 A 
ENDBRANCH  11  16
ENDBRANCH   6  11
BRANCH   1  22
HETATM   22  C   UNL     1       5.206  25.253  52.095  1.00  0.00     0.310 C 
HETATM   23  O   UNL     1       4.557  24.213  52.107  1.00  0.00    -0.258 OA
BRANCH  22  24
HETATM   24  O   UNL     1       5.631  25.939  51.009  1.00  0.00    -0.317 OA
BRANCH  24  25
HETATM   25  C   UNL     1       4.689  26.855  50.427  1.00  0.00     0.175 C 
HETATM   26  C   UNL     1       4.280  26.359  49.052  1.00  0.00     0.034 C 
ENDBRANCH  24  25
ENDBRANCH  22  24
ENDBRANCH   1  22
TORSDOF 6
ENDMDL
MODEL 3
REMARK VINA RESULT:      -7.5     11.977     15.310
REMARK  6 active torsions:
REMARK  status: ('A' for Active; 'I' for Inactive)
REMARK    1  A    between atoms: C_2  and  O_3 
REMARK    2  A    between atoms: O_3  and  C_4 
REMARK    3  A    between atoms: C_4  and  C_5 
REMARK    4  A    between atoms: C_10  and  C_11 
REMARK    5  A    between atoms: C_11  and  N_12 
REMARK    6  A    between atoms: C_11  and  C_16 
ROOT
HETATM    1  C   UNL     1       5.741  34.232  66.262  1.00  0.00     0.118 A 
HETATM    2  N   UNL     1       6.851  33.482  65.975  1.00  0.00    -0.350 N 
HETATM    3  H   UNL     1       7.439  33.032  66.666  1.00  0.00     0.166 HD
HETATM    4  C   UNL     1       7.006  33.353  64.620  1.00  0.00     0.043 A 
HETATM    5  C   UNL     1       6.011  34.118  64.005  1.00  0.00     0.002 A 
HETATM    6  C   UNL     1       5.228  34.728  65.053  1.00  0.00     0.022 A 
HETATM    7  C   UNL     1       7.962  32.616  63.910  1.00  0.00     0.030 A 
HETATM    8  C   UNL     1       7.908  32.647  62.517  1.00  0.00     0.002 A 
HETATM    9  C   UNL     1       6.937  33.393  61.864  1.00  0.00     0.001 A 
HETATM   10  C   UNL     1       5.991  34.129  62.591  1.00  0.00     0.014 A 
ENDROOT
BRANCH   6  11
HETATM   11  C   UNL     1       4.048  35.675  65.008  1.00  0.00     0.252 C 
BRANCH  11  12
HETATM   12  N   UNL     1       2.783  34.927  64.848  1.00  0.00    -0.067 N 
HETATM   13  H   UNL     1       2.958  33.973  64.520  1.00  0.00     0.275 HD
HETATM   14  H   UNL     1       2.249  34.916  65.720  1.00  0.00     0.275 HD
HETATM   15  H   UNL     1       2.225  35.411  64.124  1.00  0.00     0.275 HD
ENDBRANCH  11  12
BRANCH  11  16
HETATM   16  C   UNL     1       4.263  36.784  64.008  1.00  0.00    -0.024 A 
HETATM   17  C   UNL     1       3.389  36.880  62.904  1.00  0.00     0.009 A 
HETATM   18  C   UNL     1       3.571  37.858  61.925  1.00  0.00     0.001 A 
HETATM   19  C   UNL     1       4.628  38.756  62.028  1.00  0.00     0.000 A 
HETATM   20  C   UNL     1       5.503  38.680  63.110  1.00  0.00     0.001 A 
HETATM   21  C   UNL     1       5.325  37.703  64.093  1.00  0.00     0.009 A 
ENDBRANCH  11  16
ENDBRANCH   6  11
BRANCH   1  22
HETATM   22  C   UNL     1       5.216  34.435  67.591  1.00  0.00     0.310 C 
HETATM   23  O   UNL     1       4.246  33.818  68.016  1.00  0.00    -0.258 OA
BRANCH  22  24
HETATM   24  O   UNL     1       5.946  35.364  68.251  1.00  0.00    -0.317 OA
BRANCH  24  25
HETATM   25  C   UNL     1       6.481  34.967  69.524  1.00  0.00     0.175 C 
HETATM   26  C   UNL     1       7.997  34.928  69.448  1.00  0.00     0.034 C 
ENDBRANCH  24  25
ENDBRANCH  22  24
ENDBRANCH   1  22
TORSDOF 6
ENDMDL
MODEL 4
REMARK VINA RESULT:      -7.3      1.922      5.010
REMARK  6 active torsions:
REMARK  status: ('A' for Active; 'I' for Inactive)
REMARK    1  A    between atoms: C_2  and  O_3 
REMARK    2  A    between atoms: O_3  and  C_4 
REMARK    3  A    between atoms: C_4  and  C_5 
REMARK    4  A    between atoms: C_10  and  C_11 
REMARK    5  A    between atoms: C_11  and  N_12 
REMARK    6  A    between atoms: C_11  and  C_16 
ROOT
HETATM    1  C   UNL     1       6.406  25.745  54.079  1.00  0.00     0.118 A 
HETATM    2  N   UNL     1       6.796  24.901  53.073  1.00  0.00    -0.350 N 
HETATM    3  H   UNL     1       6.807  25.140  52.088  1.00  0.00     0.166 HD
HETATM    4  C   UNL     1       7.254  23.718  53.591  1.00  0.00     0.043 A 
HETATM    5  C   UNL     1       7.074  23.764  54.976  1.00  0.00     0.002 A 
HETATM    6  C   UNL     1       6.480  25.042  55.291  1.00  0.00     0.022 A 
HETATM    7  C   UNL     1       7.807  22.620  52.920  1.00  0.00     0.030 A 
HETATM    8  C   UNL     1       8.201  21.521  53.681  1.00  0.00     0.002 A 
HETATM    9  C   UNL     1       8.041  21.522  55.060  1.00  0.00     0.001 A 
HETATM   10  C   UNL     1       7.481  22.628  55.714  1.00  0.00     0.014 A 
ENDROOT
BRANCH   6  11
HETATM   11  C   UNL     1       6.032  25.648  56.603  1.00  0.00     0.252 C 
BRANCH  11  12
HETATM   12  N   UNL     1       4.565  25.829  56.621  1.00  0.00    -0.067 N 
HETATM   13  H   UNL     1       4.086  24.989  56.288  1.00  0.00     0.275 HD
HETATM   14  H   UNL     1       4.238  26.085  57.555  1.00  0.00     0.275 HD
HETATM   15  H   UNL     1       4.340  26.600  55.968  1.00  0.00     0.275 HD
ENDBRANCH  11  12
BRANCH  11  16
HETATM   16  C   UNL     1       6.831  26.882  56.947  1.00  0.00    -0.024 A 
HETATM   17  C   UNL     1       6.139  28.059  57.303  1.00  0.00     0.009 A 
HETATM   18  C   UNL     1       6.828  29.240  57.586  1.00  0.00     0.001 A 
HETATM   19  C   UNL     1       8.216  29.268  57.517  1.00  0.00     0.000 A 
HETATM   20  C   UNL     1       8.919  28.117  57.169  1.00  0.00     0.001 A 
HETATM   21  C   UNL     1       8.236  26.931  56.884  1.00  0.00     0.009 A 
ENDBRANCH  11  16
ENDBRANCH   6  11
BRANCH   1  22
HETATM   22  C   UNL     1       6.011  27.120  53.881  1.00  0.00     0.310 C 
HETATM   23  O   UNL     1       6.825  28.017  53.687  1.00  0.00    -0.258 OA
BRANCH  22  24
HETATM   24  O   UNL     1       4.664  27.238  53.935  1.00  0.00    -0.317 OA
BRANCH  24  25
HETATM   25  C   UNL     1       4.121  28.513  53.556  1.00  0.00     0.175 C 
HETATM   26  C   UNL     1       3.924  29.369  54.794  1.00  0.00     0.034 C 
ENDBRANCH  24  25
ENDBRANCH  22  24
ENDBRANCH   1  22
TORSDOF 6
ENDMDL
MODEL 5
REMARK VINA RESULT:      -7.3      2.595      5.629
REMARK  6 active torsions:
REMARK  status: ('A' for Active; 'I' for Inactive)
REMARK    1  A    between atoms: C_2  and  O_3 
REMARK    2  A    between atoms: O_3  and  C_4 
REMARK    3  A    between atoms: C_4  and  C_5 
REMARK    4  A    between atoms: C_10  and  C_11 
REMARK    5  A    between atoms: C_11  and  N_12 
REMARK    6  A    between atoms: C_11  and  C_16 
ROOT
HETATM    1  C   UNL     1       7.310  24.230  54.542  1.00  0.00     0.118 A 
HETATM    2  N   UNL     1       7.357  24.328  53.176  1.00  0.00    -0.350 N 
HETATM    3  H   UNL     1       7.918  23.738  52.573  1.00  0.00     0.166 HD
HETATM    4  C   UNL     1       6.473  25.276  52.733  1.00  0.00     0.043 A 
HETATM    5  C   UNL     1       5.895  25.875  53.856  1.00  0.00     0.002 A 
HETATM    6  C   UNL     1       6.467  25.245  55.022  1.00  0.00     0.022 A 
HETATM    7  C   UNL     1       6.159  25.638  51.417  1.00  0.00     0.030 A 
HETATM    8  C   UNL     1       5.214  26.646  51.225  1.00  0.00     0.002 A 
HETATM    9  C   UNL     1       4.614  27.268  52.311  1.00  0.00     0.001 A 
HETATM   10  C   UNL     1       4.945  26.896  53.622  1.00  0.00     0.014 A 
ENDROOT
BRANCH   6  11
HETATM   11  C   UNL     1       6.259  25.485  56.501  1.00  0.00     0.252 C 
BRANCH  11  12
HETATM   12  N   UNL     1       4.853  25.229  56.879  1.00  0.00    -0.067 N 
HETATM   13  H   UNL     1       4.214  25.837  56.359  1.00  0.00     0.275 HD
HETATM   14  H   UNL     1       4.608  24.246  56.741  1.00  0.00     0.275 HD
HETATM   15  H   UNL     1       4.755  25.456  57.884  1.00  0.00     0.275 HD
ENDBRANCH  11  12
BRANCH  11  16
HETATM   16  C   UNL     1       6.798  26.829  56.928  1.00  0.00    -0.024 A 
HETATM   17  C   UNL     1       5.888  27.880  57.164  1.00  0.00     0.009 A 
HETATM   18  C   UNL     1       6.336  29.154  57.516  1.00  0.00     0.001 A 
HETATM   19  C   UNL     1       7.699  29.403  57.636  1.00  0.00     0.000 A 
HETATM   20  C   UNL     1       8.616  28.379  57.407  1.00  0.00     0.001 A 
HETATM   21  C   UNL     1       8.173  27.101  57.055  1.00  0.00     0.009 A 
ENDBRANCH  11  16
ENDBRANCH   6  11
BRANCH   1  22
HETATM   22  C   UNL     1       8.010  23.228  55.311  1.00  0.00     0.310 C 
HETATM   23  O   UNL     1       9.031  23.479  55.943  1.00  0.00    -0.258 OA
BRANCH  22  24
HETATM   24  O   UNL     1       7.375  22.037  55.225  1.00  0.00    -0.317 OA
BRANCH  24  25
HETATM   25  C   UNL     1       8.160  20.930  54.754  1.00  0.00     0.175 C 
HETATM   26  C   UNL     1       7.879  20.698  53.280  1.00  0.00     0.034 C 
ENDBRANCH  24  25
ENDBRANCH  22  24
ENDBRANCH   1  22
TORSDOF 6
ENDMDL
MODEL 6
REMARK VINA RESULT:      -7.1      1.672      4.447
REMARK  6 active torsions:
REMARK  status: ('A' for Active; 'I' for Inactive)
REMARK    1  A    between atoms: C_2  and  O_3 
REMARK    2  A    between atoms: O_3  and  C_4 
REMARK    3  A    between atoms: C_4  and  C_5 
REMARK    4  A    between atoms: C_10  and  C_11 
REMARK    5  A    between atoms: C_11  and  N_12 
REMARK    6  A    between atoms: C_11  and  C_16 
ROOT
HETATM    1  C   UNL     1       6.032  27.719  54.187  1.00  0.00     0.118 A 
HETATM    2  N   UNL     1       6.049  28.736  53.269  1.00  0.00    -0.350 N 
HETATM    3  H   UNL     1       6.338  29.687  53.465  1.00  0.00     0.166 HD
HETATM    4  C   UNL     1       5.704  28.268  52.028  1.00  0.00     0.043 A 
HETATM    5  C   UNL     1       5.367  26.918  52.163  1.00  0.00     0.002 A 
HETATM    6  C   UNL     1       5.524  26.573  53.557  1.00  0.00     0.022 A 
HETATM    7  C   UNL     1       5.666  28.955  50.809  1.00  0.00     0.030 A 
HETATM    8  C   UNL     1       5.276  28.246  49.673  1.00  0.00     0.002 A 
HETATM    9  C   UNL     1       4.933  26.904  49.760  1.00  0.00     0.001 A 
HETATM   10  C   UNL     1       4.972  26.234  50.990  1.00  0.00     0.014 A 
ENDROOT
BRANCH   6  11
HETATM   11  C   UNL     1       5.283  25.281  54.307  1.00  0.00     0.252 C 
BRANCH  11  12
HETATM   12  N   UNL     1       4.893  25.554  55.707  1.00  0.00    -0.067 N 
HETATM   13  H   UNL     1       5.657  25.335  56.352  1.00  0.00     0.275 HD
HETATM   14  H   UNL     1       4.592  26.524  55.822  1.00  0.00     0.275 HD
HETATM   15  H   UNL     1       4.099  24.932  55.935  1.00  0.00     0.275 HD
ENDBRANCH  11  12
BRANCH  11  16
HETATM   16  C   UNL     1       6.434  24.318  54.143  1.00  0.00    -0.024 A 
HETATM   17  C   UNL     1       7.067  23.816  55.300  1.00  0.00     0.009 A 
HETATM   18  C   UNL     1       8.165  22.960  55.204  1.00  0.00     0.001 A 
HETATM   19  C   UNL     1       8.652  22.591  53.955  1.00  0.00     0.000 A 
HETATM   20  C   UNL     1       8.042  23.075  52.799  1.00  0.00     0.001 A 
HETATM   21  C   UNL     1       6.942  23.933  52.889  1.00  0.00     0.009 A 
ENDBRANCH  11  16
ENDBRANCH   6  11
BRANCH   1  22
HETATM   22  C   UNL     1       6.484  27.847  55.553  1.00  0.00     0.310 C 
HETATM   23  O   UNL     1       5.819  28.410  56.415  1.00  0.00    -0.258 OA
BRANCH  22  24
HETATM   24  O   UNL     1       7.695  27.264  55.705  1.00  0.00    -0.317 OA
BRANCH  24  25
HETATM   25  C   UNL     1       8.250  27.288  57.031  1.00  0.00     0.175 C 
HETATM   26  C   UNL     1       7.860  26.020  57.768  1.00  0.00     0.034 C 
ENDBRANCH  24  25
ENDBRANCH  22  24
ENDBRANCH   1  22
TORSDOF 6
ENDMDL
MODEL 7
REMARK VINA RESULT:      -7.0      1.404      4.524
REMARK  6 active torsions:
REMARK  status: ('A' for Active; 'I' for Inactive)
REMARK    1  A    between atoms: C_2  and  O_3 
REMARK    2  A    between atoms: O_3  and  C_4 
REMARK    3  A    between atoms: C_4  and  C_5 
REMARK    4  A    between atoms: C_10  and  C_11 
REMARK    5  A    between atoms: C_11  and  N_12 
REMARK    6  A    between atoms: C_11  and  C_16 
ROOT
HETATM    1  C   UNL     1       6.253  26.236  52.933  1.00  0.00     0.118 A 
HETATM    2  N   UNL     1       6.788  25.202  52.211  1.00  0.00    -0.350 N 
HETATM    3  H   UNL     1       6.943  25.214  51.210  1.00  0.00     0.166 HD
HETATM    4  C   UNL     1       7.164  24.180  53.043  1.00  0.00     0.043 A 
HETATM    5  C   UNL     1       6.782  24.529  54.342  1.00  0.00     0.002 A 
HETATM    6  C   UNL     1       6.148  25.824  54.270  1.00  0.00     0.022 A 
HETATM    7  C   UNL     1       7.810  22.979  52.725  1.00  0.00     0.030 A 
HETATM    8  C   UNL     1       8.087  22.092  53.764  1.00  0.00     0.002 A 
HETATM    9  C   UNL     1       7.726  22.397  55.068  1.00  0.00     0.001 A 
HETATM   10  C   UNL     1       7.076  23.601  55.368  1.00  0.00     0.014 A 
ENDROOT
BRANCH   6  11
HETATM   11  C   UNL     1       5.512  26.694  55.333  1.00  0.00     0.252 C 
BRANCH  11  12
HETATM   12  N   UNL     1       4.313  27.376  54.802  1.00  0.00    -0.067 N 
HETATM   13  H   UNL     1       4.142  28.257  55.293  1.00  0.00     0.275 HD
HETATM   14  H   UNL     1       4.396  27.535  53.795  1.00  0.00     0.275 HD
HETATM   15  H   UNL     1       3.502  26.757  54.973  1.00  0.00     0.275 HD
ENDBRANCH  11  12
BRANCH  11  16
HETATM   16  C   UNL     1       6.523  27.602  55.989  1.00  0.00    -0.024 A 
HETATM   17  C   UNL     1       7.679  27.028  56.560  1.00  0.00     0.009 A 
HETATM   18  C   UNL     1       8.623  27.816  57.219  1.00  0.00     0.001 A 
HETATM   19  C   UNL     1       8.431  29.190  57.322  1.00  0.00     0.000 A 
HETATM   20  C   UNL     1       7.297  29.778  56.765  1.00  0.00     0.001 A 
HETATM   21  C   UNL     1       6.348  28.993  56.104  1.00  0.00     0.009 A 
ENDBRANCH  11  16
ENDBRANCH   6  11
BRANCH   1  22
HETATM   22  C   UNL     1       5.892  27.518  52.375  1.00  0.00     0.310 C 
HETATM   23  O   UNL     1       6.553  28.531  52.572  1.00  0.00    -0.258 OA
BRANCH  22  24
HETATM   24  O   UNL     1       4.765  27.409  51.633  1.00  0.00    -0.317 OA
BRANCH  24  25
HETATM   25  C   UNL     1       4.908  27.641  50.222  1.00  0.00     0.175 C 
HETATM   26  C   UNL     1       4.556  26.376  49.461  1.00  0.00     0.034 C 
ENDBRANCH  24  25
ENDBRANCH  22  24
ENDBRANCH   1  22
TORSDOF 6
ENDMDL
MODEL 8
REMARK VINA RESULT:      -6.8      2.417      5.001
REMARK  6 active torsions:
REMARK  status: ('A' for Active; 'I' for Inactive)
REMARK    1  A    between atoms: C_2  and  O_3 
REMARK    2  A    between atoms: O_3  and  C_4 
REMARK    3  A    between atoms: C_4  and  C_5 
REMARK    4  A    between atoms: C_10  and  C_11 
REMARK    5  A    between atoms: C_11  and  N_12 
REMARK    6  A    between atoms: C_11  and  C_16 
ROOT
HETATM    1  C   UNL     1       4.980  27.783  55.304  1.00  0.00     0.118 A 
HETATM    2  N   UNL     1       3.789  28.182  54.758  1.00  0.00    -0.350 N 
HETATM    3  H   UNL     1       2.914  28.252  55.264  1.00  0.00     0.166 HD
HETATM    4  C   UNL     1       3.962  28.558  53.451  1.00  0.00     0.043 A 
HETATM    5  C   UNL     1       5.296  28.312  53.113  1.00  0.00     0.002 A 
HETATM    6  C   UNL     1       5.942  27.765  54.283  1.00  0.00     0.022 A 
HETATM    7  C   UNL     1       3.025  29.090  52.558  1.00  0.00     0.030 A 
HETATM    8  C   UNL     1       3.454  29.394  51.266  1.00  0.00     0.002 A 
HETATM    9  C   UNL     1       4.770  29.167  50.887  1.00  0.00     0.001 A 
HETATM   10  C   UNL     1       5.693  28.628  51.793  1.00  0.00     0.014 A 
ENDROOT
BRANCH   6  11
HETATM   11  C   UNL     1       7.357  27.282  54.519  1.00  0.00     0.252 C 
BRANCH  11  12
HETATM   12  N   UNL     1       8.337  28.277  54.035  1.00  0.00    -0.067 N 
HETATM   13  H   UNL     1       9.016  27.848  53.401  1.00  0.00     0.275 HD
HETATM   14  H   UNL     1       7.868  29.064  53.581  1.00  0.00     0.275 HD
HETATM   15  H   UNL     1       8.854  28.630  54.859  1.00  0.00     0.275 HD
ENDBRANCH  11  12
BRANCH  11  16
HETATM   16  C   UNL     1       7.562  25.881  53.995  1.00  0.00    -0.024 A 
HETATM   17  C   UNL     1       7.790  25.700  52.615  1.00  0.00     0.009 A 
HETATM   18  C   UNL     1       7.938  24.423  52.072  1.00  0.00     0.001 A 
HETATM   19  C   UNL     1       7.861  23.305  52.894  1.00  0.00     0.000 A 
HETATM   20  C   UNL     1       7.638  23.460  54.261  1.00  0.00     0.001 A 
HETATM   21  C   UNL     1       7.488  24.736  54.811  1.00  0.00     0.009 A 
ENDBRANCH  11  16
ENDBRANCH   6  11
BRANCH   1  22
HETATM   22  C   UNL     1       5.169  27.464  56.700  1.00  0.00     0.310 C 
HETATM   23  O   UNL     1       5.276  26.310  57.102  1.00  0.00    -0.258 OA
BRANCH  22  24
HETATM   24  O   UNL     1       5.214  28.594  57.441  1.00  0.00    -0.317 OA
BRANCH  24  25
HETATM   25  C   UNL     1       6.394  29.403  57.298  1.00  0.00     0.175 C 
HETATM   26  C   UNL     1       7.569  28.709  57.962  1.00  0.00     0.034 C 
ENDBRANCH  24  25
ENDBRANCH  22  24
ENDBRANCH   1  22
TORSDOF 6
ENDMDL
MODEL 9
REMARK VINA RESULT:      -6.7      9.155     11.292
REMARK  6 active torsions:
REMARK  status: ('A' for Active; 'I' for Inactive)
REMARK    1  A    between atoms: C_2  and  O_3 
REMARK    2  A    between atoms: O_3  and  C_4 
REMARK    3  A    between atoms: C_4  and  C_5 
REMARK    4  A    between atoms: C_10  and  C_11 
REMARK    5  A    between atoms: C_11  and  N_12 
REMARK    6  A    between atoms: C_11  and  C_16 
ROOT
HETATM    1  C   UNL     1       3.839  34.324  61.852  1.00  0.00     0.118 A 
HETATM    2  N   UNL     1       3.648  35.448  62.611  1.00  0.00    -0.350 N 
HETATM    3  H   UNL     1       3.205  36.299  62.285  1.00  0.00     0.166 HD
HETATM    4  C   UNL     1       4.061  35.232  63.900  1.00  0.00     0.043 A 
HETATM    5  C   UNL     1       4.619  33.951  63.957  1.00  0.00     0.002 A 
HETATM    6  C   UNL     1       4.528  33.383  62.632  1.00  0.00     0.022 A 
HETATM    7  C   UNL     1       3.978  36.087  65.005  1.00  0.00     0.030 A 
HETATM    8  C   UNL     1       4.476  35.629  66.224  1.00  0.00     0.002 A 
HETATM    9  C   UNL     1       5.038  34.364  66.327  1.00  0.00     0.001 A 
HETATM   10  C   UNL     1       5.117  33.523  65.209  1.00  0.00     0.014 A 
ENDROOT
BRANCH   6  11
HETATM   11  C   UNL     1       4.985  32.053  62.074  1.00  0.00     0.252 C 
BRANCH  11  12
HETATM   12  N   UNL     1       4.570  30.944  62.958  1.00  0.00    -0.067 N 
HETATM   13  H   UNL     1       5.057  30.077  62.716  1.00  0.00     0.275 HD
HETATM   14  H   UNL     1       4.723  31.181  63.941  1.00  0.00     0.275 HD
HETATM   15  H   UNL     1       3.558  30.789  62.809  1.00  0.00     0.275 HD
ENDBRANCH  11  12
BRANCH  11  16
HETATM   16  C   UNL     1       6.452  32.072  61.721  1.00  0.00    -0.024 A 
HETATM   17  C   UNL     1       7.396  31.813  62.737  1.00  0.00     0.009 A 
HETATM   18  C   UNL     1       8.766  31.864  62.476  1.00  0.00     0.001 A 
HETATM   19  C   UNL     1       9.219  32.175  61.198  1.00  0.00     0.000 A 
HETATM   20  C   UNL     1       8.304  32.434  60.180  1.00  0.00     0.001 A 
HETATM   21  C   UNL     1       6.931  32.385  60.435  1.00  0.00     0.009 A 
ENDBRANCH  11  16
ENDBRANCH   6  11
BRANCH   1  22
HETATM   22  C   UNL     1       3.378  34.173  60.492  1.00  0.00     0.310 C 
HETATM   23  O   UNL     1       2.311  33.637  60.215  1.00  0.00    -0.258 OA
BRANCH  22  24
HETATM   24  O   UNL     1       4.274  34.702  59.627  1.00  0.00    -0.317 OA
BRANCH  24  25
HETATM   25  C   UNL     1       3.964  34.571  58.230  1.00  0.00     0.175 C 
HETATM   26  C   UNL     1       4.792  33.451  57.628  1.00  0.00     0.034 C 
ENDBRANCH  24  25
ENDBRANCH  22  24
ENDBRANCH   1  22
TORSDOF 6
ENDMDL
MODEL 10
REMARK VINA RESULT:      -6.6     10.096     12.206
REMARK  6 active torsions:
REMARK  status: ('A' for Active; 'I' for Inactive)
REMARK    1  A    between atoms: C_2  and  O_3 
REMARK    2  A    between atoms: O_3  and  C_4 
REMARK    3  A    between atoms: C_4  and  C_5 
REMARK    4  A    between atoms: C_10  and  C_11 
REMARK    5  A    between atoms: C_11  and  N_12 
REMARK    6  A    between atoms: C_11  and  C_16 
ROOT
HETATM    1  C   UNL     1       5.012  34.173  63.371  1.00  0.00     0.118 A 
HETATM    2  N   UNL     1       4.513  35.442  63.239  1.00  0.00    -0.350 N 
HETATM    3  H   UNL     1       4.408  36.105  63.998  1.00  0.00     0.166 HD
HETATM    4  C   UNL     1       4.256  35.721  61.922  1.00  0.00     0.043 A 
HETATM    5  C   UNL     1       4.516  34.563  61.184  1.00  0.00     0.002 A 
HETATM    6  C   UNL     1       4.951  33.549  62.116  1.00  0.00     0.022 A 
HETATM    7  C   UNL     1       3.808  36.917  61.348  1.00  0.00     0.030 A 
HETATM    8  C   UNL     1       3.620  36.948  59.967  1.00  0.00     0.002 A 
HETATM    9  C   UNL     1       3.867  35.821  59.195  1.00  0.00     0.001 A 
HETATM   10  C   UNL     1       4.310  34.631  59.787  1.00  0.00     0.014 A 
ENDROOT
BRANCH   6  11
HETATM   11  C   UNL     1       5.342  32.100  61.918  1.00  0.00     0.252 C 
BRANCH  11  12
HETATM   12  N   UNL     1       4.863  31.271  63.044  1.00  0.00    -0.067 N 
HETATM   13  H   UNL     1       4.394  31.844  63.750  1.00  0.00     0.275 HD
HETATM   14  H   UNL     1       4.245  30.526  62.715  1.00  0.00     0.275 HD
HETATM   15  H   UNL     1       5.693  30.841  63.488  1.00  0.00     0.275 HD
ENDBRANCH  11  12
BRANCH  11  16
HETATM   16  C   UNL     1       6.811  31.958  61.601  1.00  0.00    -0.024 A 
HETATM   17  C   UNL     1       7.623  31.208  62.477  1.00  0.00     0.009 A 
HETATM   18  C   UNL     1       8.995  31.084  62.257  1.00  0.00     0.001 A 
HETATM   19  C   UNL     1       9.582  31.706  61.160  1.00  0.00     0.000 A 
HETATM   20  C   UNL     1       8.799  32.450  60.280  1.00  0.00     0.001 A 
HETATM   21  C   UNL     1       7.423  32.578  60.496  1.00  0.00     0.009 A 
ENDBRANCH  11  16
ENDBRANCH   6  11
BRANCH   1  22
HETATM   22  C   UNL     1       5.518  33.622  64.606  1.00  0.00     0.310 C 
HETATM   23  O   UNL     1       6.716  33.469  64.815  1.00  0.00    -0.258 OA
BRANCH  22  24
HETATM   24  O   UNL     1       4.499  33.329  65.446  1.00  0.00    -0.317 OA
BRANCH  24  25
HETATM   25  C   UNL     1       4.455  34.069  66.677  1.00  0.00     0.175 C 
HETATM   26  C   UNL     1       3.384  35.141  66.589  1.00  0.00     0.034 C 
ENDBRANCH  24  25
ENDBRANCH  22  24
ENDBRANCH   1  22
TORSDOF 6
ENDMDL
