MODEL 1
REMARK VINA RESULT:     -10.8      0.000      0.000
REMARK  6 active torsions:
REMARK  status: ('A' for Active; 'I' for Inactive)
REMARK    1  A    between atoms: O_2  and  C_3 
REMARK    2  A    between atoms: C_6  and  C_7 
REMARK    3  A    between atoms: C_11  and  C_12 
REMARK       I    between atoms: C_12  and  N_13 
REMARK    4  A    between atoms: N_13  and  N_14 
REMARK       I    between atoms: N_14  and  C_15 
REMARK    5  A    between atoms: C_15  and  C_16 
REMARK    6  A    between atoms: C_17  and  C_18 
ROOT
HETATM    1  C   UNL     1       9.270  29.346  57.833  1.00  0.00     0.288 C 
HETATM    2  N   UNL     1       8.260  28.414  57.709  1.00  0.00    -0.262 N 
HETATM    3  O   UNL     1      10.324  29.246  57.207  1.00  0.00    -0.264 OA
HETATM    4  H   UNL     1       7.466  28.374  58.345  1.00  0.00     0.190 HD
ENDROOT
BRANCH   1   5
HETATM    5  C   UNL     1       9.011  30.425  58.745  1.00  0.00     0.121 A 
HETATM    6  N   UNL     1       9.598  31.648  58.591  1.00  0.00    -0.272 N 
HETATM    7  N   UNL     1       9.265  32.543  59.531  1.00  0.00    -0.174 NA
HETATM    8  H   UNL     1      10.244  31.926  57.857  1.00  0.00     0.189 HD
HETATM    9  C   UNL     1       8.404  31.892  60.332  1.00  0.00     0.089 A 
HETATM   10  C   UNL     1       8.224  30.556  59.871  1.00  0.00     0.071 A 
BRANCH   9  11
HETATM   11  C   UNL     1       7.795  32.546  61.497  1.00  0.00    -0.005 A 
HETATM   12  C   UNL     1       6.703  33.411  61.358  1.00  0.00     0.016 A 
HETATM   13  C   UNL     1       6.130  34.019  62.482  1.00  0.00     0.037 A 
HETATM   14  C   UNL     1       6.631  33.774  63.762  1.00  0.00     0.068 A 
HETATM   15  C   UNL     1       7.722  32.921  63.910  1.00  0.00     0.037 A 
HETATM   16  C   UNL     1       8.297  32.314  62.786  1.00  0.00     0.016 A 
BRANCH  14  17
HETATM   17  O   UNL     1       5.975  34.426  64.768  1.00  0.00    -0.356 OA
HETATM   18  C   UNL     1       4.997  33.681  65.484  1.00  0.00     0.210 C 
ENDBRANCH  14  17
ENDBRANCH   9  11
ENDBRANCH   1   5
BRANCH   2  19
HETATM   19  N   UNL     1       8.516  27.246  56.976  1.00  0.00    -0.267 N 
HETATM   20  C   UNL     1       8.178  26.039  57.545  1.00  0.00     0.240 C 
HETATM   21  O   UNL     1       7.552  25.941  58.597  1.00  0.00    -0.271 OA
HETATM   22  H   UNL     1       9.160  27.331  56.192  1.00  0.00     0.190 HD
BRANCH  20  23
HETATM   23  C   UNL     1       8.660  24.846  56.801  1.00  0.00     0.089 A 
HETATM   24  C   UNL     1       7.695  23.707  56.503  1.00  0.00     0.034 A 
HETATM   25  C   UNL     1       8.809  23.526  57.509  1.00  0.00     0.025 A 
BRANCH  24  26
HETATM   26  C   UNL     1       7.746  23.008  55.157  1.00  0.00    -0.031 A 
HETATM   27  C   UNL     1       7.830  21.607  55.021  1.00  0.00     0.040 A 
HETATM   28 CL   UNL     1       7.871  20.580  56.414  1.00  0.00    -0.084 Cl
HETATM   29  C   UNL     1       7.890  20.994  53.765  1.00  0.00     0.024 A 
HETATM   30  C   UNL     1       7.878  21.768  52.608  1.00  0.00     0.002 A 
HETATM   31  C   UNL     1       7.813  23.154  52.709  1.00  0.00     0.001 A 
HETATM   32  C   UNL     1       7.754  23.761  53.966  1.00  0.00     0.009 A 
ENDBRANCH  24  26
ENDBRANCH  20  23
ENDBRANCH   2  19
TORSDOF 6
ENDMDL
MODEL 2
REMARK VINA RESULT:     -10.5      2.122      2.781
REMARK  6 active torsions:
REMARK  status: ('A' for Active; 'I' for Inactive)
REMARK    1  A    between atoms: O_2  and  C_3 
REMARK    2  A    between atoms: C_6  and  C_7 
REMARK    3  A    between atoms: C_11  and  C_12 
REMARK       I    between atoms: C_12  and  N_13 
REMARK    4  A    between atoms: N_13  and  N_14 
REMARK       I    between atoms: N_14  and  C_15 
REMARK    5  A    between atoms: C_15  and  C_16 
REMARK    6  A    between atoms: C_17  and  C_18 
ROOT
HETATM    1  C   UNL     1       8.047  30.449  58.743  1.00  0.00     0.288 C 
HETATM    2  N   UNL     1       6.861  30.140  58.109  1.00  0.00    -0.262 N 
HETATM    3  O   UNL     1       9.131  30.358  58.170  1.00  0.00    -0.264 OA
HETATM    4  H   UNL     1       5.982  30.030  58.609  1.00  0.00     0.190 HD
ENDROOT
BRANCH   1   5
HETATM    5  C   UNL     1       7.928  30.868  60.112  1.00  0.00     0.121 A 
HETATM    6  N   UNL     1       8.737  30.359  61.088  1.00  0.00    -0.272 N 
HETATM    7  N   UNL     1       8.492  30.841  62.314  1.00  0.00    -0.174 NA
HETATM    8  H   UNL     1       9.476  29.672  60.971  1.00  0.00     0.189 HD
HETATM    9  C   UNL     1       7.493  31.723  62.142  1.00  0.00     0.089 A 
HETATM   10  C   UNL     1       7.109  31.763  60.770  1.00  0.00     0.071 A 
BRANCH   9  11
HETATM   11  C   UNL     1       6.935  32.482  63.268  1.00  0.00    -0.005 A 
HETATM   12  C   UNL     1       7.765  33.092  64.217  1.00  0.00     0.016 A 
HETATM   13  C   UNL     1       7.215  33.819  65.280  1.00  0.00     0.037 A 
HETATM   14  C   UNL     1       5.832  33.955  65.415  1.00  0.00     0.068 A 
HETATM   15  C   UNL     1       4.998  33.345  64.481  1.00  0.00     0.037 A 
HETATM   16  C   UNL     1       5.547  32.615  63.419  1.00  0.00     0.016 A 
BRANCH  14  17
HETATM   17  O   UNL     1       5.431  34.694  66.492  1.00  0.00    -0.356 OA
HETATM   18  C   UNL     1       4.561  34.057  67.419  1.00  0.00     0.210 C 
ENDBRANCH  14  17
ENDBRANCH   9  11
ENDBRANCH   1   5
BRANCH   2  19
HETATM   19  N   UNL     1       6.918  29.556  56.835  1.00  0.00    -0.267 N 
HETATM   20  C   UNL     1       6.165  28.426  56.609  1.00  0.00     0.240 C 
HETATM   21  O   UNL     1       5.356  27.982  57.417  1.00  0.00    -0.271 OA
HETATM   22  H   UNL     1       7.692  29.839  56.238  1.00  0.00     0.190 HD
BRANCH  20  23
HETATM   23  C   UNL     1       6.431  27.755  55.309  1.00  0.00     0.089 A 
HETATM   24  C   UNL     1       7.677  26.896  55.149  1.00  0.00     0.034 A 
HETATM   25  C   UNL     1       7.564  28.225  54.436  1.00  0.00     0.025 A 
BRANCH  24  26
HETATM   26  C   UNL     1       7.602  25.593  54.376  1.00  0.00    -0.031 A 
HETATM   27  C   UNL     1       7.369  24.346  54.991  1.00  0.00     0.040 A 
HETATM   28 CL   UNL     1       7.143  24.228  56.703  1.00  0.00    -0.084 Cl
HETATM   29  C   UNL     1       7.320  23.160  54.250  1.00  0.00     0.024 A 
HETATM   30  C   UNL     1       7.512  23.189  52.871  1.00  0.00     0.002 A 
HETATM   31  C   UNL     1       7.760  24.401  52.237  1.00  0.00     0.001 A 
HETATM   32  C   UNL     1       7.809  25.583  52.981  1.00  0.00     0.009 A 
ENDBRANCH  24  26
ENDBRANCH  20  23
ENDBRANCH   2  19
TORSDOF 6
ENDMDL
MODEL 3
REMARK VINA RESULT:     -10.4      1.333      1.899
REMARK  6 active torsions:
REMARK  status: ('A' for Active; 'I' for Inactive)
REMARK    1  A    between atoms: O_2  and  C_3 
REMARK    2  A    between atoms: C_6  and  C_7 
REMARK    3  A    between atoms: C_11  and  C_12 
REMARK       I    between atoms: C_12  and  N_13 
REMARK    4  A    between atoms: N_13  and  N_14 
REMARK       I    between atoms: N_14  and  C_15 
REMARK    5  A    between atoms: C_15  and  C_16 
REMARK    6  A    between atoms: C_17  and  C_18 
ROOT
HETATM    1  C   UNL     1       8.462  29.383  56.701  1.00  0.00     0.288 C 
HETATM    2  N   UNL     1       7.296  28.654  56.591  1.00  0.00    -0.262 N 
HETATM    3  O   UNL     1       9.370  29.281  55.876  1.00  0.00    -0.264 OA
HETATM    4  H   UNL     1       6.619  28.583  57.347  1.00  0.00     0.190 HD
ENDROOT
BRANCH   1   5
HETATM    5  C   UNL     1       8.548  30.251  57.842  1.00  0.00     0.121 A 
HETATM    6  N   UNL     1       9.617  31.080  58.032  1.00  0.00    -0.272 N 
HETATM    7  N   UNL     1       9.553  31.815  59.150  1.00  0.00    -0.174 NA
HETATM    8  H   UNL     1      10.426  31.179  57.426  1.00  0.00     0.189 HD
HETATM    9  C   UNL     1       8.382  31.477  59.716  1.00  0.00     0.089 A 
HETATM   10  C   UNL     1       7.724  30.492  58.923  1.00  0.00     0.071 A 
BRANCH   9  11
HETATM   11  C   UNL     1       7.934  32.082  60.976  1.00  0.00    -0.005 A 
HETATM   12  C   UNL     1       8.619  31.857  62.176  1.00  0.00     0.016 A 
HETATM   13  C   UNL     1       8.182  32.451  63.367  1.00  0.00     0.037 A 
HETATM   14  C   UNL     1       7.058  33.280  63.383  1.00  0.00     0.068 A 
HETATM   15  C   UNL     1       6.364  33.503  62.196  1.00  0.00     0.037 A 
HETATM   16  C   UNL     1       6.800  32.908  61.005  1.00  0.00     0.016 A 
BRANCH  14  17
HETATM   17  O   UNL     1       6.745  33.797  64.609  1.00  0.00    -0.356 OA
HETATM   18  C   UNL     1       5.409  33.615  65.059  1.00  0.00     0.210 C 
ENDBRANCH  14  17
ENDBRANCH   9  11
ENDBRANCH   1   5
BRANCH   2  19
HETATM   19  N   UNL     1       7.220  27.660  55.605  1.00  0.00    -0.267 N 
HETATM   20  C   UNL     1       6.544  26.501  55.908  1.00  0.00     0.240 C 
HETATM   21  O   UNL     1       5.899  26.345  56.941  1.00  0.00    -0.271 OA
HETATM   22  H   UNL     1       7.874  27.737  54.829  1.00  0.00     0.190 HD
BRANCH  20  23
HETATM   23  C   UNL     1       6.678  25.421  54.893  1.00  0.00     0.089 A 
HETATM   24  C   UNL     1       8.000  24.681  54.757  1.00  0.00     0.034 A 
HETATM   25  C   UNL     1       7.539  25.634  53.677  1.00  0.00     0.025 A 
BRANCH  24  26
HETATM   26  C   UNL     1       8.005  23.183  54.516  1.00  0.00    -0.031 A 
HETATM   27  C   UNL     1       8.149  22.238  55.553  1.00  0.00     0.040 A 
HETATM   28 CL   UNL     1       8.326  22.745  57.199  1.00  0.00    -0.084 Cl
HETATM   29  C   UNL     1       8.164  20.862  55.296  1.00  0.00     0.024 A 
HETATM   30  C   UNL     1       8.044  20.394  53.990  1.00  0.00     0.002 A 
HETATM   31  C   UNL     1       7.916  21.301  52.944  1.00  0.00     0.001 A 
HETATM   32  C   UNL     1       7.903  22.674  53.206  1.00  0.00     0.009 A 
ENDBRANCH  24  26
ENDBRANCH  20  23
ENDBRANCH   2  19
TORSDOF 6
ENDMDL
MODEL 4
REMARK VINA RESULT:     -10.4      3.376     11.364
REMARK  6 active torsions:
REMARK  status: ('A' for Active; 'I' for Inactive)
REMARK    1  A    between atoms: O_2  and  C_3 
REMARK    2  A    between atoms: C_6  and  C_7 
REMARK    3  A    between atoms: C_11  and  C_12 
REMARK       I    between atoms: C_12  and  N_13 
REMARK    4  A    between atoms: N_13  and  N_14 
REMARK       I    between atoms: N_14  and  C_15 
REMARK    5  A    between atoms: C_15  and  C_16 
REMARK    6  A    between atoms: C_17  and  C_18 
ROOT
HETATM    1  C   UNL     1       6.671  28.963  57.508  1.00  0.00     0.288 C 
HETATM    2  N   UNL     1       7.779  28.972  58.331  1.00  0.00    -0.262 N 
HETATM    3  O   UNL     1       5.723  29.724  57.689  1.00  0.00    -0.264 OA
HETATM    4  H   UNL     1       8.483  28.238  58.315  1.00  0.00     0.190 HD
ENDROOT
BRANCH   1   5
HETATM    5  C   UNL     1       6.698  28.000  56.442  1.00  0.00     0.121 A 
HETATM    6  N   UNL     1       6.135  28.264  55.225  1.00  0.00    -0.272 N 
HETATM    7  N   UNL     1       6.232  27.260  54.343  1.00  0.00    -0.174 NA
HETATM    8  H   UNL     1       5.665  29.120  54.944  1.00  0.00     0.189 HD
HETATM    9  C   UNL     1       6.905  26.297  54.994  1.00  0.00     0.089 A 
HETATM   10  C   UNL     1       7.211  26.724  56.318  1.00  0.00     0.071 A 
BRANCH   9  11
HETATM   11  C   UNL     1       7.226  25.016  54.352  1.00  0.00    -0.005 A 
HETATM   12  C   UNL     1       7.146  23.808  55.057  1.00  0.00     0.016 A 
HETATM   13  C   UNL     1       7.447  22.595  54.425  1.00  0.00     0.037 A 
HETATM   14  C   UNL     1       7.829  22.563  53.082  1.00  0.00     0.068 A 
HETATM   15  C   UNL     1       7.920  23.759  52.375  1.00  0.00     0.037 A 
HETATM   16  C   UNL     1       7.620  24.973  53.007  1.00  0.00     0.016 A 
BRANCH  14  17
HETATM   17  O   UNL     1       8.088  21.314  52.590  1.00  0.00    -0.356 OA
HETATM   18  C   UNL     1       8.640  20.369  53.499  1.00  0.00     0.210 C 
ENDBRANCH  14  17
ENDBRANCH   9  11
ENDBRANCH   1   5
BRANCH   2  19
HETATM   19  N   UNL     1       7.740  29.758  59.491  1.00  0.00    -0.267 N 
HETATM   20  C   UNL     1       8.878  30.448  59.842  1.00  0.00     0.240 C 
HETATM   21  O   UNL     1       9.875  30.512  59.128  1.00  0.00    -0.271 OA
HETATM   22  H   UNL     1       6.977  29.578  60.140  1.00  0.00     0.190 HD
BRANCH  20  23
HETATM   23  C   UNL     1       8.825  31.094  61.181  1.00  0.00     0.089 A 
HETATM   24  C   UNL     1       8.206  32.477  61.322  1.00  0.00     0.034 A 
HETATM   25  C   UNL     1       9.698  32.284  61.478  1.00  0.00     0.025 A 
BRANCH  24  26
HETATM   26  C   UNL     1       7.336  32.794  62.524  1.00  0.00    -0.031 A 
HETATM   27  C   UNL     1       5.932  32.897  62.452  1.00  0.00     0.040 A 
HETATM   28 CL   UNL     1       5.099  32.652  60.954  1.00  0.00    -0.084 Cl
HETATM   29  C   UNL     1       5.159  33.206  63.577  1.00  0.00     0.024 A 
HETATM   30  C   UNL     1       5.774  33.431  64.806  1.00  0.00     0.002 A 
HETATM   31  C   UNL     1       7.159  33.353  64.907  1.00  0.00     0.001 A 
HETATM   32  C   UNL     1       7.926  33.045  63.780  1.00  0.00     0.009 A 
ENDBRANCH  24  26
ENDBRANCH  20  23
ENDBRANCH   2  19
TORSDOF 6
ENDMDL
MODEL 5
REMARK VINA RESULT:     -10.3      1.756      2.222
REMARK  6 active torsions:
REMARK  status: ('A' for Active; 'I' for Inactive)
REMARK    1  A    between atoms: O_2  and  C_3 
REMARK    2  A    between atoms: C_6  and  C_7 
REMARK    3  A    between atoms: C_11  and  C_12 
REMARK       I    between atoms: C_12  and  N_13 
REMARK    4  A    between atoms: N_13  and  N_14 
REMARK       I    between atoms: N_14  and  C_15 
REMARK    5  A    between atoms: C_15  and  C_16 
REMARK    6  A    between atoms: C_17  and  C_18 
ROOT
HETATM    1  C   UNL     1       8.358  30.184  59.136  1.00  0.00     0.288 C 
HETATM    2  N   UNL     1       7.584  29.172  58.607  1.00  0.00    -0.262 N 
HETATM    3  O   UNL     1       9.540  30.327  58.825  1.00  0.00    -0.264 OA
HETATM    4  H   UNL     1       6.671  28.924  58.982  1.00  0.00     0.190 HD
ENDROOT
BRANCH   1   5
HETATM    5  C   UNL     1       7.697  31.044  60.078  1.00  0.00     0.121 A 
HETATM    6  N   UNL     1       6.742  31.938  59.683  1.00  0.00    -0.272 N 
HETATM    7  N   UNL     1       6.231  32.676  60.678  1.00  0.00    -0.174 NA
HETATM    8  H   UNL     1       6.403  32.089  58.737  1.00  0.00     0.189 HD
HETATM    9  C   UNL     1       6.858  32.239  61.784  1.00  0.00     0.089 A 
HETATM   10  C   UNL     1       7.791  31.216  61.445  1.00  0.00     0.071 A 
BRANCH   9  11
HETATM   11  C   UNL     1       6.564  32.803  63.107  1.00  0.00    -0.005 A 
HETATM   12  C   UNL     1       5.247  32.947  63.560  1.00  0.00     0.016 A 
HETATM   13  C   UNL     1       4.986  33.479  64.829  1.00  0.00     0.037 A 
HETATM   14  C   UNL     1       6.029  33.873  65.669  1.00  0.00     0.068 A 
HETATM   15  C   UNL     1       7.343  33.743  65.224  1.00  0.00     0.037 A 
HETATM   16  C   UNL     1       7.605  33.212  63.954  1.00  0.00     0.016 A 
BRANCH  14  17
HETATM   17  O   UNL     1       5.634  34.370  66.880  1.00  0.00    -0.356 OA
HETATM   18  C   UNL     1       4.341  34.958  66.940  1.00  0.00     0.210 C 
ENDBRANCH  14  17
ENDBRANCH   9  11
ENDBRANCH   1   5
BRANCH   2  19
HETATM   19  N   UNL     1       8.211  28.194  57.823  1.00  0.00    -0.267 N 
HETATM   20  C   UNL     1       7.443  27.153  57.353  1.00  0.00     0.240 C 
HETATM   21  O   UNL     1       6.222  27.105  57.476  1.00  0.00    -0.271 OA
HETATM   22  H   UNL     1       9.228  28.164  57.857  1.00  0.00     0.190 HD
BRANCH  20  23
HETATM   23  C   UNL     1       8.212  26.058  56.704  1.00  0.00     0.089 A 
HETATM   24  C   UNL     1       7.611  24.662  56.628  1.00  0.00     0.034 A 
HETATM   25  C   UNL     1       8.785  24.944  57.538  1.00  0.00     0.025 A 
BRANCH  24  26
HETATM   26  C   UNL     1       7.788  23.832  55.370  1.00  0.00    -0.031 A 
HETATM   27  C   UNL     1       6.975  23.984  54.228  1.00  0.00     0.040 A 
HETATM   28 CL   UNL     1       5.704  25.159  54.191  1.00  0.00    -0.084 Cl
HETATM   29  C   UNL     1       7.154  23.191  53.089  1.00  0.00     0.024 A 
HETATM   30  C   UNL     1       8.149  22.217  53.065  1.00  0.00     0.002 A 
HETATM   31  C   UNL     1       8.956  22.031  54.182  1.00  0.00     0.001 A 
HETATM   32  C   UNL     1       8.772  22.824  55.317  1.00  0.00     0.009 A 
ENDBRANCH  24  26
ENDBRANCH  20  23
ENDBRANCH   2  19
TORSDOF 6
ENDMDL
MODEL 6
REMARK VINA RESULT:     -10.1      3.616     11.421
REMARK  6 active torsions:
REMARK  status: ('A' for Active; 'I' for Inactive)
REMARK    1  A    between atoms: O_2  and  C_3 
REMARK    2  A    between atoms: C_6  and  C_7 
REMARK    3  A    between atoms: C_11  and  C_12 
REMARK       I    between atoms: C_12  and  N_13 
REMARK    4  A    between atoms: N_13  and  N_14 
REMARK       I    between atoms: N_14  and  C_15 
REMARK    5  A    between atoms: C_15  and  C_16 
REMARK    6  A    between atoms: C_17  and  C_18 
ROOT
HETATM    1  C   UNL     1       6.240  29.880  56.573  1.00  0.00     0.288 C 
HETATM    2  N   UNL     1       6.598  29.820  57.904  1.00  0.00    -0.262 N 
HETATM    3  O   UNL     1       5.566  30.806  56.124  1.00  0.00    -0.264 OA
HETATM    4  H   UNL     1       6.991  28.984  58.331  1.00  0.00     0.190 HD
ENDROOT
BRANCH   1   5
HETATM    5  C   UNL     1       6.693  28.788  55.758  1.00  0.00     0.121 A 
HETATM    6  N   UNL     1       7.447  28.996  54.638  1.00  0.00    -0.272 N 
HETATM    7  N   UNL     1       7.778  27.876  53.980  1.00  0.00    -0.174 NA
HETATM    8  H   UNL     1       7.761  29.890  54.273  1.00  0.00     0.189 HD
HETATM    9  C   UNL     1       7.239  26.881  54.705  1.00  0.00     0.089 A 
HETATM   10  C   UNL     1       6.545  27.417  55.829  1.00  0.00     0.071 A 
BRANCH   9  11
HETATM   11  C   UNL     1       7.390  25.475  54.311  1.00  0.00    -0.005 A 
HETATM   12  C   UNL     1       7.118  24.435  55.208  1.00  0.00     0.016 A 
HETATM   13  C   UNL     1       7.259  23.099  54.811  1.00  0.00     0.037 A 
HETATM   14  C   UNL     1       7.670  22.777  53.516  1.00  0.00     0.068 A 
HETATM   15  C   UNL     1       7.951  23.804  52.619  1.00  0.00     0.037 A 
HETATM   16  C   UNL     1       7.812  25.141  53.016  1.00  0.00     0.016 A 
BRANCH  14  17
HETATM   17  O   UNL     1       7.760  21.437  53.261  1.00  0.00    -0.356 OA
HETATM   18  C   UNL     1       8.513  20.658  54.183  1.00  0.00     0.210 C 
ENDBRANCH  14  17
ENDBRANCH   9  11
ENDBRANCH   1   5
BRANCH   2  19
HETATM   19  N   UNL     1       6.041  30.755  58.788  1.00  0.00    -0.267 N 
HETATM   20  C   UNL     1       6.850  31.769  59.249  1.00  0.00     0.240 C 
HETATM   21  O   UNL     1       7.986  31.969  58.832  1.00  0.00    -0.271 OA
HETATM   22  H   UNL     1       5.164  30.495  59.235  1.00  0.00     0.190 HD
BRANCH  20  23
HETATM   23  C   UNL     1       6.250  32.597  60.330  1.00  0.00     0.089 A 
HETATM   24  C   UNL     1       5.806  31.933  61.625  1.00  0.00     0.034 A 
HETATM   25  C   UNL     1       4.784  32.472  60.649  1.00  0.00     0.025 A 
BRANCH  24  26
HETATM   26  C   UNL     1       6.051  32.628  62.951  1.00  0.00    -0.031 A 
HETATM   27  C   UNL     1       7.338  32.804  63.500  1.00  0.00     0.040 A 
HETATM   28 CL   UNL     1       8.746  32.233  62.669  1.00  0.00    -0.084 Cl
HETATM   29  C   UNL     1       7.530  33.437  64.734  1.00  0.00     0.024 A 
HETATM   30  C   UNL     1       6.435  33.902  65.458  1.00  0.00     0.002 A 
HETATM   31  C   UNL     1       5.152  33.729  64.951  1.00  0.00     0.001 A 
HETATM   32  C   UNL     1       4.966  33.096  63.719  1.00  0.00     0.009 A 
ENDBRANCH  24  26
ENDBRANCH  20  23
ENDBRANCH   2  19
TORSDOF 6
ENDMDL
MODEL 7
REMARK VINA RESULT:      -9.9      1.830      2.226
REMARK  6 active torsions:
REMARK  status: ('A' for Active; 'I' for Inactive)
REMARK    1  A    between atoms: O_2  and  C_3 
REMARK    2  A    between atoms: C_6  and  C_7 
REMARK    3  A    between atoms: C_11  and  C_12 
REMARK       I    between atoms: C_12  and  N_13 
REMARK    4  A    between atoms: N_13  and  N_14 
REMARK       I    between atoms: N_14  and  C_15 
REMARK    5  A    between atoms: C_15  and  C_16 
REMARK    6  A    between atoms: C_17  and  C_18 
ROOT
HETATM    1  C   UNL     1       8.396  29.871  57.236  1.00  0.00     0.288 C 
HETATM    2  N   UNL     1       7.139  29.536  56.775  1.00  0.00    -0.262 N 
HETATM    3  O   UNL     1       9.418  29.441  56.704  1.00  0.00    -0.264 OA
HETATM    4  H   UNL     1       6.291  29.726  57.303  1.00  0.00     0.190 HD
ENDROOT
BRANCH   1   5
HETATM    5  C   UNL     1       8.427  30.741  58.379  1.00  0.00     0.121 A 
HETATM    6  N   UNL     1       9.438  31.640  58.567  1.00  0.00    -0.272 N 
HETATM    7  N   UNL     1       9.328  32.367  59.688  1.00  0.00    -0.174 NA
HETATM    8  H   UNL     1      10.236  31.795  57.958  1.00  0.00     0.189 HD
HETATM    9  C   UNL     1       8.185  31.948  60.257  1.00  0.00     0.089 A 
HETATM   10  C   UNL     1       7.593  30.922  59.465  1.00  0.00     0.071 A 
BRANCH   9  11
HETATM   11  C   UNL     1       7.702  32.519  61.520  1.00  0.00    -0.005 A 
HETATM   12  C   UNL     1       6.536  33.291  61.571  1.00  0.00     0.016 A 
HETATM   13  C   UNL     1       6.085  33.820  62.788  1.00  0.00     0.037 A 
HETATM   14  C   UNL     1       6.786  33.587  63.972  1.00  0.00     0.068 A 
HETATM   15  C   UNL     1       7.953  32.828  63.931  1.00  0.00     0.037 A 
HETATM   16  C   UNL     1       8.405  32.300  62.715  1.00  0.00     0.016 A 
BRANCH  14  17
HETATM   17  O   UNL     1       6.234  34.157  65.086  1.00  0.00    -0.356 OA
HETATM   18  C   UNL     1       4.876  33.838  65.362  1.00  0.00     0.210 C 
ENDBRANCH  14  17
ENDBRANCH   9  11
ENDBRANCH   1   5
BRANCH   2  19
HETATM   19  N   UNL     1       7.034  28.554  55.780  1.00  0.00    -0.267 N 
HETATM   20  C   UNL     1       6.149  27.519  55.985  1.00  0.00     0.240 C 
HETATM   21  O   UNL     1       5.362  27.481  56.926  1.00  0.00    -0.271 OA
HETATM   22  H   UNL     1       7.785  28.516  55.094  1.00  0.00     0.190 HD
BRANCH  20  23
HETATM   23  C   UNL     1       6.240  26.420  54.987  1.00  0.00     0.089 A 
HETATM   24  C   UNL     1       7.591  25.788  54.688  1.00  0.00     0.034 A 
HETATM   25  C   UNL     1       6.907  26.661  53.660  1.00  0.00     0.025 A 
BRANCH  24  26
HETATM   26  C   UNL     1       7.695  24.288  54.485  1.00  0.00    -0.031 A 
HETATM   27  C   UNL     1       7.820  23.691  53.214  1.00  0.00     0.040 A 
HETATM   28 CL   UNL     1       7.874  24.658  51.779  1.00  0.00    -0.084 Cl
HETATM   29  C   UNL     1       7.898  22.302  53.059  1.00  0.00     0.024 A 
HETATM   30  C   UNL     1       7.843  21.471  54.175  1.00  0.00     0.002 A 
HETATM   31  C   UNL     1       7.702  22.029  55.441  1.00  0.00     0.001 A 
HETATM   32  C   UNL     1       7.624  23.416  55.590  1.00  0.00     0.009 A 
ENDBRANCH  24  26
ENDBRANCH  20  23
ENDBRANCH   2  19
TORSDOF 6
ENDMDL
MODEL 8
REMARK VINA RESULT:      -9.5      2.597      3.259
REMARK  6 active torsions:
REMARK  status: ('A' for Active; 'I' for Inactive)
REMARK    1  A    between atoms: O_2  and  C_3 
REMARK    2  A    between atoms: C_6  and  C_7 
REMARK    3  A    between atoms: C_11  and  C_12 
REMARK       I    between atoms: C_12  and  N_13 
REMARK    4  A    between atoms: N_13  and  N_14 
REMARK       I    between atoms: N_14  and  C_15 
REMARK    5  A    between atoms: C_15  and  C_16 
REMARK    6  A    between atoms: C_17  and  C_18 
ROOT
HETATM    1  C   UNL     1       7.184  28.619  55.660  1.00  0.00     0.288 C 
HETATM    2  N   UNL     1       6.482  28.311  54.512  1.00  0.00    -0.262 N 
HETATM    3  O   UNL     1       8.180  27.982  56.001  1.00  0.00    -0.264 OA
HETATM    4  H   UNL     1       5.563  28.696  54.309  1.00  0.00     0.190 HD
ENDROOT
BRANCH   1   5
HETATM    5  C   UNL     1       6.667  29.716  56.428  1.00  0.00     0.121 A 
HETATM    6  N   UNL     1       5.834  30.648  55.876  1.00  0.00    -0.272 N 
HETATM    7  N   UNL     1       5.450  31.615  56.720  1.00  0.00    -0.174 NA
HETATM    8  H   UNL     1       5.498  30.672  54.917  1.00  0.00     0.189 HD
HETATM    9  C   UNL     1       6.035  31.302  57.888  1.00  0.00     0.089 A 
HETATM   10  C   UNL     1       6.812  30.116  57.742  1.00  0.00     0.071 A 
BRANCH   9  11
HETATM   11  C   UNL     1       5.849  32.129  59.086  1.00  0.00    -0.005 A 
HETATM   12  C   UNL     1       4.698  32.906  59.263  1.00  0.00     0.016 A 
HETATM   13  C   UNL     1       4.534  33.682  60.417  1.00  0.00     0.037 A 
HETATM   14  C   UNL     1       5.510  33.695  61.416  1.00  0.00     0.068 A 
HETATM   15  C   UNL     1       6.663  32.932  61.246  1.00  0.00     0.037 A 
HETATM   16  C   UNL     1       6.829  32.157  60.091  1.00  0.00     0.016 A 
BRANCH  14  17
HETATM   17  O   UNL     1       5.221  34.490  62.489  1.00  0.00    -0.356 OA
HETATM   18  C   UNL     1       5.692  35.831  62.440  1.00  0.00     0.210 C 
ENDBRANCH  14  17
ENDBRANCH   9  11
ENDBRANCH   1   5
BRANCH   2  19
HETATM   19  N   UNL     1       6.825  27.144  53.814  1.00  0.00    -0.267 N 
HETATM   20  C   UNL     1       6.097  26.004  54.066  1.00  0.00     0.240 C 
HETATM   21  O   UNL     1       5.091  25.986  54.769  1.00  0.00    -0.271 OA
HETATM   22  H   UNL     1       7.736  27.134  53.361  1.00  0.00     0.190 HD
BRANCH  20  23
HETATM   23  C   UNL     1       6.644  24.769  53.443  1.00  0.00     0.089 A 
HETATM   24  C   UNL     1       8.005  24.247  53.881  1.00  0.00     0.034 A 
HETATM   25  C   UNL     1       7.821  24.855  52.509  1.00  0.00     0.025 A 
BRANCH  24  26
HETATM   26  C   UNL     1       8.223  22.754  54.044  1.00  0.00    -0.031 A 
HETATM   27  C   UNL     1       8.469  22.145  55.292  1.00  0.00     0.040 A 
HETATM   28 CL   UNL     1       8.528  23.085  56.744  1.00  0.00    -0.084 Cl
HETATM   29  C   UNL     1       8.682  20.766  55.406  1.00  0.00     0.024 A 
HETATM   30  C   UNL     1       8.663  19.960  54.271  1.00  0.00     0.002 A 
HETATM   31  C   UNL     1       8.440  20.533  53.024  1.00  0.00     0.001 A 
HETATM   32  C   UNL     1       8.229  21.910  52.915  1.00  0.00     0.009 A 
ENDBRANCH  24  26
ENDBRANCH  20  23
ENDBRANCH   2  19
TORSDOF 6
ENDMDL
MODEL 9
REMARK VINA RESULT:      -9.4      3.541      4.251
REMARK  6 active torsions:
REMARK  status: ('A' for Active; 'I' for Inactive)
REMARK    1  A    between atoms: O_2  and  C_3 
REMARK    2  A    between atoms: C_6  and  C_7 
REMARK    3  A    between atoms: C_11  and  C_12 
REMARK       I    between atoms: C_12  and  N_13 
REMARK    4  A    between atoms: N_13  and  N_14 
REMARK       I    between atoms: N_14  and  C_15 
REMARK    5  A    between atoms: C_15  and  C_16 
REMARK    6  A    between atoms: C_17  and  C_18 
ROOT
HETATM    1  C   UNL     1       8.382  30.264  58.901  1.00  0.00     0.288 C 
HETATM    2  N   UNL     1       7.404  29.425  58.405  1.00  0.00    -0.262 N 
HETATM    3  O   UNL     1       9.363  30.584  58.231  1.00  0.00    -0.264 OA
HETATM    4  H   UNL     1       6.690  29.004  58.995  1.00  0.00     0.190 HD
ENDROOT
BRANCH   1   5
HETATM    5  C   UNL     1       8.182  30.723  60.247  1.00  0.00     0.121 A 
HETATM    6  N   UNL     1       8.919  30.233  61.288  1.00  0.00    -0.272 N 
HETATM    7  N   UNL     1       8.603  30.752  62.482  1.00  0.00    -0.174 NA
HETATM    8  H   UNL     1       9.654  29.533  61.237  1.00  0.00     0.189 HD
HETATM    9  C   UNL     1       7.629  31.640  62.221  1.00  0.00     0.089 A 
HETATM   10  C   UNL     1       7.334  31.646  60.826  1.00  0.00     0.071 A 
BRANCH   9  11
HETATM   11  C   UNL     1       7.011  32.438  63.287  1.00  0.00    -0.005 A 
HETATM   12  C   UNL     1       7.789  33.115  64.234  1.00  0.00     0.016 A 
HETATM   13  C   UNL     1       7.182  33.879  65.239  1.00  0.00     0.037 A 
HETATM   14  C   UNL     1       5.792  33.983  65.317  1.00  0.00     0.068 A 
HETATM   15  C   UNL     1       5.008  33.307  64.385  1.00  0.00     0.037 A 
HETATM   16  C   UNL     1       5.615  32.541  63.380  1.00  0.00     0.016 A 
BRANCH  14  17
HETATM   17  O   UNL     1       5.332  34.763  66.341  1.00  0.00    -0.356 OA
HETATM   18  C   UNL     1       4.580  34.110  67.356  1.00  0.00     0.210 C 
ENDBRANCH  14  17
ENDBRANCH   9  11
ENDBRANCH   1   5
BRANCH   2  19
HETATM   19  N   UNL     1       7.626  28.801  57.170  1.00  0.00    -0.267 N 
HETATM   20  C   UNL     1       6.888  29.228  56.089  1.00  0.00     0.240 C 
HETATM   21  O   UNL     1       6.146  30.205  56.122  1.00  0.00    -0.271 OA
HETATM   22  H   UNL     1       8.120  27.911  57.189  1.00  0.00     0.190 HD
BRANCH  20  23
HETATM   23  C   UNL     1       7.033  28.389  54.869  1.00  0.00     0.089 A 
HETATM   24  C   UNL     1       5.917  27.431  54.481  1.00  0.00     0.034 A 
HETATM   25  C   UNL     1       7.237  26.903  54.997  1.00  0.00     0.025 A 
BRANCH  24  26
HETATM   26  C   UNL     1       5.535  27.269  53.022  1.00  0.00    -0.031 A 
HETATM   27  C   UNL     1       4.731  28.198  52.329  1.00  0.00     0.040 A 
HETATM   28 CL   UNL     1       4.128  29.615  53.121  1.00  0.00    -0.084 Cl
HETATM   29  C   UNL     1       4.384  28.011  50.986  1.00  0.00     0.024 A 
HETATM   30  C   UNL     1       4.825  26.882  50.301  1.00  0.00     0.002 A 
HETATM   31  C   UNL     1       5.605  25.939  50.961  1.00  0.00     0.001 A 
HETATM   32  C   UNL     1       5.948  26.129  52.302  1.00  0.00     0.009 A 
ENDBRANCH  24  26
ENDBRANCH  20  23
ENDBRANCH   2  19
TORSDOF 6
ENDMDL
MODEL 10
REMARK VINA RESULT:      -9.3      3.378      4.408
REMARK  6 active torsions:
REMARK  status: ('A' for Active; 'I' for Inactive)
REMARK    1  A    between atoms: O_2  and  C_3 
REMARK    2  A    between atoms: C_6  and  C_7 
REMARK    3  A    between atoms: C_11  and  C_12 
REMARK       I    between atoms: C_12  and  N_13 
REMARK    4  A    between atoms: N_13  and  N_14 
REMARK       I    between atoms: N_14  and  C_15 
REMARK    5  A    between atoms: C_15  and  C_16 
REMARK    6  A    between atoms: C_17  and  C_18 
ROOT
HETATM    1  C   UNL     1       7.085  31.735  59.556  1.00  0.00     0.288 C 
HETATM    2  N   UNL     1       6.405  30.766  58.846  1.00  0.00    -0.262 N 
HETATM    3  O   UNL     1       8.130  32.231  59.138  1.00  0.00    -0.264 OA
HETATM    4  H   UNL     1       5.651  30.215  59.250  1.00  0.00     0.190 HD
ENDROOT
BRANCH   1   5
HETATM    5  C   UNL     1       6.499  32.109  60.813  1.00  0.00     0.121 A 
HETATM    6  N   UNL     1       5.161  31.969  61.049  1.00  0.00    -0.272 N 
HETATM    7  N   UNL     1       4.769  32.377  62.264  1.00  0.00    -0.174 NA
HETATM    8  H   UNL     1       4.465  31.602  60.407  1.00  0.00     0.189 HD
HETATM    9  C   UNL     1       5.898  32.785  62.868  1.00  0.00     0.089 A 
HETATM   10  C   UNL     1       7.006  32.636  61.984  1.00  0.00     0.071 A 
BRANCH   9  11
HETATM   11  C   UNL     1       5.889  33.304  64.241  1.00  0.00    -0.005 A 
HETATM   12  C   UNL     1       7.079  33.504  64.951  1.00  0.00     0.016 A 
HETATM   13  C   UNL     1       7.052  34.009  66.258  1.00  0.00     0.037 A 
HETATM   14  C   UNL     1       5.841  34.325  66.877  1.00  0.00     0.068 A 
HETATM   15  C   UNL     1       4.651  34.121  66.183  1.00  0.00     0.037 A 
HETATM   16  C   UNL     1       4.678  33.615  64.877  1.00  0.00     0.016 A 
BRANCH  14  17
HETATM   17  O   UNL     1       5.959  34.813  68.149  1.00  0.00    -0.356 OA
HETATM   18  C   UNL     1       7.253  34.763  68.737  1.00  0.00     0.210 C 
ENDBRANCH  14  17
ENDBRANCH   9  11
ENDBRANCH   1   5
BRANCH   2  19
HETATM   19  N   UNL     1       7.013  30.228  57.703  1.00  0.00    -0.267 N 
HETATM   20  C   UNL     1       6.198  29.796  56.681  1.00  0.00     0.240 C 
HETATM   21  O   UNL     1       4.984  29.975  56.665  1.00  0.00    -0.271 OA
HETATM   22  H   UNL     1       7.988  29.951  57.792  1.00  0.00     0.190 HD
BRANCH  20  23
HETATM   23  C   UNL     1       6.901  29.059  55.597  1.00  0.00     0.089 A 
HETATM   24  C   UNL     1       6.753  27.547  55.501  1.00  0.00     0.034 A 
HETATM   25  C   UNL     1       8.066  28.166  55.927  1.00  0.00     0.025 A 
BRANCH  24  26
HETATM   26  C   UNL     1       6.613  26.888  54.141  1.00  0.00    -0.031 A 
HETATM   27  C   UNL     1       5.458  27.013  53.342  1.00  0.00     0.040 A 
HETATM   28 CL   UNL     1       4.106  27.953  53.874  1.00  0.00    -0.084 Cl
HETATM   29  C   UNL     1       5.354  26.379  52.098  1.00  0.00     0.024 A 
HETATM   30  C   UNL     1       6.402  25.595  51.624  1.00  0.00     0.002 A 
HETATM   31  C   UNL     1       7.548  25.439  52.396  1.00  0.00     0.001 A 
HETATM   32  C   UNL     1       7.647  26.073  53.638  1.00  0.00     0.009 A 
ENDBRANCH  24  26
ENDBRANCH  20  23
ENDBRANCH   2  19
TORSDOF 6
ENDMDL
