MODEL 1
REMARK VINA RESULT:      -9.4      0.000      0.000
REMARK  8 active torsions:
REMARK  status: ('A' for Active; 'I' for Inactive)
REMARK    1  A    between atoms: C_2  and  N_3 
REMARK    2  A    between atoms: C_2  and  C_36 
REMARK       I    between atoms: N_3  and  C_4 
REMARK    3  A    between atoms: C_4  and  C_5 
REMARK    4  A    between atoms: C_5  and  N_6 
REMARK       I    between atoms: N_12  and  C_13 
REMARK    5  A    between atoms: C_13  and  C_14 
REMARK    6  A    between atoms: C_15  and  O_16 
REMARK    7  A    between atoms: C_21  and  O_22 
REMARK    8  A    between atoms: N_27  and  C_28 
ROOT
HETATM    1  N   UNL     1       4.103  31.245  59.007  1.00  0.00    -0.325 N 
HETATM    2  C   UNL     1       3.971  30.822  57.702  1.00  0.00     0.250 C 
HETATM    3  O   UNL     1       2.915  30.702  57.101  1.00  0.00    -0.270 OA
HETATM    4  C   UNL     1       5.372  30.399  57.219  1.00  0.00     0.118 C 
HETATM    5  C   UNL     1       5.618  30.954  55.805  1.00  0.00     0.061 C 
HETATM    6  C   UNL     1       5.028  30.072  54.710  1.00  0.00     0.129 C 
HETATM    7  N   UNL     1       5.296  28.663  54.956  1.00  0.00    -0.348 N 
HETATM    8  C   UNL     1       6.342  28.034  54.270  1.00  0.00     0.259 C 
HETATM    9  O   UNL     1       7.133  28.637  53.549  1.00  0.00    -0.267 OA
HETATM   10  C   UNL     1       4.717  28.160  56.192  1.00  0.00     0.129 C 
HETATM   11  C   UNL     1       5.389  28.859  57.372  1.00  0.00     0.061 C 
HETATM   12  N   UNL     1       6.244  31.047  58.245  1.00  0.00    -0.346 N 
HETATM   13  C   UNL     1       5.463  31.447  59.407  1.00  0.00     0.254 C 
ENDROOT
BRANCH  12  14
HETATM   14  C   UNL     1       7.627  31.037  58.299  1.00  0.00     0.032 A 
HETATM   15  C   UNL     1       8.424  30.190  57.510  1.00  0.00     0.029 A 
HETATM   16  C   UNL     1       9.826  30.205  57.559  1.00  0.00     0.002 A 
HETATM   17  C   UNL     1      10.484  31.084  58.406  1.00  0.00     0.000 A 
HETATM   18  C   UNL     1       9.737  31.941  59.200  1.00  0.00     0.002 A 
HETATM   19  C   UNL     1       8.336  31.913  59.144  1.00  0.00     0.029 A 
ENDBRANCH  12  14
BRANCH   1  20
HETATM   20  C   UNL     1       3.011  31.328  59.960  1.00  0.00     0.230 C 
BRANCH  20  21
HETATM   21  C   UNL     1       3.399  31.721  61.383  1.00  0.00     0.236 C 
HETATM   22  N   UNL     1       3.623  33.067  61.564  1.00  0.00    -0.351 N 
HETATM   23  H   UNL     1       3.357  33.655  60.782  1.00  0.00     0.163 HD
HETATM   24  O   UNL     1       3.376  30.893  62.290  1.00  0.00    -0.272 OA
BRANCH  22  25
HETATM   25  C   UNL     1       3.640  33.726  62.864  1.00  0.00     0.113 C 
HETATM   26  C   UNL     1       3.036  35.133  62.889  1.00  0.00     0.037 C 
BRANCH  25  27
HETATM   27  C   UNL     1       5.025  33.636  63.484  1.00  0.00    -0.036 A 
HETATM   28  C   UNL     1       5.197  33.892  64.854  1.00  0.00     0.009 A 
HETATM   29  C   UNL     1       6.452  33.775  65.454  1.00  0.00     0.001 A 
HETATM   30  C   UNL     1       7.555  33.393  64.695  1.00  0.00     0.000 A 
HETATM   31  C   UNL     1       7.403  33.126  63.337  1.00  0.00     0.001 A 
HETATM   32  C   UNL     1       6.148  33.245  62.735  1.00  0.00     0.009 A 
ENDBRANCH  25  27
ENDBRANCH  22  25
ENDBRANCH  20  21
ENDBRANCH   1  20
BRANCH   8  33
HETATM   33  C   UNL     1       6.420  26.554  54.321  1.00  0.00     0.098 A 
HETATM   34  C   UNL     1       7.256  25.970  55.287  1.00  0.00     0.086 A 
HETATM   35  C   UNL     1       7.367  24.582  55.375  1.00  0.00     0.038 A 
HETATM   36  C   UNL     1       6.668  23.774  54.485  1.00  0.00     0.005 A 
HETATM   37  C   UNL     1       5.826  24.349  53.527  1.00  0.00     0.038 A 
HETATM   38  C   UNL     1       5.681  25.741  53.444  1.00  0.00     0.086 A 
BRANCH  34  39
HETATM   39  O   UNL     1       7.892  26.723  56.239  1.00  0.00    -0.355 OA
HETATM   40  C   UNL     1       7.874  26.073  57.508  1.00  0.00     0.210 C 
ENDBRANCH  34  39
BRANCH  38  41
HETATM   41  O   UNL     1       4.852  26.372  52.556  1.00  0.00    -0.355 OA
HETATM   42  C   UNL     1       5.165  26.273  51.170  1.00  0.00     0.210 C 
ENDBRANCH  38  41
ENDBRANCH   8  33
TORSDOF 8
ENDMDL
MODEL 2
REMARK VINA RESULT:      -9.3      3.579     10.806
REMARK  8 active torsions:
REMARK  status: ('A' for Active; 'I' for Inactive)
REMARK    1  A    between atoms: C_2  and  N_3 
REMARK    2  A    between atoms: C_2  and  C_36 
REMARK       I    between atoms: N_3  and  C_4 
REMARK    3  A    between atoms: C_4  and  C_5 
REMARK    4  A    between atoms: C_5  and  N_6 
REMARK       I    between atoms: N_12  and  C_13 
REMARK    5  A    between atoms: C_13  and  C_14 
REMARK    6  A    between atoms: C_15  and  O_16 
REMARK    7  A    between atoms: C_21  and  O_22 
REMARK    8  A    between atoms: N_27  and  C_28 
ROOT
HETATM    1  N   UNL     1       5.351  27.292  50.882  1.00  0.00    -0.325 N 
HETATM    2  C   UNL     1       4.864  27.911  52.013  1.00  0.00     0.250 C 
HETATM    3  O   UNL     1       4.174  28.919  52.025  1.00  0.00    -0.270 OA
HETATM    4  C   UNL     1       5.475  27.185  53.227  1.00  0.00     0.118 C 
HETATM    5  C   UNL     1       4.385  26.944  54.285  1.00  0.00     0.061 C 
HETATM    6  C   UNL     1       4.155  28.152  55.186  1.00  0.00     0.129 C 
HETATM    7  N   UNL     1       5.411  28.749  55.612  1.00  0.00    -0.348 N 
HETATM    8  C   UNL     1       5.908  28.460  56.889  1.00  0.00     0.259 C 
HETATM    9  O   UNL     1       5.400  27.631  57.639  1.00  0.00    -0.267 OA
HETATM   10  C   UNL     1       6.227  29.251  54.517  1.00  0.00     0.129 C 
HETATM   11  C   UNL     1       6.670  28.073  53.651  1.00  0.00     0.061 C 
HETATM   12  N   UNL     1       5.951  25.915  52.599  1.00  0.00    -0.346 N 
HETATM   13  C   UNL     1       5.996  26.042  51.149  1.00  0.00     0.254 C 
ENDROOT
BRANCH  12  14
HETATM   14  C   UNL     1       6.563  24.845  53.229  1.00  0.00     0.032 A 
HETATM   15  C   UNL     1       6.425  24.576  54.601  1.00  0.00     0.029 A 
HETATM   16  C   UNL     1       7.033  23.475  55.222  1.00  0.00     0.002 A 
HETATM   17  C   UNL     1       7.803  22.593  54.479  1.00  0.00     0.000 A 
HETATM   18  C   UNL     1       7.962  22.817  53.120  1.00  0.00     0.002 A 
HETATM   19  C   UNL     1       7.351  23.924  52.512  1.00  0.00     0.029 A 
ENDBRANCH  12  14
BRANCH   1  20
HETATM   20  C   UNL     1       5.375  27.892  49.560  1.00  0.00     0.230 C 
BRANCH  20  21
HETATM   21  C   UNL     1       4.593  27.150  48.479  1.00  0.00     0.236 C 
HETATM   22  N   UNL     1       3.362  26.685  48.882  1.00  0.00    -0.351 N 
HETATM   23  H   UNL     1       3.053  27.018  49.788  1.00  0.00     0.163 HD
HETATM   24  O   UNL     1       5.008  27.107  47.324  1.00  0.00    -0.272 OA
BRANCH  22  25
HETATM   25  C   UNL     1       2.299  26.285  47.967  1.00  0.00     0.113 C 
HETATM   26  C   UNL     1       2.735  25.357  46.829  1.00  0.00     0.037 C 
BRANCH  25  27
HETATM   27  C   UNL     1       1.512  27.501  47.508  1.00  0.00    -0.036 A 
HETATM   28  C   UNL     1       0.602  27.384  46.444  1.00  0.00     0.009 A 
HETATM   29  C   UNL     1      -0.162  28.477  46.032  1.00  0.00     0.001 A 
HETATM   30  C   UNL     1      -0.035  29.702  46.681  1.00  0.00     0.000 A 
HETATM   31  C   UNL     1       0.854  29.834  47.743  1.00  0.00     0.001 A 
HETATM   32  C   UNL     1       1.622  28.743  48.156  1.00  0.00     0.009 A 
ENDBRANCH  25  27
ENDBRANCH  22  25
ENDBRANCH  20  21
ENDBRANCH   1  20
BRANCH   8  33
HETATM   33  C   UNL     1       7.027  29.285  57.405  1.00  0.00     0.098 A 
HETATM   34  C   UNL     1       8.336  28.803  57.235  1.00  0.00     0.086 A 
HETATM   35  C   UNL     1       9.424  29.540  57.704  1.00  0.00     0.038 A 
HETATM   36  C   UNL     1       9.210  30.743  58.367  1.00  0.00     0.005 A 
HETATM   37  C   UNL     1       7.911  31.235  58.531  1.00  0.00     0.038 A 
HETATM   38  C   UNL     1       6.808  30.521  58.040  1.00  0.00     0.086 A 
BRANCH  34  39
HETATM   39  O   UNL     1       8.597  27.669  56.511  1.00  0.00    -0.355 OA
HETATM   40  C   UNL     1       8.496  26.504  57.325  1.00  0.00     0.210 C 
ENDBRANCH  34  39
BRANCH  38  41
HETATM   41  O   UNL     1       5.513  30.953  58.135  1.00  0.00    -0.355 OA
HETATM   42  C   UNL     1       5.188  32.208  57.546  1.00  0.00     0.210 C 
ENDBRANCH  38  41
ENDBRANCH   8  33
TORSDOF 8
ENDMDL
MODEL 3
REMARK VINA RESULT:      -9.2      6.254     10.797
REMARK  8 active torsions:
REMARK  status: ('A' for Active; 'I' for Inactive)
REMARK    1  A    between atoms: C_2  and  N_3 
REMARK    2  A    between atoms: C_2  and  C_36 
REMARK       I    between atoms: N_3  and  C_4 
REMARK    3  A    between atoms: C_4  and  C_5 
REMARK    4  A    between atoms: C_5  and  N_6 
REMARK       I    between atoms: N_12  and  C_13 
REMARK    5  A    between atoms: C_13  and  C_14 
REMARK    6  A    between atoms: C_15  and  O_16 
REMARK    7  A    between atoms: C_21  and  O_22 
REMARK    8  A    between atoms: N_27  and  C_28 
ROOT
HETATM    1  N   UNL     1       4.988  26.869  51.255  1.00  0.00    -0.325 N 
HETATM    2  C   UNL     1       4.543  27.461  50.093  1.00  0.00     0.250 C 
HETATM    3  O   UNL     1       4.444  26.905  49.010  1.00  0.00    -0.270 OA
HETATM    4  C   UNL     1       4.348  28.959  50.393  1.00  0.00     0.118 C 
HETATM    5  C   UNL     1       3.017  29.437  49.788  1.00  0.00     0.061 C 
HETATM    6  C   UNL     1       3.133  29.799  48.311  1.00  0.00     0.129 C 
HETATM    7  N   UNL     1       4.332  30.577  48.043  1.00  0.00    -0.348 N 
HETATM    8  C   UNL     1       4.232  31.967  47.910  1.00  0.00     0.259 C 
HETATM    9  O   UNL     1       3.196  32.591  48.123  1.00  0.00    -0.267 OA
HETATM   10  C   UNL     1       5.570  29.878  48.353  1.00  0.00     0.129 C 
HETATM   11  C   UNL     1       5.635  29.634  49.859  1.00  0.00     0.061 C 
HETATM   12  N   UNL     1       4.327  28.958  51.887  1.00  0.00    -0.346 N 
HETATM   13  C   UNL     1       4.852  27.704  52.410  1.00  0.00     0.254 C 
ENDROOT
BRANCH  12  14
HETATM   14  C   UNL     1       4.143  30.044  52.725  1.00  0.00     0.032 A 
HETATM   15  C   UNL     1       4.218  31.378  52.288  1.00  0.00     0.029 A 
HETATM   16  C   UNL     1       4.006  32.469  53.144  1.00  0.00     0.002 A 
HETATM   17  C   UNL     1       3.703  32.258  54.481  1.00  0.00     0.000 A 
HETATM   18  C   UNL     1       3.614  30.957  54.955  1.00  0.00     0.002 A 
HETATM   19  C   UNL     1       3.831  29.875  54.089  1.00  0.00     0.029 A 
ENDBRANCH  12  14
BRANCH   1  20
HETATM   20  C   UNL     1       5.682  25.595  51.317  1.00  0.00     0.230 C 
BRANCH  20  21
HETATM   21  C   UNL     1       5.506  24.804  52.611  1.00  0.00     0.236 C 
HETATM   22  N   UNL     1       6.673  24.289  53.128  1.00  0.00    -0.351 N 
HETATM   23  H   UNL     1       7.523  24.620  52.684  1.00  0.00     0.163 HD
HETATM   24  O   UNL     1       4.418  24.765  53.179  1.00  0.00    -0.272 OA
BRANCH  22  25
HETATM   25  C   UNL     1       6.826  23.830  54.504  1.00  0.00     0.113 C 
HETATM   26  C   UNL     1       7.407  24.862  55.474  1.00  0.00     0.037 C 
BRANCH  25  27
HETATM   27  C   UNL     1       7.530  22.483  54.536  1.00  0.00    -0.036 A 
HETATM   28  C   UNL     1       7.745  21.835  55.764  1.00  0.00     0.009 A 
HETATM   29  C   UNL     1       8.353  20.580  55.815  1.00  0.00     0.001 A 
HETATM   30  C   UNL     1       8.749  19.948  54.639  1.00  0.00     0.000 A 
HETATM   31  C   UNL     1       8.536  20.570  53.412  1.00  0.00     0.001 A 
HETATM   32  C   UNL     1       7.930  21.828  53.360  1.00  0.00     0.009 A 
ENDBRANCH  25  27
ENDBRANCH  22  25
ENDBRANCH  20  21
ENDBRANCH   1  20
BRANCH   8  33
HETATM   33  C   UNL     1       5.399  32.702  47.365  1.00  0.00     0.098 A 
HETATM   34  C   UNL     1       5.539  32.777  45.969  1.00  0.00     0.086 A 
HETATM   35  C   UNL     1       6.620  33.454  45.405  1.00  0.00     0.038 A 
HETATM   36  C   UNL     1       7.579  34.034  46.230  1.00  0.00     0.005 A 
HETATM   37  C   UNL     1       7.440  33.973  47.620  1.00  0.00     0.038 A 
HETATM   38  C   UNL     1       6.344  33.321  48.202  1.00  0.00     0.086 A 
BRANCH  34  39
HETATM   39  O   UNL     1       4.574  32.298  45.122  1.00  0.00    -0.355 OA
HETATM   40  C   UNL     1       3.919  33.360  44.433  1.00  0.00     0.210 C 
ENDBRANCH  34  39
BRANCH  38  41
HETATM   41  O   UNL     1       6.125  33.248  49.552  1.00  0.00    -0.355 OA
HETATM   42  C   UNL     1       5.862  34.462  50.248  1.00  0.00     0.210 C 
ENDBRANCH  38  41
ENDBRANCH   8  33
TORSDOF 8
ENDMDL
MODEL 4
REMARK VINA RESULT:      -9.2      6.239     10.619
REMARK  8 active torsions:
REMARK  status: ('A' for Active; 'I' for Inactive)
REMARK    1  A    between atoms: C_2  and  N_3 
REMARK    2  A    between atoms: C_2  and  C_36 
REMARK       I    between atoms: N_3  and  C_4 
REMARK    3  A    between atoms: C_4  and  C_5 
REMARK    4  A    between atoms: C_5  and  N_6 
REMARK       I    between atoms: N_12  and  C_13 
REMARK    5  A    between atoms: C_13  and  C_14 
REMARK    6  A    between atoms: C_15  and  O_16 
REMARK    7  A    between atoms: C_21  and  O_22 
REMARK    8  A    between atoms: N_27  and  C_28 
ROOT
HETATM    1  N   UNL     1       4.975  26.864  51.243  1.00  0.00    -0.325 N 
HETATM    2  C   UNL     1       4.513  27.454  50.087  1.00  0.00     0.250 C 
HETATM    3  O   UNL     1       4.386  26.894  49.009  1.00  0.00    -0.270 OA
HETATM    4  C   UNL     1       4.339  28.956  50.383  1.00  0.00     0.118 C 
HETATM    5  C   UNL     1       3.000  29.444  49.802  1.00  0.00     0.061 C 
HETATM    6  C   UNL     1       3.089  29.796  48.321  1.00  0.00     0.129 C 
HETATM    7  N   UNL     1       4.291  30.562  48.025  1.00  0.00    -0.348 N 
HETATM    8  C   UNL     1       4.201  31.952  47.886  1.00  0.00     0.259 C 
HETATM    9  O   UNL     1       3.176  32.588  48.117  1.00  0.00    -0.267 OA
HETATM   10  C   UNL     1       5.528  29.853  48.314  1.00  0.00     0.129 C 
HETATM   11  C   UNL     1       5.621  29.616  49.820  1.00  0.00     0.061 C 
HETATM   12  N   UNL     1       4.348  28.963  51.877  1.00  0.00    -0.346 N 
HETATM   13  C   UNL     1       4.871  27.707  52.396  1.00  0.00     0.254 C 
ENDROOT
BRANCH  12  14
HETATM   14  C   UNL     1       4.190  30.055  52.713  1.00  0.00     0.032 A 
HETATM   15  C   UNL     1       4.263  31.386  52.266  1.00  0.00     0.029 A 
HETATM   16  C   UNL     1       4.079  32.483  53.120  1.00  0.00     0.002 A 
HETATM   17  C   UNL     1       3.808  32.282  54.465  1.00  0.00     0.000 A 
HETATM   18  C   UNL     1       3.723  30.985  54.949  1.00  0.00     0.002 A 
HETATM   19  C   UNL     1       3.911  29.896  54.084  1.00  0.00     0.029 A 
ENDBRANCH  12  14
BRANCH   1  20
HETATM   20  C   UNL     1       5.658  25.584  51.298  1.00  0.00     0.230 C 
BRANCH  20  21
HETATM   21  C   UNL     1       5.492  24.797  52.595  1.00  0.00     0.236 C 
HETATM   22  N   UNL     1       6.662  24.281  53.105  1.00  0.00    -0.351 N 
HETATM   23  H   UNL     1       7.508  24.609  52.653  1.00  0.00     0.163 HD
HETATM   24  O   UNL     1       4.408  24.761  53.172  1.00  0.00    -0.272 OA
BRANCH  22  25
HETATM   25  C   UNL     1       6.824  23.824  54.480  1.00  0.00     0.113 C 
HETATM   26  C   UNL     1       7.413  24.858  55.444  1.00  0.00     0.037 C 
BRANCH  25  27
HETATM   27  C   UNL     1       7.529  22.478  54.510  1.00  0.00    -0.036 A 
HETATM   28  C   UNL     1       7.751  21.832  55.737  1.00  0.00     0.009 A 
HETATM   29  C   UNL     1       8.360  20.576  55.786  1.00  0.00     0.001 A 
HETATM   30  C   UNL     1       8.748  19.942  54.609  1.00  0.00     0.000 A 
HETATM   31  C   UNL     1       8.527  20.563  53.382  1.00  0.00     0.001 A 
HETATM   32  C   UNL     1       7.921  21.820  53.332  1.00  0.00     0.009 A 
ENDBRANCH  25  27
ENDBRANCH  22  25
ENDBRANCH  20  21
ENDBRANCH   1  20
BRANCH   8  33
HETATM   33  C   UNL     1       5.364  32.673  47.314  1.00  0.00     0.098 A 
HETATM   34  C   UNL     1       6.264  33.284  48.203  1.00  0.00     0.086 A 
HETATM   35  C   UNL     1       7.373  33.977  47.717  1.00  0.00     0.038 A 
HETATM   36  C   UNL     1       7.573  34.086  46.345  1.00  0.00     0.005 A 
HETATM   37  C   UNL     1       6.688  33.471  45.454  1.00  0.00     0.038 A 
HETATM   38  C   UNL     1       5.584  32.746  45.927  1.00  0.00     0.086 A 
BRANCH  34  39
HETATM   39  O   UNL     1       6.154  33.128  49.560  1.00  0.00    -0.355 OA
HETATM   40  C   UNL     1       5.925  34.378  50.206  1.00  0.00     0.210 C 
ENDBRANCH  34  39
BRANCH  38  41
HETATM   41  O   UNL     1       4.694  32.092  45.118  1.00  0.00    -0.355 OA
HETATM   42  C   UNL     1       3.880  32.879  44.255  1.00  0.00     0.210 C 
ENDBRANCH  38  41
ENDBRANCH   8  33
TORSDOF 8
ENDMDL
MODEL 5
REMARK VINA RESULT:      -8.8      3.436     10.272
REMARK  8 active torsions:
REMARK  status: ('A' for Active; 'I' for Inactive)
REMARK    1  A    between atoms: C_2  and  N_3 
REMARK    2  A    between atoms: C_2  and  C_36 
REMARK       I    between atoms: N_3  and  C_4 
REMARK    3  A    between atoms: C_4  and  C_5 
REMARK    4  A    between atoms: C_5  and  N_6 
REMARK       I    between atoms: N_12  and  C_13 
REMARK    5  A    between atoms: C_13  and  C_14 
REMARK    6  A    between atoms: C_15  and  O_16 
REMARK    7  A    between atoms: C_21  and  O_22 
REMARK    8  A    between atoms: N_27  and  C_28 
ROOT
HETATM    1  N   UNL     1       3.751  28.805  52.811  1.00  0.00    -0.325 N 
HETATM    2  C   UNL     1       3.905  29.089  54.150  1.00  0.00     0.250 C 
HETATM    3  O   UNL     1       3.282  29.937  54.770  1.00  0.00    -0.270 OA
HETATM    4  C   UNL     1       5.094  28.250  54.657  1.00  0.00     0.118 C 
HETATM    5  C   UNL     1       4.736  27.614  56.011  1.00  0.00     0.061 C 
HETATM    6  C   UNL     1       4.962  28.556  57.188  1.00  0.00     0.129 C 
HETATM    7  N   UNL     1       6.228  29.264  57.072  1.00  0.00    -0.348 N 
HETATM    8  C   UNL     1       7.334  28.815  57.803  1.00  0.00     0.259 C 
HETATM    9  O   UNL     1       7.333  27.776  58.457  1.00  0.00    -0.267 OA
HETATM   10  C   UNL     1       6.322  30.111  55.893  1.00  0.00     0.129 C 
HETATM   11  C   UNL     1       6.294  29.229  54.647  1.00  0.00     0.061 C 
HETATM   12  N   UNL     1       5.224  27.237  53.567  1.00  0.00    -0.346 N 
HETATM   13  C   UNL     1       4.493  27.659  52.380  1.00  0.00     0.254 C 
ENDROOT
BRANCH  12  14
HETATM   14  C   UNL     1       6.121  26.185  53.500  1.00  0.00     0.032 A 
HETATM   15  C   UNL     1       6.072  25.074  54.359  1.00  0.00     0.029 A 
HETATM   16  C   UNL     1       6.975  24.004  54.266  1.00  0.00     0.002 A 
HETATM   17  C   UNL     1       7.964  24.009  53.295  1.00  0.00     0.000 A 
HETATM   18  C   UNL     1       8.047  25.083  52.422  1.00  0.00     0.002 A 
HETATM   19  C   UNL     1       7.140  26.149  52.528  1.00  0.00     0.029 A 
ENDBRANCH  12  14
BRANCH   1  20
HETATM   20  C   UNL     1       3.050  29.655  51.865  1.00  0.00     0.230 C 
BRANCH  20  21
HETATM   21  C   UNL     1       2.409  28.940  50.677  1.00  0.00     0.236 C 
HETATM   22  N   UNL     1       3.262  28.709  49.622  1.00  0.00    -0.351 N 
HETATM   23  H   UNL     1       4.240  28.895  49.812  1.00  0.00     0.163 HD
HETATM   24  O   UNL     1       1.261  28.510  50.750  1.00  0.00    -0.272 OA
BRANCH  22  25
HETATM   25  C   UNL     1       3.004  27.745  48.558  1.00  0.00     0.113 C 
HETATM   26  C   UNL     1       4.244  27.267  47.799  1.00  0.00     0.037 C 
BRANCH  25  27
HETATM   27  C   UNL     1       1.880  28.238  47.661  1.00  0.00    -0.036 A 
HETATM   28  C   UNL     1       1.942  29.526  47.105  1.00  0.00     0.009 A 
HETATM   29  C   UNL     1       0.941  29.985  46.247  1.00  0.00     0.001 A 
HETATM   30  C   UNL     1      -0.133  29.161  45.923  1.00  0.00     0.000 A 
HETATM   31  C   UNL     1      -0.207  27.877  46.457  1.00  0.00     0.001 A 
HETATM   32  C   UNL     1       0.792  27.417  47.318  1.00  0.00     0.009 A 
ENDBRANCH  25  27
ENDBRANCH  22  25
ENDBRANCH  20  21
ENDBRANCH   1  20
BRANCH   8  33
HETATM   33  C   UNL     1       8.520  29.701  57.889  1.00  0.00     0.098 A 
HETATM   34  C   UNL     1       8.542  30.677  58.899  1.00  0.00     0.086 A 
HETATM   35  C   UNL     1       9.632  31.539  59.022  1.00  0.00     0.038 A 
HETATM   36  C   UNL     1      10.690  31.448  58.123  1.00  0.00     0.005 A 
HETATM   37  C   UNL     1      10.680  30.471  57.122  1.00  0.00     0.038 A 
HETATM   38  C   UNL     1       9.604  29.579  57.003  1.00  0.00     0.086 A 
BRANCH  34  39
HETATM   39  O   UNL     1       7.564  30.745  59.857  1.00  0.00    -0.355 OA
HETATM   40  C   UNL     1       6.910  32.011  59.839  1.00  0.00     0.210 C 
ENDBRANCH  34  39
BRANCH  38  41
HETATM   41  O   UNL     1       9.540  28.579  56.070  1.00  0.00    -0.355 OA
HETATM   42  C   UNL     1       9.603  28.947  54.697  1.00  0.00     0.210 C 
ENDBRANCH  38  41
ENDBRANCH   8  33
TORSDOF 8
ENDMDL
MODEL 6
REMARK VINA RESULT:      -8.7      4.167      8.910
REMARK  8 active torsions:
REMARK  status: ('A' for Active; 'I' for Inactive)
REMARK    1  A    between atoms: C_2  and  N_3 
REMARK    2  A    between atoms: C_2  and  C_36 
REMARK       I    between atoms: N_3  and  C_4 
REMARK    3  A    between atoms: C_4  and  C_5 
REMARK    4  A    between atoms: C_5  and  N_6 
REMARK       I    between atoms: N_12  and  C_13 
REMARK    5  A    between atoms: C_13  and  C_14 
REMARK    6  A    between atoms: C_15  and  O_16 
REMARK    7  A    between atoms: C_21  and  O_22 
REMARK    8  A    between atoms: N_27  and  C_28 
ROOT
HETATM    1  N   UNL     1       5.379  32.524  62.685  1.00  0.00    -0.325 N 
HETATM    2  C   UNL     1       4.190  32.705  62.012  1.00  0.00     0.250 C 
HETATM    3  O   UNL     1       3.445  31.812  61.639  1.00  0.00    -0.270 OA
HETATM    4  C   UNL     1       4.071  34.210  61.701  1.00  0.00     0.118 C 
HETATM    5  C   UNL     1       2.641  34.688  62.009  1.00  0.00     0.061 C 
HETATM    6  C   UNL     1       1.668  34.424  60.866  1.00  0.00     0.129 C 
HETATM    7  N   UNL     1       2.249  34.770  59.578  1.00  0.00    -0.348 N 
HETATM    8  C   UNL     1       1.913  35.992  58.980  1.00  0.00     0.259 C 
HETATM    9  O   UNL     1       1.239  36.852  59.539  1.00  0.00    -0.267 OA
HETATM   10  C   UNL     1       3.436  34.000  59.241  1.00  0.00     0.129 C 
HETATM   11  C   UNL     1       4.545  34.343  60.233  1.00  0.00     0.061 C 
HETATM   12  N   UNL     1       5.080  34.785  62.641  1.00  0.00    -0.346 N 
HETATM   13  C   UNL     1       5.970  33.745  63.141  1.00  0.00     0.254 C 
ENDROOT
BRANCH  12  14
HETATM   14  C   UNL     1       5.387  36.121  62.829  1.00  0.00     0.032 A 
HETATM   15  C   UNL     1       5.875  36.952  61.806  1.00  0.00     0.029 A 
HETATM   16  C   UNL     1       6.161  38.311  62.006  1.00  0.00     0.002 A 
HETATM   17  C   UNL     1       5.961  38.890  63.250  1.00  0.00     0.000 A 
HETATM   18  C   UNL     1       5.476  38.108  64.287  1.00  0.00     0.002 A 
HETATM   19  C   UNL     1       5.196  36.750  64.075  1.00  0.00     0.029 A 
ENDBRANCH  12  14
BRANCH   1  20
HETATM   20  C   UNL     1       6.077  31.255  62.795  1.00  0.00     0.230 C 
BRANCH  20  21
HETATM   21  C   UNL     1       7.529  31.252  62.323  1.00  0.00     0.236 C 
HETATM   22  N   UNL     1       7.703  30.859  61.015  1.00  0.00    -0.351 N 
HETATM   23  H   UNL     1       6.849  30.769  60.477  1.00  0.00     0.163 HD
HETATM   24  O   UNL     1       8.422  31.694  63.040  1.00  0.00    -0.272 OA
BRANCH  22  25
HETATM   25  C   UNL     1       8.908  31.119  60.237  1.00  0.00     0.113 C 
HETATM   26  C   UNL     1       9.212  32.598  59.982  1.00  0.00     0.037 C 
BRANCH  25  27
HETATM   27  C   UNL     1       8.923  30.258  58.984  1.00  0.00    -0.036 A 
HETATM   28  C   UNL     1       7.789  29.504  58.640  1.00  0.00     0.009 A 
HETATM   29  C   UNL     1       7.765  28.738  57.473  1.00  0.00     0.001 A 
HETATM   30  C   UNL     1       8.871  28.720  56.627  1.00  0.00     0.000 A 
HETATM   31  C   UNL     1      10.000  29.468  56.947  1.00  0.00     0.001 A 
HETATM   32  C   UNL     1      10.027  30.233  58.115  1.00  0.00     0.009 A 
ENDBRANCH  25  27
ENDBRANCH  22  25
ENDBRANCH  20  21
ENDBRANCH   1  20
BRANCH   8  33
HETATM   33  C   UNL     1       2.287  36.200  57.560  1.00  0.00     0.098 A 
HETATM   34  C   UNL     1       1.427  35.694  56.571  1.00  0.00     0.086 A 
HETATM   35  C   UNL     1       1.734  35.861  55.220  1.00  0.00     0.038 A 
HETATM   36  C   UNL     1       2.910  36.506  54.852  1.00  0.00     0.005 A 
HETATM   37  C   UNL     1       3.765  37.021  55.832  1.00  0.00     0.038 A 
HETATM   38  C   UNL     1       3.457  36.888  57.193  1.00  0.00     0.086 A 
BRANCH  34  39
HETATM   39  O   UNL     1       0.218  35.132  56.886  1.00  0.00    -0.355 OA
HETATM   40  C   UNL     1      -0.440  34.638  55.722  1.00  0.00     0.210 C 
ENDBRANCH  34  39
BRANCH  38  41
HETATM   41  O   UNL     1       4.228  37.393  58.205  1.00  0.00    -0.355 OA
HETATM   42  C   UNL     1       4.342  38.808  58.310  1.00  0.00     0.210 C 
ENDBRANCH  38  41
ENDBRANCH   8  33
TORSDOF 8
ENDMDL
MODEL 7
REMARK VINA RESULT:      -8.5      2.127      3.843
REMARK  8 active torsions:
REMARK  status: ('A' for Active; 'I' for Inactive)
REMARK    1  A    between atoms: C_2  and  N_3 
REMARK    2  A    between atoms: C_2  and  C_36 
REMARK       I    between atoms: N_3  and  C_4 
REMARK    3  A    between atoms: C_4  and  C_5 
REMARK    4  A    between atoms: C_5  and  N_6 
REMARK       I    between atoms: N_12  and  C_13 
REMARK    5  A    between atoms: C_13  and  C_14 
REMARK    6  A    between atoms: C_15  and  O_16 
REMARK    7  A    between atoms: C_21  and  O_22 
REMARK    8  A    between atoms: N_27  and  C_28 
ROOT
HETATM    1  N   UNL     1       4.598  29.645  56.396  1.00  0.00    -0.325 N 
HETATM    2  C   UNL     1       4.737  28.629  55.476  1.00  0.00     0.250 C 
HETATM    3  O   UNL     1       3.824  28.112  54.850  1.00  0.00    -0.270 OA
HETATM    4  C   UNL     1       6.212  28.185  55.510  1.00  0.00     0.118 C 
HETATM    5  C   UNL     1       6.728  28.004  54.072  1.00  0.00     0.061 C 
HETATM    6  C   UNL     1       6.383  26.640  53.485  1.00  0.00     0.129 C 
HETATM    7  N   UNL     1       6.617  25.570  54.443  1.00  0.00    -0.348 N 
HETATM    8  C   UNL     1       7.789  24.810  54.348  1.00  0.00     0.259 C 
HETATM    9  O   UNL     1       8.699  25.069  53.566  1.00  0.00    -0.267 OA
HETATM   10  C   UNL     1       5.810  25.672  55.649  1.00  0.00     0.129 C 
HETATM   11  C   UNL     1       6.220  26.928  56.414  1.00  0.00     0.061 C 
HETATM   12  N   UNL     1       6.851  29.344  56.203  1.00  0.00    -0.346 N 
HETATM   13  C   UNL     1       5.847  30.169  56.861  1.00  0.00     0.254 C 
ENDROOT
BRANCH  12  14
HETATM   14  C   UNL     1       8.195  29.518  56.485  1.00  0.00     0.032 A 
HETATM   15  C   UNL     1       9.215  29.292  55.545  1.00  0.00     0.029 A 
HETATM   16  C   UNL     1      10.573  29.493  55.837  1.00  0.00     0.002 A 
HETATM   17  C   UNL     1      10.957  29.938  57.093  1.00  0.00     0.000 A 
HETATM   18  C   UNL     1       9.983  30.178  58.050  1.00  0.00     0.002 A 
HETATM   19  C   UNL     1       8.629  29.970  57.746  1.00  0.00     0.029 A 
ENDBRANCH  12  14
BRANCH   1  20
HETATM   20  C   UNL     1       3.336  30.059  56.983  1.00  0.00     0.230 C 
BRANCH  20  21
HETATM   21  C   UNL     1       3.437  30.927  58.234  1.00  0.00     0.236 C 
HETATM   22  N   UNL     1       4.099  32.119  58.050  1.00  0.00    -0.351 N 
HETATM   23  H   UNL     1       4.304  32.352  57.085  1.00  0.00     0.163 HD
HETATM   24  O   UNL     1       2.850  30.610  59.266  1.00  0.00    -0.272 OA
BRANCH  22  25
HETATM   25  C   UNL     1       4.009  33.254  58.961  1.00  0.00     0.113 C 
HETATM   26  C   UNL     1       3.854  34.620  58.286  1.00  0.00     0.037 C 
BRANCH  25  27
HETATM   27  C   UNL     1       5.126  33.195  59.991  1.00  0.00    -0.036 A 
HETATM   28  C   UNL     1       6.273  32.426  59.734  1.00  0.00     0.009 A 
HETATM   29  C   UNL     1       7.329  32.388  60.647  1.00  0.00     0.001 A 
HETATM   30  C   UNL     1       7.260  33.125  61.826  1.00  0.00     0.000 A 
HETATM   31  C   UNL     1       6.135  33.901  62.092  1.00  0.00     0.001 A 
HETATM   32  C   UNL     1       5.076  33.938  61.182  1.00  0.00     0.009 A 
ENDBRANCH  25  27
ENDBRANCH  22  25
ENDBRANCH  20  21
ENDBRANCH   1  20
BRANCH   8  33
HETATM   33  C   UNL     1       7.877  23.562  55.144  1.00  0.00     0.098 A 
HETATM   34  C   UNL     1       7.520  22.355  54.520  1.00  0.00     0.086 A 
HETATM   35  C   UNL     1       7.582  21.152  55.225  1.00  0.00     0.038 A 
HETATM   36  C   UNL     1       7.974  21.153  56.560  1.00  0.00     0.005 A 
HETATM   37  C   UNL     1       8.341  22.349  57.184  1.00  0.00     0.038 A 
HETATM   38  C   UNL     1       8.312  23.562  56.481  1.00  0.00     0.086 A 
BRANCH  34  39
HETATM   39  O   UNL     1       7.213  22.296  53.186  1.00  0.00    -0.355 OA
HETATM   40  C   UNL     1       7.770  21.133  52.579  1.00  0.00     0.210 C 
ENDBRANCH  34  39
BRANCH  38  41
HETATM   41  O   UNL     1       8.687  24.766  57.015  1.00  0.00    -0.355 OA
HETATM   42  C   UNL     1       8.361  25.017  58.378  1.00  0.00     0.210 C 
ENDBRANCH  38  41
ENDBRANCH   8  33
TORSDOF 8
ENDMDL
MODEL 8
REMARK VINA RESULT:      -8.4      3.264     10.111
REMARK  8 active torsions:
REMARK  status: ('A' for Active; 'I' for Inactive)
REMARK    1  A    between atoms: C_2  and  N_3 
REMARK    2  A    between atoms: C_2  and  C_36 
REMARK       I    between atoms: N_3  and  C_4 
REMARK    3  A    between atoms: C_4  and  C_5 
REMARK    4  A    between atoms: C_5  and  N_6 
REMARK       I    between atoms: N_12  and  C_13 
REMARK    5  A    between atoms: C_13  and  C_14 
REMARK    6  A    between atoms: C_15  and  O_16 
REMARK    7  A    between atoms: C_21  and  O_22 
REMARK    8  A    between atoms: N_27  and  C_28 
ROOT
HETATM    1  N   UNL     1       7.608  31.898  62.118  1.00  0.00    -0.325 N 
HETATM    2  C   UNL     1       6.401  32.152  61.504  1.00  0.00     0.250 C 
HETATM    3  O   UNL     1       6.097  31.809  60.372  1.00  0.00    -0.270 OA
HETATM    4  C   UNL     1       5.593  33.060  62.452  1.00  0.00     0.118 C 
HETATM    5  C   UNL     1       4.141  32.559  62.531  1.00  0.00     0.061 C 
HETATM    6  C   UNL     1       3.274  33.068  61.385  1.00  0.00     0.129 C 
HETATM    7  N   UNL     1       3.504  34.481  61.126  1.00  0.00    -0.348 N 
HETATM    8  C   UNL     1       2.600  35.425  61.629  1.00  0.00     0.259 C 
HETATM    9  O   UNL     1       1.675  35.138  62.383  1.00  0.00    -0.267 OA
HETATM   10  C   UNL     1       4.868  34.793  60.728  1.00  0.00     0.129 C 
HETATM   11  C   UNL     1       5.805  34.489  61.896  1.00  0.00     0.061 C 
HETATM   12  N   UNL     1       6.332  32.873  63.737  1.00  0.00    -0.346 N 
HETATM   13  C   UNL     1       7.638  32.273  63.499  1.00  0.00     0.254 C 
ENDROOT
BRANCH  12  14
HETATM   14  C   UNL     1       6.030  33.430  64.968  1.00  0.00     0.032 A 
HETATM   15  C   UNL     1       4.716  33.663  65.408  1.00  0.00     0.029 A 
HETATM   16  C   UNL     1       4.424  34.208  66.667  1.00  0.00     0.002 A 
HETATM   17  C   UNL     1       5.451  34.535  67.540  1.00  0.00     0.000 A 
HETATM   18  C   UNL     1       6.763  34.318  67.150  1.00  0.00     0.002 A 
HETATM   19  C   UNL     1       7.042  33.775  65.886  1.00  0.00     0.029 A 
ENDBRANCH  12  14
BRANCH   1  20
HETATM   20  C   UNL     1       8.805  31.453  61.426  1.00  0.00     0.230 C 
BRANCH  20  21
HETATM   21  C   UNL     1       8.742  31.481  59.901  1.00  0.00     0.236 C 
HETATM   22  N   UNL     1       8.253  30.329  59.328  1.00  0.00    -0.351 N 
HETATM   23  H   UNL     1       7.851  29.663  59.979  1.00  0.00     0.163 HD
HETATM   24  O   UNL     1       8.994  32.512  59.283  1.00  0.00    -0.272 OA
BRANCH  22  25
HETATM   25  C   UNL     1       7.759  30.242  57.959  1.00  0.00     0.113 C 
HETATM   26  C   UNL     1       6.632  31.219  57.611  1.00  0.00     0.037 C 
BRANCH  25  27
HETATM   27  C   UNL     1       7.460  28.797  57.596  1.00  0.00    -0.036 A 
HETATM   28  C   UNL     1       6.135  28.395  57.360  1.00  0.00     0.009 A 
HETATM   29  C   UNL     1       5.840  27.083  56.986  1.00  0.00     0.001 A 
HETATM   30  C   UNL     1       6.866  26.153  56.833  1.00  0.00     0.000 A 
HETATM   31  C   UNL     1       8.186  26.536  57.053  1.00  0.00     0.001 A 
HETATM   32  C   UNL     1       8.482  27.848  57.431  1.00  0.00     0.009 A 
ENDBRANCH  25  27
ENDBRANCH  22  25
ENDBRANCH  20  21
ENDBRANCH   1  20
BRANCH   8  33
HETATM   33  C   UNL     1       2.694  36.817  61.124  1.00  0.00     0.098 A 
HETATM   34  C   UNL     1       2.007  37.137  59.942  1.00  0.00     0.086 A 
HETATM   35  C   UNL     1       2.064  38.431  59.423  1.00  0.00     0.038 A 
HETATM   36  C   UNL     1       2.827  39.401  60.066  1.00  0.00     0.005 A 
HETATM   37  C   UNL     1       3.505  39.092  61.249  1.00  0.00     0.038 A 
HETATM   38  C   UNL     1       3.434  37.803  61.799  1.00  0.00     0.086 A 
BRANCH  34  39
HETATM   39  O   UNL     1       1.174  36.240  59.326  1.00  0.00    -0.355 OA
HETATM   40  C   UNL     1       1.643  35.913  58.020  1.00  0.00     0.210 C 
ENDBRANCH  34  39
BRANCH  38  41
HETATM   41  O   UNL     1       4.043  37.436  62.969  1.00  0.00    -0.355 OA
HETATM   42  C   UNL     1       5.340  37.961  63.234  1.00  0.00     0.210 C 
ENDBRANCH  38  41
ENDBRANCH   8  33
TORSDOF 8
ENDMDL
MODEL 9
REMARK VINA RESULT:      -8.4      6.024     10.043
REMARK  8 active torsions:
REMARK  status: ('A' for Active; 'I' for Inactive)
REMARK    1  A    between atoms: C_2  and  N_3 
REMARK    2  A    between atoms: C_2  and  C_36 
REMARK       I    between atoms: N_3  and  C_4 
REMARK    3  A    between atoms: C_4  and  C_5 
REMARK    4  A    between atoms: C_5  and  N_6 
REMARK       I    between atoms: N_12  and  C_13 
REMARK    5  A    between atoms: C_13  and  C_14 
REMARK    6  A    between atoms: C_15  and  O_16 
REMARK    7  A    between atoms: C_21  and  O_22 
REMARK    8  A    between atoms: N_27  and  C_28 
ROOT
HETATM    1  N   UNL     1       4.840  26.501  51.397  1.00  0.00    -0.325 N 
HETATM    2  C   UNL     1       4.379  27.162  50.279  1.00  0.00     0.250 C 
HETATM    3  O   UNL     1       4.245  26.669  49.170  1.00  0.00    -0.270 OA
HETATM    4  C   UNL     1       4.217  28.645  50.665  1.00  0.00     0.118 C 
HETATM    5  C   UNL     1       2.880  29.176  50.119  1.00  0.00     0.061 C 
HETATM    6  C   UNL     1       2.967  29.616  48.662  1.00  0.00     0.129 C 
HETATM    7  N   UNL     1       4.173  30.389  48.407  1.00  0.00    -0.348 N 
HETATM    8  C   UNL     1       4.093  31.786  48.352  1.00  0.00     0.259 C 
HETATM    9  O   UNL     1       3.074  32.413  48.624  1.00  0.00    -0.267 OA
HETATM   10  C   UNL     1       5.406  29.655  48.649  1.00  0.00     0.129 C 
HETATM   11  C   UNL     1       5.502  29.328  50.137  1.00  0.00     0.061 C 
HETATM   12  N   UNL     1       4.231  28.563  52.157  1.00  0.00    -0.346 N 
HETATM   13  C   UNL     1       4.746  27.274  52.598  1.00  0.00     0.254 C 
ENDROOT
BRANCH  12  14
HETATM   14  C   UNL     1       4.085  29.604  53.057  1.00  0.00     0.032 A 
HETATM   15  C   UNL     1       3.691  30.900  52.680  1.00  0.00     0.029 A 
HETATM   16  C   UNL     1       3.525  31.941  53.606  1.00  0.00     0.002 A 
HETATM   17  C   UNL     1       3.744  31.714  54.957  1.00  0.00     0.000 A 
HETATM   18  C   UNL     1       4.130  30.449  55.374  1.00  0.00     0.002 A 
HETATM   19  C   UNL     1       4.295  29.418  54.437  1.00  0.00     0.029 A 
ENDBRANCH  12  14
BRANCH   1  20
HETATM   20  C   UNL     1       5.514  25.215  51.373  1.00  0.00     0.230 C 
BRANCH  20  21
HETATM   21  C   UNL     1       6.700  25.067  52.322  1.00  0.00     0.236 C 
HETATM   22  N   UNL     1       6.560  24.071  53.262  1.00  0.00    -0.351 N 
HETATM   23  H   UNL     1       5.766  23.456  53.120  1.00  0.00     0.163 HD
HETATM   24  O   UNL     1       7.728  25.716  52.146  1.00  0.00    -0.272 OA
BRANCH  22  25
HETATM   25  C   UNL     1       7.667  23.499  54.020  1.00  0.00     0.113 C 
HETATM   26  C   UNL     1       7.736  21.970  54.016  1.00  0.00     0.037 C 
BRANCH  25  27
HETATM   27  C   UNL     1       7.734  24.120  55.405  1.00  0.00    -0.036 A 
HETATM   28  C   UNL     1       8.850  23.882  56.225  1.00  0.00     0.009 A 
HETATM   29  C   UNL     1       8.953  24.473  57.485  1.00  0.00     0.001 A 
HETATM   30  C   UNL     1       7.947  25.319  57.944  1.00  0.00     0.000 A 
HETATM   31  C   UNL     1       6.837  25.574  57.142  1.00  0.00     0.001 A 
HETATM   32  C   UNL     1       6.731  24.981  55.882  1.00  0.00     0.009 A 
ENDBRANCH  25  27
ENDBRANCH  22  25
ENDBRANCH  20  21
ENDBRANCH   1  20
BRANCH   8  33
HETATM   33  C   UNL     1       5.260  32.531  47.820  1.00  0.00     0.098 A 
HETATM   34  C   UNL     1       5.353  32.705  46.429  1.00  0.00     0.086 A 
HETATM   35  C   UNL     1       6.432  33.396  45.876  1.00  0.00     0.038 A 
HETATM   36  C   UNL     1       7.433  33.891  46.705  1.00  0.00     0.005 A 
HETATM   37  C   UNL     1       7.342  33.730  48.091  1.00  0.00     0.038 A 
HETATM   38  C   UNL     1       6.249  33.064  48.664  1.00  0.00     0.086 A 
BRANCH  34  39
HETATM   39  O   UNL     1       4.347  32.312  45.584  1.00  0.00    -0.355 OA
HETATM   40  C   UNL     1       3.655  33.437  45.048  1.00  0.00     0.210 C 
ENDBRANCH  34  39
BRANCH  38  41
HETATM   41  O   UNL     1       6.076  32.897  50.012  1.00  0.00    -0.355 OA
HETATM   42  C   UNL     1       5.726  34.042  50.783  1.00  0.00     0.210 C 
ENDBRANCH  38  41
ENDBRANCH   8  33
TORSDOF 8
ENDMDL
MODEL 10
REMARK VINA RESULT:      -8.2      4.113      8.935
REMARK  8 active torsions:
REMARK  status: ('A' for Active; 'I' for Inactive)
REMARK    1  A    between atoms: C_2  and  N_3 
REMARK    2  A    between atoms: C_2  and  C_36 
REMARK       I    between atoms: N_3  and  C_4 
REMARK    3  A    between atoms: C_4  and  C_5 
REMARK    4  A    between atoms: C_5  and  N_6 
REMARK       I    between atoms: N_12  and  C_13 
REMARK    5  A    between atoms: C_13  and  C_14 
REMARK    6  A    between atoms: C_15  and  O_16 
REMARK    7  A    between atoms: C_21  and  O_22 
REMARK    8  A    between atoms: N_27  and  C_28 
ROOT
HETATM    1  N   UNL     1       5.976  33.004  61.958  1.00  0.00    -0.325 N 
HETATM    2  C   UNL     1       4.716  33.018  61.399  1.00  0.00     0.250 C 
HETATM    3  O   UNL     1       4.098  32.034  61.024  1.00  0.00    -0.270 OA
HETATM    4  C   UNL     1       4.321  34.495  61.209  1.00  0.00     0.118 C 
HETATM    5  C   UNL     1       2.867  34.702  61.667  1.00  0.00     0.061 C 
HETATM    6  C   UNL     1       1.849  34.343  60.591  1.00  0.00     0.129 C 
HETATM    7  N   UNL     1       2.242  34.858  59.289  1.00  0.00    -0.348 N 
HETATM    8  C   UNL     1       1.655  36.036  58.811  1.00  0.00     0.259 C 
HETATM    9  O   UNL     1       0.902  36.734  59.485  1.00  0.00    -0.267 OA
HETATM   10  C   UNL     1       3.504  34.323  58.801  1.00  0.00     0.129 C 
HETATM   11  C   UNL     1       4.629  34.793  59.721  1.00  0.00     0.061 C 
HETATM   12  N   UNL     1       5.304  35.179  62.104  1.00  0.00    -0.346 N 
HETATM   13  C   UNL     1       6.396  34.281  62.453  1.00  0.00     0.254 C 
ENDROOT
BRANCH  12  14
HETATM   14  C   UNL     1       5.401  36.535  62.363  1.00  0.00     0.032 A 
HETATM   15  C   UNL     1       5.667  37.059  63.640  1.00  0.00     0.029 A 
HETATM   16  C   UNL     1       5.785  38.435  63.884  1.00  0.00     0.002 A 
HETATM   17  C   UNL     1       5.645  39.343  62.845  1.00  0.00     0.000 A 
HETATM   18  C   UNL     1       5.386  38.870  61.568  1.00  0.00     0.002 A 
HETATM   19  C   UNL     1       5.267  37.491  61.337  1.00  0.00     0.029 A 
ENDBRANCH  12  14
BRANCH   1  20
HETATM   20  C   UNL     1       6.882  31.870  61.918  1.00  0.00     0.230 C 
BRANCH  20  21
HETATM   21  C   UNL     1       7.484  31.548  60.553  1.00  0.00     0.236 C 
HETATM   22  N   UNL     1       6.581  31.080  59.626  1.00  0.00    -0.351 N 
HETATM   23  H   UNL     1       5.608  31.149  59.902  1.00  0.00     0.163 HD
HETATM   24  O   UNL     1       8.656  31.820  60.305  1.00  0.00    -0.272 OA
BRANCH  22  25
HETATM   25  C   UNL     1       6.823  31.054  58.188  1.00  0.00     0.113 C 
HETATM   26  C   UNL     1       5.719  31.682  57.332  1.00  0.00     0.037 C 
BRANCH  25  27
HETATM   27  C   UNL     1       7.233  29.659  57.746  1.00  0.00    -0.036 A 
HETATM   28  C   UNL     1       6.248  28.697  57.466  1.00  0.00     0.009 A 
HETATM   29  C   UNL     1       6.600  27.422  57.019  1.00  0.00     0.001 A 
HETATM   30  C   UNL     1       7.939  27.090  56.838  1.00  0.00     0.000 A 
HETATM   31  C   UNL     1       8.929  28.034  57.101  1.00  0.00     0.001 A 
HETATM   32  C   UNL     1       8.579  29.309  57.551  1.00  0.00     0.009 A 
ENDBRANCH  25  27
ENDBRANCH  22  25
ENDBRANCH  20  21
ENDBRANCH   1  20
BRANCH   8  33
HETATM   33  C   UNL     1       1.856  36.387  57.385  1.00  0.00     0.098 A 
HETATM   34  C   UNL     1       2.889  37.283  57.065  1.00  0.00     0.086 A 
HETATM   35  C   UNL     1       3.119  37.649  55.738  1.00  0.00     0.038 A 
HETATM   36  C   UNL     1       2.303  37.144  54.731  1.00  0.00     0.005 A 
HETATM   37  C   UNL     1       1.279  36.243  55.041  1.00  0.00     0.038 A 
HETATM   38  C   UNL     1       1.054  35.844  56.366  1.00  0.00     0.086 A 
BRANCH  34  39
HETATM   39  O   UNL     1       3.771  37.735  58.013  1.00  0.00    -0.355 OA
HETATM   40  C   UNL     1       5.089  37.844  57.481  1.00  0.00     0.210 C 
ENDBRANCH  34  39
BRANCH  38  41
HETATM   41  O   UNL     1       0.093  34.943  56.740  1.00  0.00    -0.355 OA
HETATM   42  C   UNL     1      -0.609  34.256  55.710  1.00  0.00     0.210 C 
ENDBRANCH  38  41
ENDBRANCH   8  33
TORSDOF 8
ENDMDL
