MODEL 1
REMARK VINA RESULT:      -9.5      0.000      0.000
REMARK  4 active torsions:
REMARK  status: ('A' for Active; 'I' for Inactive)
REMARK    1  A    between atoms: C_3  and  N_4 
REMARK       I    between atoms: N_4  and  C_5 
REMARK       I    between atoms: C_5  and  N_6 
REMARK    2  A    between atoms: N_6  and  C_7 
REMARK    3  A    between atoms: C_18  and  C_19 
REMARK       I    between atoms: C_19  and  N_20 
REMARK    4  A    between atoms: N_20  and  C_21 
ROOT
HETATM    1  C   UNL     1       8.056  28.271  53.985  1.00  0.00     0.050 C 
HETATM    2  C   UNL     1       7.969  28.452  55.477  1.00  0.00    -0.034 A 
HETATM    3  C   UNL     1       7.121  27.714  56.314  1.00  0.00     0.042 A 
HETATM    4  C   UNL     1       7.249  27.835  57.705  1.00  0.00     0.031 A 
HETATM    5  C   UNL     1       8.119  28.772  58.273  1.00  0.00     0.019 A 
HETATM    6  C   UNL     1       8.923  29.560  57.459  1.00  0.00     0.032 A 
HETATM    7  C   UNL     1       8.841  29.392  56.066  1.00  0.00     0.026 A 
ENDROOT
BRANCH   3   8
HETATM    8  N   UNL     1       6.155  26.799  55.864  1.00  0.00    -0.308 N 
HETATM    9  C   UNL     1       6.297  25.523  55.376  1.00  0.00     0.325 C 
HETATM   10  N   UNL     1       7.568  25.036  55.269  1.00  0.00    -0.305 N 
HETATM   11  O   UNL     1       5.273  24.954  55.005  1.00  0.00    -0.247 OA
HETATM   12  H   UNL     1       8.303  25.561  55.711  1.00  0.00     0.171 HD
HETATM   13  H   UNL     1       5.276  27.180  55.535  1.00  0.00     0.170 HD
BRANCH  10  14
HETATM   14  C   UNL     1       7.959  23.846  54.672  1.00  0.00     0.086 A 
HETATM   15  C   UNL     1       8.311  22.561  55.182  1.00  0.00     0.079 A 
HETATM   16  C   UNL     1       8.317  22.042  56.572  1.00  0.00     0.075 C 
HETATM   17  N   UNL     1       8.620  21.710  54.191  1.00  0.00    -0.177 NA
HETATM   18  N   UNL     1       8.459  22.428  53.076  1.00  0.00    -0.280 N 
HETATM   19  H   UNL     1       8.648  21.975  52.189  1.00  0.00     0.189 HD
HETATM   20  C   UNL     1       8.041  23.708  53.299  1.00  0.00     0.052 A 
HETATM   21  C   UNL     1       7.816  24.651  52.178  1.00  0.00     0.072 C 
ENDBRANCH  10  14
ENDBRANCH   3   8
BRANCH   6  22
HETATM   22  C   UNL     1       9.778  30.663  57.957  1.00  0.00     0.252 C 
HETATM   23  N   UNL     1       9.625  31.313  59.149  1.00  0.00    -0.352 N 
HETATM   24  H   UNL     1      10.343  32.027  59.217  1.00  0.00     0.163 HD
HETATM   25  O   UNL     1      10.729  31.006  57.251  1.00  0.00    -0.268 OA
BRANCH  23  26
HETATM   26  C   UNL     1       8.736  31.263  60.297  1.00  0.00     0.084 C 
HETATM   27  C   UNL     1       9.273  30.472  61.488  1.00  0.00     0.025 C 
HETATM   28  C   UNL     1       8.407  30.955  62.641  1.00  0.00     0.002 C 
HETATM   29  C   UNL     1       8.229  32.443  62.366  1.00  0.00     0.002 C 
HETATM   30  C   UNL     1       8.174  32.576  60.844  1.00  0.00     0.025 C 
ENDBRANCH  23  26
ENDBRANCH   6  22
TORSDOF 4
ENDMDL
MODEL 2
REMARK VINA RESULT:      -9.4      2.508      8.894
REMARK  4 active torsions:
REMARK  status: ('A' for Active; 'I' for Inactive)
REMARK    1  A    between atoms: C_3  and  N_4 
REMARK       I    between atoms: N_4  and  C_5 
REMARK       I    between atoms: C_5  and  N_6 
REMARK    2  A    between atoms: N_6  and  C_7 
REMARK    3  A    between atoms: C_18  and  C_19 
REMARK       I    between atoms: C_19  and  N_20 
REMARK    4  A    between atoms: N_20  and  C_21 
ROOT
HETATM    1  C   UNL     1       9.591  30.038  57.195  1.00  0.00     0.050 C 
HETATM    2  C   UNL     1       8.414  29.105  57.299  1.00  0.00    -0.034 A 
HETATM    3  C   UNL     1       7.082  29.525  57.420  1.00  0.00     0.042 A 
HETATM    4  C   UNL     1       6.049  28.581  57.327  1.00  0.00     0.031 A 
HETATM    5  C   UNL     1       6.326  27.212  57.244  1.00  0.00     0.019 A 
HETATM    6  C   UNL     1       7.642  26.769  57.188  1.00  0.00     0.032 A 
HETATM    7  C   UNL     1       8.675  27.722  57.215  1.00  0.00     0.026 A 
ENDROOT
BRANCH   3   8
HETATM    8  N   UNL     1       6.679  30.861  57.584  1.00  0.00    -0.308 N 
HETATM    9  C   UNL     1       6.720  31.674  58.691  1.00  0.00     0.325 C 
HETATM   10  N   UNL     1       7.198  31.127  59.847  1.00  0.00    -0.305 N 
HETATM   11  O   UNL     1       6.252  32.804  58.567  1.00  0.00    -0.247 OA
HETATM   12  H   UNL     1       7.650  30.231  59.781  1.00  0.00     0.171 HD
HETATM   13  H   UNL     1       5.976  31.213  56.945  1.00  0.00     0.170 HD
BRANCH  10  14
HETATM   14  C   UNL     1       7.194  31.705  61.108  1.00  0.00     0.086 A 
HETATM   15  C   UNL     1       6.158  32.163  61.975  1.00  0.00     0.079 A 
HETATM   16  C   UNL     1       4.682  32.115  61.825  1.00  0.00     0.075 C 
HETATM   17  N   UNL     1       6.659  32.653  63.120  1.00  0.00    -0.177 NA
HETATM   18  N   UNL     1       7.980  32.502  62.994  1.00  0.00    -0.280 N 
HETATM   19  H   UNL     1       8.568  32.817  63.757  1.00  0.00     0.189 HD
HETATM   20  C   UNL     1       8.361  31.918  61.820  1.00  0.00     0.052 A 
HETATM   21  C   UNL     1       9.788  31.677  61.507  1.00  0.00     0.072 C 
ENDBRANCH  10  14
ENDBRANCH   3   8
BRANCH   6  22
HETATM   22  C   UNL     1       8.038  25.341  57.227  1.00  0.00     0.252 C 
HETATM   23  N   UNL     1       7.858  24.438  56.218  1.00  0.00    -0.352 N 
HETATM   24  H   UNL     1       8.212  23.539  56.529  1.00  0.00     0.163 HD
HETATM   25  O   UNL     1       8.607  24.938  58.244  1.00  0.00    -0.268 OA
BRANCH  23  26
HETATM   26  C   UNL     1       7.308  24.420  54.874  1.00  0.00     0.084 C 
HETATM   27  C   UNL     1       7.649  25.642  54.025  1.00  0.00     0.025 C 
HETATM   28  C   UNL     1       7.367  25.168  52.609  1.00  0.00     0.002 C 
HETATM   29  C   UNL     1       7.848  23.723  52.604  1.00  0.00     0.002 C 
HETATM   30  C   UNL     1       7.547  23.185  54.003  1.00  0.00     0.025 C 
ENDBRANCH  23  26
ENDBRANCH   6  22
TORSDOF 4
ENDMDL
MODEL 3
REMARK VINA RESULT:      -9.4      2.326      3.100
REMARK  4 active torsions:
REMARK  status: ('A' for Active; 'I' for Inactive)
REMARK    1  A    between atoms: C_3  and  N_4 
REMARK       I    between atoms: N_4  and  C_5 
REMARK       I    between atoms: C_5  and  N_6 
REMARK    2  A    between atoms: N_6  and  C_7 
REMARK    3  A    between atoms: C_18  and  C_19 
REMARK       I    between atoms: C_19  and  N_20 
REMARK    4  A    between atoms: N_20  and  C_21 
ROOT
HETATM    1  C   UNL     1       5.148  29.387  57.382  1.00  0.00     0.050 C 
HETATM    2  C   UNL     1       6.623  29.093  57.455  1.00  0.00    -0.034 A 
HETATM    3  C   UNL     1       7.197  27.854  57.139  1.00  0.00     0.042 A 
HETATM    4  C   UNL     1       8.593  27.740  57.065  1.00  0.00     0.031 A 
HETATM    5  C   UNL     1       9.426  28.805  57.425  1.00  0.00     0.019 A 
HETATM    6  C   UNL     1       8.876  30.023  57.804  1.00  0.00     0.032 A 
HETATM    7  C   UNL     1       7.477  30.156  57.814  1.00  0.00     0.026 A 
ENDROOT
BRANCH   3   8
HETATM    8  N   UNL     1       6.470  26.692  56.833  1.00  0.00    -0.308 N 
HETATM    9  C   UNL     1       6.059  26.192  55.622  1.00  0.00     0.325 C 
HETATM   10  N   UNL     1       6.364  26.925  54.510  1.00  0.00    -0.305 N 
HETATM   11  O   UNL     1       5.386  25.164  55.645  1.00  0.00    -0.247 OA
HETATM   12  H   UNL     1       7.012  27.685  54.622  1.00  0.00     0.171 HD
HETATM   13  H   UNL     1       5.877  26.314  57.562  1.00  0.00     0.170 HD
BRANCH  10  14
HETATM   14  C   UNL     1       5.928  26.695  53.213  1.00  0.00     0.086 A 
HETATM   15  C   UNL     1       6.439  25.924  52.128  1.00  0.00     0.079 A 
HETATM   16  C   UNL     1       7.624  25.033  52.050  1.00  0.00     0.075 C 
HETATM   17  N   UNL     1       5.645  26.012  51.049  1.00  0.00    -0.177 NA
HETATM   18  N   UNL     1       4.647  26.809  51.437  1.00  0.00    -0.280 N 
HETATM   19  H   UNL     1       3.920  27.021  50.763  1.00  0.00     0.189 HD
HETATM   20  C   UNL     1       4.748  27.232  52.731  1.00  0.00     0.052 A 
HETATM   21  C   UNL     1       3.732  28.128  53.331  1.00  0.00     0.072 C 
ENDBRANCH  10  14
ENDBRANCH   3   8
BRANCH   6  22
HETATM   22  C   UNL     1       9.667  31.164  58.323  1.00  0.00     0.252 C 
HETATM   23  N   UNL     1       9.464  31.796  59.517  1.00  0.00    -0.352 N 
HETATM   24  H   UNL     1      10.144  32.544  59.601  1.00  0.00     0.163 HD
HETATM   25  O   UNL     1      10.609  31.561  57.633  1.00  0.00    -0.268 OA
BRANCH  23  26
HETATM   26  C   UNL     1       8.563  31.690  60.652  1.00  0.00     0.084 C 
HETATM   27  C   UNL     1       9.228  31.859  62.016  1.00  0.00     0.025 C 
HETATM   28  C   UNL     1       8.056  32.161  62.936  1.00  0.00     0.002 C 
HETATM   29  C   UNL     1       7.150  33.051  62.095  1.00  0.00     0.002 C 
HETATM   30  C   UNL     1       7.295  32.545  60.659  1.00  0.00     0.025 C 
ENDBRANCH  23  26
ENDBRANCH   6  22
TORSDOF 4
ENDMDL
MODEL 4
REMARK VINA RESULT:      -9.0      2.439      9.135
REMARK  4 active torsions:
REMARK  status: ('A' for Active; 'I' for Inactive)
REMARK    1  A    between atoms: C_3  and  N_4 
REMARK       I    between atoms: N_4  and  C_5 
REMARK       I    between atoms: C_5  and  N_6 
REMARK    2  A    between atoms: N_6  and  C_7 
REMARK    3  A    between atoms: C_18  and  C_19 
REMARK       I    between atoms: C_19  and  N_20 
REMARK    4  A    between atoms: N_20  and  C_21 
ROOT
HETATM    1  C   UNL     1       5.347  30.741  56.860  1.00  0.00     0.050 C 
HETATM    2  C   UNL     1       6.102  29.459  57.096  1.00  0.00    -0.034 A 
HETATM    3  C   UNL     1       7.388  29.391  57.652  1.00  0.00     0.042 A 
HETATM    4  C   UNL     1       7.925  28.143  57.996  1.00  0.00     0.031 A 
HETATM    5  C   UNL     1       7.257  26.955  57.678  1.00  0.00     0.019 A 
HETATM    6  C   UNL     1       6.010  26.999  57.068  1.00  0.00     0.032 A 
HETATM    7  C   UNL     1       5.442  28.253  56.784  1.00  0.00     0.026 A 
ENDROOT
BRANCH   3   8
HETATM    8  N   UNL     1       8.189  30.507  57.947  1.00  0.00    -0.308 N 
HETATM    9  C   UNL     1       8.091  31.431  58.958  1.00  0.00     0.325 C 
HETATM   10  N   UNL     1       7.044  31.296  59.825  1.00  0.00    -0.305 N 
HETATM   11  O   UNL     1       8.911  32.346  58.955  1.00  0.00    -0.247 OA
HETATM   12  H   UNL     1       6.516  30.442  59.781  1.00  0.00     0.171 HD
HETATM   13  H   UNL     1       8.715  30.913  57.182  1.00  0.00     0.170 HD
BRANCH  10  14
HETATM   14  C   UNL     1       6.665  32.185  60.820  1.00  0.00     0.086 A 
HETATM   15  C   UNL     1       7.220  32.538  62.086  1.00  0.00     0.079 A 
HETATM   16  C   UNL     1       8.471  32.092  62.749  1.00  0.00     0.075 C 
HETATM   17  N   UNL     1       6.479  33.473  62.701  1.00  0.00    -0.177 NA
HETATM   18  N   UNL     1       5.482  33.719  61.848  1.00  0.00    -0.280 N 
HETATM   19  H   UNL     1       4.785  34.404  62.118  1.00  0.00     0.189 HD
HETATM   20  C   UNL     1       5.551  32.995  60.692  1.00  0.00     0.052 A 
HETATM   21  C   UNL     1       4.525  33.135  59.633  1.00  0.00     0.072 C 
ENDBRANCH  10  14
ENDBRANCH   3   8
BRANCH   6  22
HETATM   22  C   UNL     1       5.284  25.802  56.580  1.00  0.00     0.252 C 
HETATM   23  N   UNL     1       5.338  25.303  55.309  1.00  0.00    -0.352 N 
HETATM   24  H   UNL     1       4.732  24.490  55.261  1.00  0.00     0.163 HD
HETATM   25  O   UNL     1       4.594  25.185  57.395  1.00  0.00    -0.268 OA
BRANCH  23  26
HETATM   26  C   UNL     1       5.998  25.618  54.055  1.00  0.00     0.084 C 
HETATM   27  C   UNL     1       7.523  25.669  54.129  1.00  0.00     0.025 C 
HETATM   28  C   UNL     1       7.943  25.552  52.672  1.00  0.00     0.002 C 
HETATM   29  C   UNL     1       6.956  24.552  52.085  1.00  0.00     0.002 C 
HETATM   30  C   UNL     1       5.634  24.805  52.812  1.00  0.00     0.025 C 
ENDBRANCH  23  26
ENDBRANCH   6  22
TORSDOF 4
ENDMDL
MODEL 5
REMARK VINA RESULT:      -8.8      3.028      9.135
REMARK  4 active torsions:
REMARK  status: ('A' for Active; 'I' for Inactive)
REMARK    1  A    between atoms: C_3  and  N_4 
REMARK       I    between atoms: N_4  and  C_5 
REMARK       I    between atoms: C_5  and  N_6 
REMARK    2  A    between atoms: N_6  and  C_7 
REMARK    3  A    between atoms: C_18  and  C_19 
REMARK       I    between atoms: C_19  and  N_20 
REMARK    4  A    between atoms: N_20  and  C_21 
ROOT
HETATM    1  C   UNL     1       9.300  30.735  58.259  1.00  0.00     0.050 C 
HETATM    2  C   UNL     1       8.108  29.858  57.977  1.00  0.00    -0.034 A 
HETATM    3  C   UNL     1       6.793  30.329  57.852  1.00  0.00     0.042 A 
HETATM    4  C   UNL     1       5.788  29.457  57.410  1.00  0.00     0.031 A 
HETATM    5  C   UNL     1       6.045  28.096  57.214  1.00  0.00     0.019 A 
HETATM    6  C   UNL     1       7.329  27.595  57.396  1.00  0.00     0.032 A 
HETATM    7  C   UNL     1       8.350  28.483  57.775  1.00  0.00     0.026 A 
ENDROOT
BRANCH   3   8
HETATM    8  N   UNL     1       6.394  31.654  58.094  1.00  0.00    -0.308 N 
HETATM    9  C   UNL     1       6.164  32.312  59.276  1.00  0.00     0.325 C 
HETATM   10  N   UNL     1       6.310  31.592  60.428  1.00  0.00    -0.305 N 
HETATM   11  O   UNL     1       5.772  33.475  59.197  1.00  0.00    -0.247 OA
HETATM   12  H   UNL     1       6.741  30.687  60.355  1.00  0.00     0.171 HD
HETATM   13  H   UNL     1       5.892  32.127  57.352  1.00  0.00     0.170 HD
BRANCH  10  14
HETATM   14  C   UNL     1       5.989  32.002  61.714  1.00  0.00     0.086 A 
HETATM   15  C   UNL     1       6.769  32.354  62.855  1.00  0.00     0.079 A 
HETATM   16  C   UNL     1       8.240  32.458  63.024  1.00  0.00     0.075 C 
HETATM   17  N   UNL     1       5.990  32.694  63.894  1.00  0.00    -0.177 NA
HETATM   18  N   UNL     1       4.746  32.573  63.427  1.00  0.00    -0.280 N 
HETATM   19  H   UNL     1       3.980  32.780  64.059  1.00  0.00     0.189 HD
HETATM   20  C   UNL     1       4.680  32.184  62.120  1.00  0.00     0.052 A 
HETATM   21  C   UNL     1       3.379  31.993  61.437  1.00  0.00     0.072 C 
ENDBRANCH  10  14
ENDBRANCH   3   8
BRANCH   6  22
HETATM   22  C   UNL     1       7.673  26.155  57.337  1.00  0.00     0.252 C 
HETATM   23  N   UNL     1       7.600  25.364  56.225  1.00  0.00    -0.352 N 
HETATM   24  H   UNL     1       7.883  24.425  56.484  1.00  0.00     0.163 HD
HETATM   25  O   UNL     1       8.091  25.629  58.372  1.00  0.00    -0.268 OA
BRANCH  23  26
HETATM   26  C   UNL     1       7.231  25.503  54.827  1.00  0.00     0.084 C 
HETATM   27  C   UNL     1       7.879  24.486  53.890  1.00  0.00     0.025 C 
HETATM   28  C   UNL     1       7.004  24.555  52.648  1.00  0.00     0.002 C 
HETATM   29  C   UNL     1       5.595  24.719  53.202  1.00  0.00     0.002 C 
HETATM   30  C   UNL     1       5.746  25.566  54.467  1.00  0.00     0.025 C 
ENDBRANCH  23  26
ENDBRANCH   6  22
TORSDOF 4
ENDMDL
MODEL 6
REMARK VINA RESULT:      -8.8      4.599      8.118
REMARK  4 active torsions:
REMARK  status: ('A' for Active; 'I' for Inactive)
REMARK    1  A    between atoms: C_3  and  N_4 
REMARK       I    between atoms: N_4  and  C_5 
REMARK       I    between atoms: C_5  and  N_6 
REMARK    2  A    between atoms: N_6  and  C_7 
REMARK    3  A    between atoms: C_18  and  C_19 
REMARK       I    between atoms: C_19  and  N_20 
REMARK    4  A    between atoms: N_20  and  C_21 
ROOT
HETATM    1  C   UNL     1       5.865  29.052  55.051  1.00  0.00     0.050 C 
HETATM    2  C   UNL     1       5.771  27.574  54.779  1.00  0.00    -0.034 A 
HETATM    3  C   UNL     1       4.876  26.994  53.869  1.00  0.00     0.042 A 
HETATM    4  C   UNL     1       4.995  25.632  53.558  1.00  0.00     0.031 A 
HETATM    5  C   UNL     1       5.907  24.813  54.233  1.00  0.00     0.019 A 
HETATM    6  C   UNL     1       6.760  25.356  55.185  1.00  0.00     0.032 A 
HETATM    7  C   UNL     1       6.685  26.735  55.449  1.00  0.00     0.026 A 
ENDROOT
BRANCH   3   8
HETATM    8  N   UNL     1       3.868  27.693  53.185  1.00  0.00    -0.308 N 
HETATM    9  C   UNL     1       3.665  27.872  51.839  1.00  0.00     0.325 C 
HETATM   10  N   UNL     1       4.583  27.318  50.993  1.00  0.00    -0.305 N 
HETATM   11  O   UNL     1       2.715  28.579  51.510  1.00  0.00    -0.247 OA
HETATM   12  H   UNL     1       5.246  26.674  51.388  1.00  0.00     0.171 HD
HETATM   13  H   UNL     1       3.399  28.437  53.689  1.00  0.00     0.170 HD
BRANCH  10  14
HETATM   14  C   UNL     1       4.664  27.493  49.619  1.00  0.00     0.086 A 
HETATM   15  C   UNL     1       4.218  26.723  48.503  1.00  0.00     0.079 A 
HETATM   16  C   UNL     1       3.440  25.461  48.451  1.00  0.00     0.075 C 
HETATM   17  N   UNL     1       4.533  27.318  47.342  1.00  0.00    -0.177 NA
HETATM   18  N   UNL     1       5.152  28.444  47.704  1.00  0.00    -0.280 N 
HETATM   19  H   UNL     1       5.488  29.058  46.970  1.00  0.00     0.189 HD
HETATM   20  C   UNL     1       5.241  28.616  49.056  1.00  0.00     0.052 A 
HETATM   21  C   UNL     1       5.902  29.807  49.639  1.00  0.00     0.072 C 
ENDBRANCH  10  14
ENDBRANCH   3   8
BRANCH   6  22
HETATM   22  C   UNL     1       7.667  24.553  56.040  1.00  0.00     0.252 C 
HETATM   23  N   UNL     1       8.006  23.246  55.832  1.00  0.00    -0.352 N 
HETATM   24  H   UNL     1       8.629  22.957  56.579  1.00  0.00     0.163 HD
HETATM   25  O   UNL     1       8.186  25.120  57.004  1.00  0.00    -0.268 OA
BRANCH  23  26
HETATM   26  C   UNL     1       7.716  22.198  54.869  1.00  0.00     0.084 C 
HETATM   27  C   UNL     1       8.410  22.359  53.519  1.00  0.00     0.025 C 
HETATM   28  C   UNL     1       8.316  20.967  52.914  1.00  0.00     0.002 C 
HETATM   29  C   UNL     1       8.537  20.037  54.100  1.00  0.00     0.002 C 
HETATM   30  C   UNL     1       7.898  20.741  55.298  1.00  0.00     0.025 C 
ENDBRANCH  23  26
ENDBRANCH   6  22
TORSDOF 4
ENDMDL
MODEL 7
REMARK VINA RESULT:      -8.6      5.103      8.484
REMARK  4 active torsions:
REMARK  status: ('A' for Active; 'I' for Inactive)
REMARK    1  A    between atoms: C_3  and  N_4 
REMARK       I    between atoms: N_4  and  C_5 
REMARK       I    between atoms: C_5  and  N_6 
REMARK    2  A    between atoms: N_6  and  C_7 
REMARK    3  A    between atoms: C_18  and  C_19 
REMARK       I    between atoms: C_19  and  N_20 
REMARK    4  A    between atoms: N_20  and  C_21 
ROOT
HETATM    1  C   UNL     1       4.575  24.239  52.164  1.00  0.00     0.050 C 
HETATM    2  C   UNL     1       5.640  24.982  52.926  1.00  0.00    -0.034 A 
HETATM    3  C   UNL     1       6.314  26.112  52.443  1.00  0.00     0.042 A 
HETATM    4  C   UNL     1       7.155  26.834  53.302  1.00  0.00     0.031 A 
HETATM    5  C   UNL     1       7.434  26.375  54.594  1.00  0.00     0.019 A 
HETATM    6  C   UNL     1       6.826  25.221  55.071  1.00  0.00     0.032 A 
HETATM    7  C   UNL     1       5.932  24.534  54.231  1.00  0.00     0.026 A 
ENDROOT
BRANCH   3   8
HETATM    8  N   UNL     1       6.177  26.627  51.143  1.00  0.00    -0.308 N 
HETATM    9  C   UNL     1       5.331  27.591  50.652  1.00  0.00     0.325 C 
HETATM   10  N   UNL     1       4.445  28.147  51.530  1.00  0.00    -0.305 N 
HETATM   11  O   UNL     1       5.391  27.820  49.446  1.00  0.00    -0.247 OA
HETATM   12  H   UNL     1       4.578  27.950  52.507  1.00  0.00     0.171 HD
HETATM   13  H   UNL     1       6.480  26.036  50.378  1.00  0.00     0.170 HD
BRANCH  10  14
HETATM   14  C   UNL     1       3.409  29.020  51.231  1.00  0.00     0.086 A 
HETATM   15  C   UNL     1       2.401  29.038  50.222  1.00  0.00     0.079 A 
HETATM   16  C   UNL     1       2.085  28.054  49.156  1.00  0.00     0.075 C 
HETATM   17  N   UNL     1       1.604  30.111  50.346  1.00  0.00    -0.177 NA
HETATM   18  N   UNL     1       2.083  30.757  51.412  1.00  0.00    -0.280 N 
HETATM   19  H   UNL     1       1.626  31.618  51.689  1.00  0.00     0.189 HD
HETATM   20  C   UNL     1       3.150  30.140  51.999  1.00  0.00     0.052 A 
HETATM   21  C   UNL     1       3.814  30.718  53.191  1.00  0.00     0.072 C 
ENDBRANCH  10  14
ENDBRANCH   3   8
BRANCH   6  22
HETATM   22  C   UNL     1       7.153  24.588  56.371  1.00  0.00     0.252 C 
HETATM   23  N   UNL     1       7.807  23.401  56.536  1.00  0.00    -0.352 N 
HETATM   24  H   UNL     1       7.879  23.212  57.530  1.00  0.00     0.163 HD
HETATM   25  O   UNL     1       6.834  25.198  57.394  1.00  0.00    -0.268 OA
BRANCH  23  26
HETATM   26  C   UNL     1       8.398  22.371  55.699  1.00  0.00     0.084 C 
HETATM   27  C   UNL     1       7.553  21.109  55.542  1.00  0.00     0.025 C 
HETATM   28  C   UNL     1       8.152  20.443  54.313  1.00  0.00     0.002 C 
HETATM   29  C   UNL     1       8.477  21.608  53.387  1.00  0.00     0.002 C 
HETATM   30  C   UNL     1       8.894  22.759  54.305  1.00  0.00     0.025 C 
ENDBRANCH  23  26
ENDBRANCH   6  22
TORSDOF 4
ENDMDL
MODEL 8
REMARK VINA RESULT:      -8.5      4.646      8.193
REMARK  4 active torsions:
REMARK  status: ('A' for Active; 'I' for Inactive)
REMARK    1  A    between atoms: C_3  and  N_4 
REMARK       I    between atoms: N_4  and  C_5 
REMARK       I    between atoms: C_5  and  N_6 
REMARK    2  A    between atoms: N_6  and  C_7 
REMARK    3  A    between atoms: C_18  and  C_19 
REMARK       I    between atoms: C_19  and  N_20 
REMARK    4  A    between atoms: N_20  and  C_21 
ROOT
HETATM    1  C   UNL     1       4.143  29.700  54.357  1.00  0.00     0.050 C 
HETATM    2  C   UNL     1       4.636  28.796  53.258  1.00  0.00    -0.034 A 
HETATM    3  C   UNL     1       4.792  27.409  53.387  1.00  0.00     0.042 A 
HETATM    4  C   UNL     1       5.083  26.639  52.252  1.00  0.00     0.031 A 
HETATM    5  C   UNL     1       5.347  27.242  51.017  1.00  0.00     0.019 A 
HETATM    6  C   UNL     1       5.261  28.622  50.882  1.00  0.00     0.032 A 
HETATM    7  C   UNL     1       4.904  29.388  52.006  1.00  0.00     0.026 A 
ENDROOT
BRANCH   3   8
HETATM    8  N   UNL     1       4.629  26.696  54.587  1.00  0.00    -0.308 N 
HETATM    9  C   UNL     1       5.488  25.849  55.242  1.00  0.00     0.325 C 
HETATM   10  N   UNL     1       6.698  25.613  54.655  1.00  0.00    -0.305 N 
HETATM   11  O   UNL     1       5.067  25.315  56.266  1.00  0.00    -0.247 OA
HETATM   12  H   UNL     1       6.957  26.199  53.880  1.00  0.00     0.171 HD
HETATM   13  H   UNL     1       3.680  26.488  54.875  1.00  0.00     0.170 HD
BRANCH  10  14
HETATM   14  C   UNL     1       7.654  24.690  55.054  1.00  0.00     0.086 A 
HETATM   15  C   UNL     1       8.401  24.507  56.255  1.00  0.00     0.079 A 
HETATM   16  C   UNL     1       8.352  25.242  57.544  1.00  0.00     0.075 C 
HETATM   17  N   UNL     1       9.220  23.448  56.165  1.00  0.00    -0.177 NA
HETATM   18  N   UNL     1       8.996  22.960  54.943  1.00  0.00    -0.280 N 
HETATM   19  H   UNL     1       9.524  22.143  54.654  1.00  0.00     0.189 HD
HETATM   20  C   UNL     1       8.051  23.647  54.237  1.00  0.00     0.052 A 
HETATM   21  C   UNL     1       7.677  23.250  52.860  1.00  0.00     0.072 C 
ENDBRANCH  10  14
ENDBRANCH   3   8
BRANCH   6  22
HETATM   22  C   UNL     1       5.644  29.361  49.656  1.00  0.00     0.252 C 
HETATM   23  N   UNL     1       5.186  29.101  48.395  1.00  0.00    -0.352 N 
HETATM   24  H   UNL     1       5.626  29.754  47.756  1.00  0.00     0.163 HD
HETATM   25  O   UNL     1       6.419  30.311  49.785  1.00  0.00    -0.268 OA
BRANCH  23  26
HETATM   26  C   UNL     1       4.278  28.169  47.750  1.00  0.00     0.084 C 
HETATM   27  C   UNL     1       4.776  26.727  47.687  1.00  0.00     0.025 C 
HETATM   28  C   UNL     1       3.508  25.935  47.411  1.00  0.00     0.002 C 
HETATM   29  C   UNL     1       2.447  26.640  48.245  1.00  0.00     0.002 C 
HETATM   30  C   UNL     1       2.823  28.123  48.219  1.00  0.00     0.025 C 
ENDBRANCH  23  26
ENDBRANCH   6  22
TORSDOF 4
ENDMDL
MODEL 9
REMARK VINA RESULT:      -8.5      4.384     10.465
REMARK  4 active torsions:
REMARK  status: ('A' for Active; 'I' for Inactive)
REMARK    1  A    between atoms: C_3  and  N_4 
REMARK       I    between atoms: N_4  and  C_5 
REMARK       I    between atoms: C_5  and  N_6 
REMARK    2  A    between atoms: N_6  and  C_7 
REMARK    3  A    between atoms: C_18  and  C_19 
REMARK       I    between atoms: C_19  and  N_20 
REMARK    4  A    between atoms: N_20  and  C_21 
ROOT
HETATM    1  C   UNL     1       7.892  31.535  62.923  1.00  0.00     0.050 C 
HETATM    2  C   UNL     1       7.582  31.574  61.449  1.00  0.00    -0.034 A 
HETATM    3  C   UNL     1       6.307  31.808  60.916  1.00  0.00     0.042 A 
HETATM    4  C   UNL     1       6.162  32.004  59.535  1.00  0.00     0.031 A 
HETATM    5  C   UNL     1       7.246  31.844  58.664  1.00  0.00     0.019 A 
HETATM    6  C   UNL     1       8.506  31.547  59.167  1.00  0.00     0.032 A 
HETATM    7  C   UNL     1       8.664  31.416  60.558  1.00  0.00     0.026 A 
ENDROOT
BRANCH   3   8
HETATM    8  N   UNL     1       5.132  31.915  61.678  1.00  0.00    -0.308 N 
HETATM    9  C   UNL     1       4.684  32.931  62.486  1.00  0.00     0.325 C 
HETATM   10  N   UNL     1       5.494  34.022  62.620  1.00  0.00    -0.305 N 
HETATM   11  O   UNL     1       3.625  32.741  63.081  1.00  0.00    -0.247 OA
HETATM   12  H   UNL     1       6.276  34.097  61.993  1.00  0.00     0.171 HD
HETATM   13  H   UNL     1       4.684  31.051  61.959  1.00  0.00     0.170 HD
BRANCH  10  14
HETATM   14  C   UNL     1       5.319  35.090  63.489  1.00  0.00     0.086 A 
HETATM   15  C   UNL     1       4.710  36.373  63.358  1.00  0.00     0.079 A 
HETATM   16  C   UNL     1       3.983  36.984  62.217  1.00  0.00     0.075 C 
HETATM   17  N   UNL     1       4.787  37.070  64.502  1.00  0.00    -0.177 NA
HETATM   18  N   UNL     1       5.418  36.250  65.346  1.00  0.00    -0.280 N 
HETATM   19  H   UNL     1       5.592  36.582  66.289  1.00  0.00     0.189 HD
HETATM   20  C   UNL     1       5.742  35.040  64.805  1.00  0.00     0.052 A 
HETATM   21  C   UNL     1       6.451  34.007  65.595  1.00  0.00     0.072 C 
ENDBRANCH  10  14
ENDBRANCH   3   8
BRANCH   6  22
HETATM   22  C   UNL     1       9.683  31.234  58.321  1.00  0.00     0.252 C 
HETATM   23  N   UNL     1       9.788  30.175  57.465  1.00  0.00    -0.352 N 
HETATM   24  H   UNL     1      10.705  30.205  57.032  1.00  0.00     0.163 HD
HETATM   25  O   UNL     1      10.639  32.011  58.371  1.00  0.00    -0.268 OA
BRANCH  23  26
HETATM   26  C   UNL     1       8.971  29.054  57.032  1.00  0.00     0.084 C 
HETATM   27  C   UNL     1       8.089  28.446  58.120  1.00  0.00     0.025 C 
HETATM   28  C   UNL     1       7.058  27.658  57.328  1.00  0.00     0.002 C 
HETATM   29  C   UNL     1       6.773  28.540  56.119  1.00  0.00     0.002 C 
HETATM   30  C   UNL     1       8.100  29.223  55.787  1.00  0.00     0.025 C 
ENDBRANCH  23  26
ENDBRANCH   6  22
TORSDOF 4
ENDMDL
MODEL 10
REMARK VINA RESULT:      -8.5      3.450      8.003
REMARK  4 active torsions:
REMARK  status: ('A' for Active; 'I' for Inactive)
REMARK    1  A    between atoms: C_3  and  N_4 
REMARK       I    between atoms: N_4  and  C_5 
REMARK       I    between atoms: C_5  and  N_6 
REMARK    2  A    between atoms: N_6  and  C_7 
REMARK    3  A    between atoms: C_18  and  C_19 
REMARK       I    between atoms: C_19  and  N_20 
REMARK    4  A    between atoms: N_20  and  C_21 
ROOT
HETATM    1  C   UNL     1       7.505  29.090  57.639  1.00  0.00     0.050 C 
HETATM    2  C   UNL     1       6.919  27.721  57.419  1.00  0.00    -0.034 A 
HETATM    3  C   UNL     1       5.557  27.471  57.198  1.00  0.00     0.042 A 
HETATM    4  C   UNL     1       5.144  26.184  56.824  1.00  0.00     0.031 A 
HETATM    5  C   UNL     1       6.046  25.116  56.792  1.00  0.00     0.019 A 
HETATM    6  C   UNL     1       7.390  25.329  57.071  1.00  0.00     0.032 A 
HETATM    7  C   UNL     1       7.815  26.632  57.381  1.00  0.00     0.026 A 
ENDROOT
BRANCH   3   8
HETATM    8  N   UNL     1       4.545  28.442  57.275  1.00  0.00    -0.308 N 
HETATM    9  C   UNL     1       4.037  29.276  56.309  1.00  0.00     0.325 C 
HETATM   10  N   UNL     1       4.595  29.200  55.065  1.00  0.00    -0.305 N 
HETATM   11  O   UNL     1       3.173  30.075  56.665  1.00  0.00    -0.247 OA
HETATM   12  H   UNL     1       5.213  28.429  54.883  1.00  0.00     0.171 HD
HETATM   13  H   UNL     1       4.360  28.844  58.186  1.00  0.00     0.170 HD
BRANCH  10  14
HETATM   14  C   UNL     1       4.347  30.038  53.987  1.00  0.00     0.086 A 
HETATM   15  C   UNL     1       4.289  31.455  53.838  1.00  0.00     0.079 A 
HETATM   16  C   UNL     1       4.543  32.540  54.818  1.00  0.00     0.075 C 
HETATM   17  N   UNL     1       4.015  31.803  52.570  1.00  0.00    -0.177 NA
HETATM   18  N   UNL     1       3.912  30.639  51.924  1.00  0.00    -0.280 N 
HETATM   19  H   UNL     1       3.698  30.665  50.932  1.00  0.00     0.189 HD
HETATM   20  C   UNL     1       4.124  29.546  52.714  1.00  0.00     0.052 A 
HETATM   21  C   UNL     1       4.044  28.172  52.166  1.00  0.00     0.072 C 
ENDBRANCH  10  14
ENDBRANCH   3   8
BRANCH   6  22
HETATM   22  C   UNL     1       8.395  24.245  57.187  1.00  0.00     0.252 C 
HETATM   23  N   UNL     1       8.495  23.162  56.360  1.00  0.00    -0.352 N 
HETATM   24  H   UNL     1       9.263  22.584  56.686  1.00  0.00     0.163 HD
HETATM   25  O   UNL     1       9.232  24.342  58.087  1.00  0.00    -0.268 OA
BRANCH  23  26
HETATM   26  C   UNL     1       7.816  22.633  55.190  1.00  0.00     0.084 C 
HETATM   27  C   UNL     1       8.221  23.279  53.868  1.00  0.00     0.025 C 
HETATM   28  C   UNL     1       7.743  22.274  52.832  1.00  0.00     0.002 C 
HETATM   29  C   UNL     1       8.038  20.923  53.470  1.00  0.00     0.002 C 
HETATM   30  C   UNL     1       7.813  21.119  54.970  1.00  0.00     0.025 C 
ENDBRANCH  23  26
ENDBRANCH   6  22
TORSDOF 4
ENDMDL
