MODEL 1
REMARK VINA RESULT:      -9.4      0.000      0.000
REMARK  8 active torsions:
REMARK  status: ('A' for Active; 'I' for Inactive)
REMARK    1  A    between atoms: O_2  and  C_3 
REMARK    2  A    between atoms: C_3  and  C_4 
REMARK    3  A    between atoms: C_4  and  N_5 
REMARK    4  A    between atoms: N_5  and  C_6 
REMARK       I    between atoms: N_5  and  C_15 
REMARK    5  A    between atoms: C_6  and  C_7 
REMARK    6  A    between atoms: C_11  and  O_12 
REMARK    7  A    between atoms: C_15  and  C_17 
REMARK    8  A    between atoms: C_22  and  C_26 
ROOT
HETATM    1  N   UNL     1       5.765  29.357  56.563  1.00  0.00    -0.340 N 
HETATM    2  C   UNL     1       5.690  28.907  55.226  1.00  0.00     0.279 C 
HETATM    3  O   UNL     1       5.116  29.597  54.380  1.00  0.00    -0.265 OA
ENDROOT
BRANCH   2   4
HETATM    4  C   UNL     1       6.298  27.620  54.854  1.00  0.00     0.166 A 
HETATM    5  N   UNL     1       6.845  27.340  53.687  1.00  0.00    -0.235 NA
HETATM    6  C   UNL     1       7.273  26.025  53.666  1.00  0.00     0.075 A 
HETATM    7  C   UNL     1       7.870  25.364  52.575  1.00  0.00     0.034 A 
HETATM    8  C   UNL     1       7.066  25.310  54.846  1.00  0.00     0.036 A 
HETATM    9  C   UNL     1       8.225  24.012  52.688  1.00  0.00     0.014 A 
HETATM   10  C   UNL     1       8.004  23.302  53.874  1.00  0.00    -0.022 A 
HETATM   11  C   UNL     1       7.424  23.957  54.973  1.00  0.00     0.033 A 
HETATM   12  S   UNL     1       6.339  26.347  56.007  1.00  0.00    -0.063 SA
BRANCH  10  13
HETATM   13  C   UNL     1       8.345  21.894  53.982  1.00  0.00     0.010 A 
HETATM   14  C   UNL     1       8.362  20.870  53.006  1.00  0.00     0.152 A 
HETATM   15  N   UNL     1       8.723  19.685  53.503  1.00  0.00    -0.187 NA
HETATM   16  N   UNL     1       8.935  19.941  54.802  1.00  0.00    -0.289 N 
HETATM   17  H   UNL     1       9.220  19.175  55.404  1.00  0.00     0.188 HD
HETATM   18  C   UNL     1       8.724  21.248  55.139  1.00  0.00     0.123 A 
ENDBRANCH  10  13
ENDBRANCH   2   4
BRANCH   1  19
HETATM   19  C   UNL     1       5.183  30.651  56.960  1.00  0.00     0.152 C 
BRANCH  19  20
HETATM   20  C   UNL     1       3.901  30.671  57.803  1.00  0.00     0.187 C 
BRANCH  20  21
HETATM   21  O   UNL     1       2.780  30.465  56.933  1.00  0.00    -0.394 OA
HETATM   22  C   UNL     1       2.710  31.474  55.932  1.00  0.00     0.201 C 
ENDBRANCH  20  21
ENDBRANCH  19  20
ENDBRANCH   1  19
BRANCH   1  23
HETATM   23  C   UNL     1       6.749  28.818  57.511  1.00  0.00     0.164 C 
BRANCH  23  24
HETATM   24  C   UNL     1       8.093  29.514  57.530  1.00  0.00    -0.038 A 
HETATM   25  C   UNL     1       9.154  29.155  56.690  1.00  0.00     0.009 A 
HETATM   26  C   UNL     1      10.365  29.845  56.743  1.00  0.00     0.003 A 
HETATM   27  C   UNL     1      10.522  30.913  57.627  1.00  0.00     0.037 A 
HETATM   28  C   UNL     1       9.474  31.302  58.460  1.00  0.00     0.068 A 
HETATM   29  C   UNL     1       8.267  30.602  58.409  1.00  0.00     0.045 A 
BRANCH  28  30
HETATM   30  O   UNL     1       9.752  32.370  59.271  1.00  0.00    -0.356 OA
HETATM   31  C   UNL     1       9.162  32.367  60.565  1.00  0.00     0.210 C 
ENDBRANCH  28  30
ENDBRANCH  23  24
ENDBRANCH   1  23
TORSDOF 8
ENDMDL
MODEL 2
REMARK VINA RESULT:      -9.0      5.022      8.157
REMARK  8 active torsions:
REMARK  status: ('A' for Active; 'I' for Inactive)
REMARK    1  A    between atoms: O_2  and  C_3 
REMARK    2  A    between atoms: C_3  and  C_4 
REMARK    3  A    between atoms: C_4  and  N_5 
REMARK    4  A    between atoms: N_5  and  C_6 
REMARK       I    between atoms: N_5  and  C_15 
REMARK    5  A    between atoms: C_6  and  C_7 
REMARK    6  A    between atoms: C_11  and  O_12 
REMARK    7  A    between atoms: C_15  and  C_17 
REMARK    8  A    between atoms: C_22  and  C_26 
ROOT
HETATM    1  N   UNL     1       6.632  26.749  54.698  1.00  0.00    -0.340 N 
HETATM    2  C   UNL     1       6.813  27.623  53.602  1.00  0.00     0.279 C 
HETATM    3  O   UNL     1       7.726  28.452  53.625  1.00  0.00    -0.265 OA
ENDROOT
BRANCH   2   4
HETATM    4  C   UNL     1       5.914  27.534  52.441  1.00  0.00     0.166 A 
HETATM    5  N   UNL     1       5.912  26.568  51.545  1.00  0.00    -0.235 NA
HETATM    6  C   UNL     1       4.971  26.829  50.565  1.00  0.00     0.075 A 
HETATM    7  C   UNL     1       4.714  26.037  49.430  1.00  0.00     0.034 A 
HETATM    8  C   UNL     1       4.235  28.000  50.742  1.00  0.00     0.036 A 
HETATM    9  C   UNL     1       3.746  26.445  48.500  1.00  0.00     0.014 A 
HETATM   10  C   UNL     1       3.020  27.628  48.682  1.00  0.00    -0.022 A 
HETATM   11  C   UNL     1       3.258  28.416  49.819  1.00  0.00     0.033 A 
HETATM   12  S   UNL     1       4.737  28.763  52.198  1.00  0.00    -0.063 SA
BRANCH  10  13
HETATM   13  C   UNL     1       2.039  28.066  47.704  1.00  0.00     0.010 A 
HETATM   14  C   UNL     1       0.839  27.457  47.263  1.00  0.00     0.152 A 
HETATM   15  N   UNL     1       0.208  28.173  46.329  1.00  0.00    -0.187 NA
HETATM   16  N   UNL     1       1.002  29.240  46.162  1.00  0.00    -0.289 N 
HETATM   17  H   UNL     1       0.728  29.942  45.482  1.00  0.00     0.188 HD
HETATM   18  C   UNL     1       2.109  29.225  46.962  1.00  0.00     0.123 A 
ENDBRANCH  10  13
ENDBRANCH   2   4
BRANCH   1  19
HETATM   19  C   UNL     1       7.531  26.802  55.864  1.00  0.00     0.152 C 
BRANCH  19  20
HETATM   20  C   UNL     1       6.967  27.218  57.229  1.00  0.00     0.187 C 
BRANCH  20  21
HETATM   21  O   UNL     1       8.034  27.764  58.016  1.00  0.00    -0.394 OA
HETATM   22  C   UNL     1       8.840  28.652  57.250  1.00  0.00     0.201 C 
ENDBRANCH  20  21
ENDBRANCH  19  20
ENDBRANCH   1  19
BRANCH   1  23
HETATM   23  C   UNL     1       5.862  25.505  54.581  1.00  0.00     0.164 C 
BRANCH  23  24
HETATM   24  C   UNL     1       6.675  24.244  54.379  1.00  0.00    -0.038 A 
HETATM   25  C   UNL     1       7.091  23.794  53.120  1.00  0.00     0.009 A 
HETATM   26  C   UNL     1       7.853  22.632  53.000  1.00  0.00     0.003 A 
HETATM   27  C   UNL     1       8.221  21.917  54.139  1.00  0.00     0.037 A 
HETATM   28  C   UNL     1       7.837  22.355  55.405  1.00  0.00     0.068 A 
HETATM   29  C   UNL     1       7.066  23.514  55.520  1.00  0.00     0.045 A 
BRANCH  28  30
HETATM   30  O   UNL     1       8.272  21.572  56.440  1.00  0.00    -0.356 OA
HETATM   31  C   UNL     1       8.985  20.390  56.098  1.00  0.00     0.210 C 
ENDBRANCH  28  30
ENDBRANCH  23  24
ENDBRANCH   1  23
TORSDOF 8
ENDMDL
MODEL 3
REMARK VINA RESULT:      -8.8      3.204      8.298
REMARK  8 active torsions:
REMARK  status: ('A' for Active; 'I' for Inactive)
REMARK    1  A    between atoms: O_2  and  C_3 
REMARK    2  A    between atoms: C_3  and  C_4 
REMARK    3  A    between atoms: C_4  and  N_5 
REMARK    4  A    between atoms: N_5  and  C_6 
REMARK       I    between atoms: N_5  and  C_15 
REMARK    5  A    between atoms: C_6  and  C_7 
REMARK    6  A    between atoms: C_11  and  O_12 
REMARK    7  A    between atoms: C_15  and  C_17 
REMARK    8  A    between atoms: C_22  and  C_26 
ROOT
HETATM    1  N   UNL     1       5.665  26.476  53.559  1.00  0.00    -0.340 N 
HETATM    2  C   UNL     1       5.903  27.869  53.583  1.00  0.00     0.279 C 
HETATM    3  O   UNL     1       5.581  28.561  52.613  1.00  0.00    -0.265 OA
ENDROOT
BRANCH   2   4
HETATM    4  C   UNL     1       6.531  28.482  54.763  1.00  0.00     0.166 A 
HETATM    5  N   UNL     1       7.821  28.485  55.031  1.00  0.00    -0.235 NA
HETATM    6  C   UNL     1       8.055  29.106  56.245  1.00  0.00     0.075 A 
HETATM    7  C   UNL     1       9.306  29.261  56.870  1.00  0.00     0.034 A 
HETATM    8  C   UNL     1       6.921  29.601  56.889  1.00  0.00     0.036 A 
HETATM    9  C   UNL     1       9.387  29.887  58.123  1.00  0.00     0.014 A 
HETATM   10  C   UNL     1       8.242  30.372  58.765  1.00  0.00    -0.022 A 
HETATM   11  C   UNL     1       6.991  30.236  58.142  1.00  0.00     0.033 A 
HETATM   12  S   UNL     1       5.542  29.291  55.913  1.00  0.00    -0.063 SA
BRANCH  10  13
HETATM   13  C   UNL     1       8.321  30.995  60.075  1.00  0.00     0.010 A 
HETATM   14  C   UNL     1       7.637  32.112  60.610  1.00  0.00     0.152 A 
HETATM   15  N   UNL     1       7.998  32.390  61.865  1.00  0.00    -0.187 NA
HETATM   16  N   UNL     1       8.919  31.455  62.140  1.00  0.00    -0.289 N 
HETATM   17  H   UNL     1       9.355  31.463  63.057  1.00  0.00     0.188 HD
HETATM   18  C   UNL     1       9.148  30.595  61.103  1.00  0.00     0.123 A 
ENDBRANCH  10  13
ENDBRANCH   2   4
BRANCH   1  19
HETATM   19  C   UNL     1       5.019  25.838  52.398  1.00  0.00     0.152 C 
BRANCH  19  20
HETATM   20  C   UNL     1       5.715  25.884  51.032  1.00  0.00     0.187 C 
BRANCH  20  21
HETATM   21  O   UNL     1       4.714  26.024  50.015  1.00  0.00    -0.394 OA
HETATM   22  C   UNL     1       4.767  27.311  49.410  1.00  0.00     0.201 C 
ENDBRANCH  20  21
ENDBRANCH  19  20
ENDBRANCH   1  19
BRANCH   1  23
HETATM   23  C   UNL     1       5.639  25.671  54.786  1.00  0.00     0.164 C 
BRANCH  23  24
HETATM   24  C   UNL     1       6.846  24.788  55.020  1.00  0.00    -0.038 A 
HETATM   25  C   UNL     1       7.649  24.874  56.164  1.00  0.00     0.009 A 
HETATM   26  C   UNL     1       8.740  24.020  56.329  1.00  0.00     0.003 A 
HETATM   27  C   UNL     1       9.030  23.061  55.359  1.00  0.00     0.037 A 
HETATM   28  C   UNL     1       8.234  22.942  54.221  1.00  0.00     0.068 A 
HETATM   29  C   UNL     1       7.148  23.805  54.056  1.00  0.00     0.045 A 
BRANCH  28  30
HETATM   30  O   UNL     1       8.617  21.955  53.353  1.00  0.00    -0.356 OA
HETATM   31  C   UNL     1       7.839  20.764  53.348  1.00  0.00     0.210 C 
ENDBRANCH  28  30
ENDBRANCH  23  24
ENDBRANCH   1  23
TORSDOF 8
ENDMDL
MODEL 4
REMARK VINA RESULT:      -8.8      2.609      5.372
REMARK  8 active torsions:
REMARK  status: ('A' for Active; 'I' for Inactive)
REMARK    1  A    between atoms: O_2  and  C_3 
REMARK    2  A    between atoms: C_3  and  C_4 
REMARK    3  A    between atoms: C_4  and  N_5 
REMARK    4  A    between atoms: N_5  and  C_6 
REMARK       I    between atoms: N_5  and  C_15 
REMARK    5  A    between atoms: C_6  and  C_7 
REMARK    6  A    between atoms: C_11  and  O_12 
REMARK    7  A    between atoms: C_15  and  C_17 
REMARK    8  A    between atoms: C_22  and  C_26 
ROOT
HETATM    1  N   UNL     1       4.932  29.500  54.812  1.00  0.00    -0.340 N 
HETATM    2  C   UNL     1       6.157  29.053  55.356  1.00  0.00     0.279 C 
HETATM    3  O   UNL     1       6.777  29.774  56.143  1.00  0.00    -0.265 OA
ENDROOT
BRANCH   2   4
HETATM    4  C   UNL     1       6.683  27.731  54.983  1.00  0.00     0.166 A 
HETATM    5  N   UNL     1       7.071  27.373  53.775  1.00  0.00    -0.235 NA
HETATM    6  C   UNL     1       7.461  26.046  53.773  1.00  0.00     0.075 A 
HETATM    7  C   UNL     1       7.899  25.311  52.655  1.00  0.00     0.034 A 
HETATM    8  C   UNL     1       7.388  25.401  55.007  1.00  0.00     0.036 A 
HETATM    9  C   UNL     1       8.234  23.956  52.798  1.00  0.00     0.014 A 
HETATM   10  C   UNL     1       8.147  23.317  54.040  1.00  0.00    -0.022 A 
HETATM   11  C   UNL     1       7.727  24.045  55.164  1.00  0.00     0.033 A 
HETATM   12  S   UNL     1       6.839  26.519  56.192  1.00  0.00    -0.063 SA
BRANCH  10  13
HETATM   13  C   UNL     1       8.465  21.906  54.183  1.00  0.00     0.010 A 
HETATM   14  C   UNL     1       8.485  20.862  53.227  1.00  0.00     0.152 A 
HETATM   15  N   UNL     1       8.820  19.683  53.755  1.00  0.00    -0.187 NA
HETATM   16  N   UNL     1       9.011  19.962  55.052  1.00  0.00    -0.289 N 
HETATM   17  H   UNL     1       9.273  19.204  55.675  1.00  0.00     0.188 HD
HETATM   18  C   UNL     1       8.813  21.279  55.359  1.00  0.00     0.123 A 
ENDBRANCH  10  13
ENDBRANCH   2   4
BRANCH   1  19
HETATM   19  C   UNL     1       4.372  30.811  55.185  1.00  0.00     0.152 C 
BRANCH  19  20
HETATM   20  C   UNL     1       2.988  30.877  55.842  1.00  0.00     0.187 C 
BRANCH  20  21
HETATM   21  O   UNL     1       3.099  31.615  57.066  1.00  0.00    -0.394 OA
HETATM   22  C   UNL     1       3.766  30.857  58.069  1.00  0.00     0.201 C 
ENDBRANCH  20  21
ENDBRANCH  19  20
ENDBRANCH   1  19
BRANCH   1  23
HETATM   23  C   UNL     1       3.962  28.573  54.215  1.00  0.00     0.164 C 
BRANCH  23  24
HETATM   24  C   UNL     1       3.794  28.674  52.715  1.00  0.00    -0.038 A 
HETATM   25  C   UNL     1       3.028  29.668  52.093  1.00  0.00     0.009 A 
HETATM   26  C   UNL     1       2.925  29.718  50.703  1.00  0.00     0.003 A 
HETATM   27  C   UNL     1       3.599  28.782  49.919  1.00  0.00     0.037 A 
HETATM   28  C   UNL     1       4.384  27.794  50.512  1.00  0.00     0.068 A 
HETATM   29  C   UNL     1       4.477  27.744  51.905  1.00  0.00     0.045 A 
BRANCH  28  30
HETATM   30  O   UNL     1       5.001  26.946  49.633  1.00  0.00    -0.356 OA
HETATM   31  C   UNL     1       4.268  26.578  48.471  1.00  0.00     0.210 C 
ENDBRANCH  28  30
ENDBRANCH  23  24
ENDBRANCH   1  23
TORSDOF 8
ENDMDL
MODEL 5
REMARK VINA RESULT:      -8.6      3.395      5.946
REMARK  8 active torsions:
REMARK  status: ('A' for Active; 'I' for Inactive)
REMARK    1  A    between atoms: O_2  and  C_3 
REMARK    2  A    between atoms: C_3  and  C_4 
REMARK    3  A    between atoms: C_4  and  N_5 
REMARK    4  A    between atoms: N_5  and  C_6 
REMARK       I    between atoms: N_5  and  C_15 
REMARK    5  A    between atoms: C_6  and  C_7 
REMARK    6  A    between atoms: C_11  and  O_12 
REMARK    7  A    between atoms: C_15  and  C_17 
REMARK    8  A    between atoms: C_22  and  C_26 
ROOT
HETATM    1  N   UNL     1       4.273  29.290  53.843  1.00  0.00    -0.340 N 
HETATM    2  C   UNL     1       5.368  28.892  54.642  1.00  0.00     0.279 C 
HETATM    3  O   UNL     1       5.776  29.639  55.536  1.00  0.00    -0.265 OA
ENDROOT
BRANCH   2   4
HETATM    4  C   UNL     1       6.011  27.591  54.404  1.00  0.00     0.166 A 
HETATM    5  N   UNL     1       6.590  27.215  53.281  1.00  0.00    -0.235 NA
HETATM    6  C   UNL     1       7.045  25.914  53.391  1.00  0.00     0.075 A 
HETATM    7  C   UNL     1       7.679  25.169  52.380  1.00  0.00     0.034 A 
HETATM    8  C   UNL     1       6.826  25.308  54.628  1.00  0.00     0.036 A 
HETATM    9  C   UNL     1       8.060  23.841  52.626  1.00  0.00     0.014 A 
HETATM   10  C   UNL     1       7.827  23.240  53.868  1.00  0.00    -0.022 A 
HETATM   11  C   UNL     1       7.209  23.981  54.889  1.00  0.00     0.033 A 
HETATM   12  S   UNL     1       6.052  26.432  55.673  1.00  0.00    -0.063 SA
BRANCH  10  13
HETATM   13  C   UNL     1       8.194  21.856  54.115  1.00  0.00     0.010 A 
HETATM   14  C   UNL     1       8.558  20.823  53.218  1.00  0.00     0.152 A 
HETATM   15  N   UNL     1       8.816  19.668  53.835  1.00  0.00    -0.187 NA
HETATM   16  N   UNL     1       8.613  19.952  55.130  1.00  0.00    -0.289 N 
HETATM   17  H   UNL     1       8.744  19.211  55.812  1.00  0.00     0.188 HD
HETATM   18  C   UNL     1       8.241  21.248  55.351  1.00  0.00     0.123 A 
ENDBRANCH  10  13
ENDBRANCH   2   4
BRANCH   1  19
HETATM   19  C   UNL     1       3.597  30.579  54.073  1.00  0.00     0.152 C 
BRANCH  19  20
HETATM   20  C   UNL     1       4.111  31.835  53.359  1.00  0.00     0.187 C 
BRANCH  20  21
HETATM   21  O   UNL     1       3.411  31.974  52.116  1.00  0.00    -0.394 OA
HETATM   22  C   UNL     1       4.293  32.348  51.064  1.00  0.00     0.201 C 
ENDBRANCH  20  21
ENDBRANCH  19  20
ENDBRANCH   1  19
BRANCH   1  23
HETATM   23  C   UNL     1       3.489  28.325  53.061  1.00  0.00     0.164 C 
BRANCH  23  24
HETATM   24  C   UNL     1       3.384  28.610  51.579  1.00  0.00    -0.038 A 
HETATM   25  C   UNL     1       2.195  29.009  50.956  1.00  0.00     0.009 A 
HETATM   26  C   UNL     1       2.166  29.273  49.587  1.00  0.00     0.003 A 
HETATM   27  C   UNL     1       3.331  29.157  48.828  1.00  0.00     0.037 A 
HETATM   28  C   UNL     1       4.532  28.781  49.428  1.00  0.00     0.068 A 
HETATM   29  C   UNL     1       4.554  28.509  50.797  1.00  0.00     0.045 A 
BRANCH  28  30
HETATM   30  O   UNL     1       5.602  28.715  48.577  1.00  0.00    -0.356 OA
HETATM   31  C   UNL     1       5.424  27.977  47.374  1.00  0.00     0.210 C 
ENDBRANCH  28  30
ENDBRANCH  23  24
ENDBRANCH   1  23
TORSDOF 8
ENDMDL
MODEL 6
REMARK VINA RESULT:      -8.5      3.422      8.868
REMARK  8 active torsions:
REMARK  status: ('A' for Active; 'I' for Inactive)
REMARK    1  A    between atoms: O_2  and  C_3 
REMARK    2  A    between atoms: C_3  and  C_4 
REMARK    3  A    between atoms: C_4  and  N_5 
REMARK    4  A    between atoms: N_5  and  C_6 
REMARK       I    between atoms: N_5  and  C_15 
REMARK    5  A    between atoms: C_6  and  C_7 
REMARK    6  A    between atoms: C_11  and  O_12 
REMARK    7  A    between atoms: C_15  and  C_17 
REMARK    8  A    between atoms: C_22  and  C_26 
ROOT
HETATM    1  N   UNL     1       7.274  24.133  53.976  1.00  0.00    -0.340 N 
HETATM    2  C   UNL     1       7.093  24.189  55.377  1.00  0.00     0.279 C 
HETATM    3  O   UNL     1       6.949  23.144  56.017  1.00  0.00    -0.265 OA
ENDROOT
BRANCH   2   4
HETATM    4  C   UNL     1       7.079  25.491  56.060  1.00  0.00     0.166 A 
HETATM    5  N   UNL     1       6.059  26.325  56.102  1.00  0.00    -0.235 NA
HETATM    6  C   UNL     1       6.410  27.474  56.786  1.00  0.00     0.075 A 
HETATM    7  C   UNL     1       5.589  28.598  56.997  1.00  0.00     0.034 A 
HETATM    8  C   UNL     1       7.711  27.495  57.289  1.00  0.00     0.036 A 
HETATM    9  C   UNL     1       6.094  29.711  57.686  1.00  0.00     0.014 A 
HETATM   10  C   UNL     1       7.403  29.725  58.178  1.00  0.00    -0.022 A 
HETATM   11  C   UNL     1       8.225  28.603  57.987  1.00  0.00     0.033 A 
HETATM   12  S   UNL     1       8.484  26.010  56.904  1.00  0.00    -0.063 SA
BRANCH  10  13
HETATM   13  C   UNL     1       7.936  30.889  58.866  1.00  0.00     0.010 A 
HETATM   14  C   UNL     1       9.215  31.492  58.807  1.00  0.00     0.152 A 
HETATM   15  N   UNL     1       9.325  32.553  59.609  1.00  0.00    -0.187 NA
HETATM   16  N   UNL     1       8.120  32.634  60.190  1.00  0.00    -0.289 N 
HETATM   17  H   UNL     1       7.958  33.377  60.863  1.00  0.00     0.188 HD
HETATM   18  C   UNL     1       7.252  31.662  59.779  1.00  0.00     0.123 A 
ENDBRANCH  10  13
ENDBRANCH   2   4
BRANCH   1  19
HETATM   19  C   UNL     1       7.313  22.841  53.269  1.00  0.00     0.152 C 
BRANCH  19  20
HETATM   20  C   UNL     1       8.529  21.924  53.446  1.00  0.00     0.187 C 
BRANCH  20  21
HETATM   21  O   UNL     1       8.070  20.637  53.880  1.00  0.00    -0.394 OA
HETATM   22  C   UNL     1       8.799  20.183  55.015  1.00  0.00     0.201 C 
ENDBRANCH  20  21
ENDBRANCH  19  20
ENDBRANCH   1  19
BRANCH   1  23
HETATM   23  C   UNL     1       7.844  25.256  53.221  1.00  0.00     0.164 C 
BRANCH  23  24
HETATM   24  C   UNL     1       6.844  26.176  52.555  1.00  0.00    -0.038 A 
HETATM   25  C   UNL     1       6.635  27.501  52.956  1.00  0.00     0.009 A 
HETATM   26  C   UNL     1       5.709  28.305  52.291  1.00  0.00     0.003 A 
HETATM   27  C   UNL     1       4.994  27.796  51.206  1.00  0.00     0.037 A 
HETATM   28  C   UNL     1       5.199  26.487  50.775  1.00  0.00     0.068 A 
HETATM   29  C   UNL     1       6.121  25.683  51.450  1.00  0.00     0.045 A 
BRANCH  28  30
HETATM   30  O   UNL     1       4.445  26.114  49.695  1.00  0.00    -0.356 OA
HETATM   31  C   UNL     1       3.812  27.155  48.961  1.00  0.00     0.210 C 
ENDBRANCH  28  30
ENDBRANCH  23  24
ENDBRANCH   1  23
TORSDOF 8
ENDMDL
MODEL 7
REMARK VINA RESULT:      -8.5      4.331      7.465
REMARK  8 active torsions:
REMARK  status: ('A' for Active; 'I' for Inactive)
REMARK    1  A    between atoms: O_2  and  C_3 
REMARK    2  A    between atoms: C_3  and  C_4 
REMARK    3  A    between atoms: C_4  and  N_5 
REMARK    4  A    between atoms: N_5  and  C_6 
REMARK       I    between atoms: N_5  and  C_15 
REMARK    5  A    between atoms: C_6  and  C_7 
REMARK    6  A    between atoms: C_11  and  O_12 
REMARK    7  A    between atoms: C_15  and  C_17 
REMARK    8  A    between atoms: C_22  and  C_26 
ROOT
HETATM    1  N   UNL     1       7.157  27.046  55.575  1.00  0.00    -0.340 N 
HETATM    2  C   UNL     1       7.462  27.837  54.444  1.00  0.00     0.279 C 
HETATM    3  O   UNL     1       8.458  28.565  54.456  1.00  0.00    -0.265 OA
ENDROOT
BRANCH   2   4
HETATM    4  C   UNL     1       6.591  27.783  53.260  1.00  0.00     0.166 A 
HETATM    5  N   UNL     1       5.638  28.646  52.968  1.00  0.00    -0.235 NA
HETATM    6  C   UNL     1       4.987  28.264  51.810  1.00  0.00     0.075 A 
HETATM    7  C   UNL     1       3.893  28.923  51.217  1.00  0.00     0.034 A 
HETATM    8  C   UNL     1       5.474  27.106  51.205  1.00  0.00     0.036 A 
HETATM    9  C   UNL     1       3.311  28.399  50.053  1.00  0.00     0.014 A 
HETATM   10  C   UNL     1       3.802  27.231  49.461  1.00  0.00    -0.022 A 
HETATM   11  C   UNL     1       4.902  26.575  50.036  1.00  0.00     0.033 A 
HETATM   12  S   UNL     1       6.804  26.514  52.120  1.00  0.00    -0.063 SA
BRANCH  10  13
HETATM   13  C   UNL     1       3.181  26.672  48.272  1.00  0.00     0.010 A 
HETATM   14  C   UNL     1       3.433  25.464  47.579  1.00  0.00     0.152 A 
HETATM   15  N   UNL     1       2.652  25.308  46.508  1.00  0.00    -0.187 NA
HETATM   16  N   UNL     1       1.900  26.418  46.504  1.00  0.00    -0.289 N 
HETATM   17  H   UNL     1       1.217  26.534  45.762  1.00  0.00     0.188 HD
HETATM   18  C   UNL     1       2.176  27.266  47.539  1.00  0.00     0.123 A 
ENDBRANCH  10  13
ENDBRANCH   2   4
BRANCH   1  19
HETATM   19  C   UNL     1       8.023  27.065  56.767  1.00  0.00     0.152 C 
BRANCH  19  20
HETATM   20  C   UNL     1       7.641  27.950  57.960  1.00  0.00     0.187 C 
BRANCH  20  21
HETATM   21  O   UNL     1       7.720  29.323  57.554  1.00  0.00    -0.394 OA
HETATM   22  C   UNL     1       8.956  29.908  57.947  1.00  0.00     0.201 C 
ENDBRANCH  20  21
ENDBRANCH  19  20
ENDBRANCH   1  19
BRANCH   1  23
HETATM   23  C   UNL     1       6.261  25.886  55.495  1.00  0.00     0.164 C 
BRANCH  23  24
HETATM   24  C   UNL     1       6.939  24.533  55.454  1.00  0.00    -0.038 A 
HETATM   25  C   UNL     1       7.483  23.913  56.586  1.00  0.00     0.009 A 
HETATM   26  C   UNL     1       8.080  22.657  56.487  1.00  0.00     0.003 A 
HETATM   27  C   UNL     1       8.127  22.000  55.257  1.00  0.00     0.037 A 
HETATM   28  C   UNL     1       7.575  22.588  54.119  1.00  0.00     0.068 A 
HETATM   29  C   UNL     1       6.986  23.849  54.222  1.00  0.00     0.045 A 
BRANCH  28  30
HETATM   30  O   UNL     1       7.676  21.836  52.980  1.00  0.00    -0.356 OA
HETATM   31  C   UNL     1       8.257  20.545  53.109  1.00  0.00     0.210 C 
ENDBRANCH  28  30
ENDBRANCH  23  24
ENDBRANCH   1  23
TORSDOF 8
ENDMDL
MODEL 8
REMARK VINA RESULT:      -8.4      6.234     10.021
REMARK  8 active torsions:
REMARK  status: ('A' for Active; 'I' for Inactive)
REMARK    1  A    between atoms: O_2  and  C_3 
REMARK    2  A    between atoms: C_3  and  C_4 
REMARK    3  A    between atoms: C_4  and  N_5 
REMARK    4  A    between atoms: N_5  and  C_6 
REMARK       I    between atoms: N_5  and  C_15 
REMARK    5  A    between atoms: C_6  and  C_7 
REMARK    6  A    between atoms: C_11  and  O_12 
REMARK    7  A    between atoms: C_15  and  C_17 
REMARK    8  A    between atoms: C_22  and  C_26 
ROOT
HETATM    1  N   UNL     1       4.710  34.872  64.245  1.00  0.00    -0.340 N 
HETATM    2  C   UNL     1       4.344  33.709  63.530  1.00  0.00     0.279 C 
HETATM    3  O   UNL     1       3.183  33.297  63.586  1.00  0.00    -0.265 OA
ENDROOT
BRANCH   2   4
HETATM    4  C   UNL     1       5.350  33.001  62.724  1.00  0.00     0.166 A 
HETATM    5  N   UNL     1       6.366  32.308  63.200  1.00  0.00    -0.235 NA
HETATM    6  C   UNL     1       7.138  31.819  62.162  1.00  0.00     0.075 A 
HETATM    7  C   UNL     1       8.321  31.068  62.291  1.00  0.00     0.034 A 
HETATM    8  C   UNL     1       6.681  32.129  60.882  1.00  0.00     0.036 A 
HETATM    9  C   UNL     1       9.020  30.665  61.143  1.00  0.00     0.014 A 
HETATM   10  C   UNL     1       8.557  30.990  59.863  1.00  0.00    -0.022 A 
HETATM   11  C   UNL     1       7.369  31.725  59.724  1.00  0.00     0.033 A 
HETATM   12  S   UNL     1       5.226  33.035  61.010  1.00  0.00    -0.063 SA
BRANCH  10  13
HETATM   13  C   UNL     1       9.295  30.597  58.675  1.00  0.00     0.010 A 
HETATM   14  C   UNL     1      10.439  31.168  58.067  1.00  0.00     0.152 A 
HETATM   15  N   UNL     1      10.818  30.520  56.963  1.00  0.00    -0.187 NA
HETATM   16  N   UNL     1       9.917  29.533  56.855  1.00  0.00    -0.289 N 
HETATM   17  H   UNL     1       9.996  28.893  56.070  1.00  0.00     0.188 HD
HETATM   18  C   UNL     1       8.986  29.534  57.854  1.00  0.00     0.123 A 
ENDBRANCH  10  13
ENDBRANCH   2   4
BRANCH   1  19
HETATM   19  C   UNL     1       3.718  35.613  65.044  1.00  0.00     0.152 C 
BRANCH  19  20
HETATM   20  C   UNL     1       3.860  35.651  66.570  1.00  0.00     0.187 C 
BRANCH  20  21
HETATM   21  O   UNL     1       4.068  34.313  67.043  1.00  0.00    -0.394 OA
HETATM   22  C   UNL     1       5.173  34.247  67.937  1.00  0.00     0.201 C 
ENDBRANCH  20  21
ENDBRANCH  19  20
ENDBRANCH   1  19
BRANCH   1  23
HETATM   23  C   UNL     1       5.919  35.638  63.917  1.00  0.00     0.164 C 
BRANCH  23  24
HETATM   24  C   UNL     1       5.694  36.931  63.164  1.00  0.00    -0.038 A 
HETATM   25  C   UNL     1       5.934  38.194  63.720  1.00  0.00     0.009 A 
HETATM   26  C   UNL     1       5.723  39.350  62.968  1.00  0.00     0.003 A 
HETATM   27  C   UNL     1       5.284  39.255  61.647  1.00  0.00     0.037 A 
HETATM   28  C   UNL     1       5.057  38.008  61.065  1.00  0.00     0.068 A 
HETATM   29  C   UNL     1       5.262  36.855  61.824  1.00  0.00     0.045 A 
BRANCH  28  30
HETATM   30  O   UNL     1       4.641  38.052  59.762  1.00  0.00    -0.356 OA
HETATM   31  C   UNL     1       3.936  36.917  59.273  1.00  0.00     0.210 C 
ENDBRANCH  28  30
ENDBRANCH  23  24
ENDBRANCH   1  23
TORSDOF 8
ENDMDL
MODEL 9
REMARK VINA RESULT:      -8.3      3.050      8.602
REMARK  8 active torsions:
REMARK  status: ('A' for Active; 'I' for Inactive)
REMARK    1  A    between atoms: O_2  and  C_3 
REMARK    2  A    between atoms: C_3  and  C_4 
REMARK    3  A    between atoms: C_4  and  N_5 
REMARK    4  A    between atoms: N_5  and  C_6 
REMARK       I    between atoms: N_5  and  C_15 
REMARK    5  A    between atoms: C_6  and  C_7 
REMARK    6  A    between atoms: C_11  and  O_12 
REMARK    7  A    between atoms: C_15  and  C_17 
REMARK    8  A    between atoms: C_22  and  C_26 
ROOT
HETATM    1  N   UNL     1       8.328  23.211  55.252  1.00  0.00    -0.340 N 
HETATM    2  C   UNL     1       8.083  23.696  56.556  1.00  0.00     0.279 C 
HETATM    3  O   UNL     1       8.228  22.946  57.525  1.00  0.00    -0.265 OA
ENDROOT
BRANCH   2   4
HETATM    4  C   UNL     1       7.659  25.091  56.748  1.00  0.00     0.166 A 
HETATM    5  N   UNL     1       8.463  26.116  56.951  1.00  0.00    -0.235 NA
HETATM    6  C   UNL     1       7.725  27.271  57.140  1.00  0.00     0.075 A 
HETATM    7  C   UNL     1       8.243  28.549  57.420  1.00  0.00     0.034 A 
HETATM    8  C   UNL     1       6.342  27.116  57.053  1.00  0.00     0.036 A 
HETATM    9  C   UNL     1       7.368  29.628  57.620  1.00  0.00     0.014 A 
HETATM   10  C   UNL     1       5.981  29.458  57.539  1.00  0.00    -0.022 A 
HETATM   11  C   UNL     1       5.456  28.190  57.245  1.00  0.00     0.033 A 
HETATM   12  S   UNL     1       5.984  25.473  56.696  1.00  0.00    -0.063 SA
BRANCH  10  13
HETATM   13  C   UNL     1       5.074  30.568  57.775  1.00  0.00     0.010 A 
HETATM   14  C   UNL     1       3.743  30.782  57.341  1.00  0.00     0.152 A 
HETATM   15  N   UNL     1       3.243  31.947  57.759  1.00  0.00    -0.187 NA
HETATM   16  N   UNL     1       4.251  32.489  58.458  1.00  0.00    -0.289 N 
HETATM   17  H   UNL     1       4.108  33.402  58.879  1.00  0.00     0.188 HD
HETATM   18  C   UNL     1       5.368  31.704  58.499  1.00  0.00     0.123 A 
ENDBRANCH  10  13
ENDBRANCH   2   4
BRANCH   1  19
HETATM   19  C   UNL     1       8.774  21.824  55.031  1.00  0.00     0.152 C 
BRANCH  19  20
HETATM   20  C   UNL     1       7.730  20.703  54.953  1.00  0.00     0.187 C 
BRANCH  20  21
HETATM   21  O   UNL     1       7.462  20.423  53.573  1.00  0.00    -0.394 OA
HETATM   22  C   UNL     1       8.650  20.490  52.792  1.00  0.00     0.201 C 
ENDBRANCH  20  21
ENDBRANCH  19  20
ENDBRANCH   1  19
BRANCH   1  23
HETATM   23  C   UNL     1       8.572  24.113  54.119  1.00  0.00     0.164 C 
BRANCH  23  24
HETATM   24  C   UNL     1       7.341  24.740  53.501  1.00  0.00    -0.038 A 
HETATM   25  C   UNL     1       6.183  24.015  53.195  1.00  0.00     0.009 A 
HETATM   26  C   UNL     1       5.073  24.654  52.641  1.00  0.00     0.003 A 
HETATM   27  C   UNL     1       5.106  26.028  52.400  1.00  0.00     0.037 A 
HETATM   28  C   UNL     1       6.241  26.775  52.714  1.00  0.00     0.068 A 
HETATM   29  C   UNL     1       7.351  26.129  53.261  1.00  0.00     0.045 A 
BRANCH  28  30
HETATM   30  O   UNL     1       6.140  28.112  52.441  1.00  0.00    -0.356 OA
HETATM   31  C   UNL     1       4.932  28.557  51.837  1.00  0.00     0.210 C 
ENDBRANCH  28  30
ENDBRANCH  23  24
ENDBRANCH   1  23
TORSDOF 8
ENDMDL
MODEL 10
REMARK VINA RESULT:      -8.1      2.064      4.628
REMARK  8 active torsions:
REMARK  status: ('A' for Active; 'I' for Inactive)
REMARK    1  A    between atoms: O_2  and  C_3 
REMARK    2  A    between atoms: C_3  and  C_4 
REMARK    3  A    between atoms: C_4  and  N_5 
REMARK    4  A    between atoms: N_5  and  C_6 
REMARK       I    between atoms: N_5  and  C_15 
REMARK    5  A    between atoms: C_6  and  C_7 
REMARK    6  A    between atoms: C_11  and  O_12 
REMARK    7  A    between atoms: C_15  and  C_17 
REMARK    8  A    between atoms: C_22  and  C_26 
ROOT
HETATM    1  N   UNL     1       6.502  29.644  56.841  1.00  0.00    -0.340 N 
HETATM    2  C   UNL     1       7.714  28.947  57.044  1.00  0.00     0.279 C 
HETATM    3  O   UNL     1       8.692  29.542  57.504  1.00  0.00    -0.265 OA
ENDROOT
BRANCH   2   4
HETATM    4  C   UNL     1       7.799  27.517  56.709  1.00  0.00     0.166 A 
HETATM    5  N   UNL     1       8.054  26.544  57.560  1.00  0.00    -0.235 NA
HETATM    6  C   UNL     1       8.109  25.332  56.896  1.00  0.00     0.075 A 
HETATM    7  C   UNL     1       8.395  24.081  57.474  1.00  0.00     0.034 A 
HETATM    8  C   UNL     1       7.867  25.392  55.524  1.00  0.00     0.036 A 
HETATM    9  C   UNL     1       8.448  22.935  56.667  1.00  0.00     0.014 A 
HETATM   10  C   UNL     1       8.214  23.009  55.290  1.00  0.00    -0.022 A 
HETATM   11  C   UNL     1       7.912  24.249  54.706  1.00  0.00     0.033 A 
HETATM   12  S   UNL     1       7.537  27.020  55.085  1.00  0.00    -0.063 SA
BRANCH  10  13
HETATM   13  C   UNL     1       8.297  21.827  54.448  1.00  0.00     0.010 A 
HETATM   14  C   UNL     1       8.838  20.545  54.708  1.00  0.00     0.152 A 
HETATM   15  N   UNL     1       8.737  19.719  53.664  1.00  0.00    -0.187 NA
HETATM   16  N   UNL     1       8.138  20.468  52.727  1.00  0.00    -0.289 N 
HETATM   17  H   UNL     1       7.955  20.050  51.820  1.00  0.00     0.188 HD
HETATM   18  C   UNL     1       7.852  21.737  53.147  1.00  0.00     0.123 A 
ENDBRANCH  10  13
ENDBRANCH   2   4
BRANCH   1  19
HETATM   19  C   UNL     1       6.382  31.071  57.188  1.00  0.00     0.152 C 
BRANCH  19  20
HETATM   20  C   UNL     1       5.965  31.466  58.610  1.00  0.00     0.187 C 
BRANCH  20  21
HETATM   21  O   UNL     1       6.929  32.393  59.127  1.00  0.00    -0.394 OA
HETATM   22  C   UNL     1       7.785  31.773  60.079  1.00  0.00     0.201 C 
ENDBRANCH  20  21
ENDBRANCH  19  20
ENDBRANCH   1  19
BRANCH   1  23
HETATM   23  C   UNL     1       5.218  28.946  56.694  1.00  0.00     0.164 C 
BRANCH  23  24
HETATM   24  C   UNL     1       4.554  29.068  55.340  1.00  0.00    -0.038 A 
HETATM   25  C   UNL     1       4.363  27.981  54.478  1.00  0.00     0.009 A 
HETATM   26  C   UNL     1       3.728  28.156  53.248  1.00  0.00     0.003 A 
HETATM   27  C   UNL     1       3.265  29.417  52.873  1.00  0.00     0.037 A 
HETATM   28  C   UNL     1       3.426  30.511  53.722  1.00  0.00     0.068 A 
HETATM   29  C   UNL     1       4.069  30.333  54.948  1.00  0.00     0.045 A 
BRANCH  28  30
HETATM   30  O   UNL     1       2.918  31.688  53.243  1.00  0.00    -0.356 OA
HETATM   31  C   UNL     1       3.152  32.856  54.022  1.00  0.00     0.210 C 
ENDBRANCH  28  30
ENDBRANCH  23  24
ENDBRANCH   1  23
TORSDOF 8
ENDMDL
