MODEL 1
REMARK VINA RESULT:      -9.0      0.000      0.000
REMARK  5 active torsions:
REMARK  status: ('A' for Active; 'I' for Inactive)
REMARK    1  A    between atoms: C_9  and  C_10 
REMARK       I    between atoms: C_10  and  N_11 
REMARK    2  A    between atoms: N_11  and  C_12 
REMARK    3  A    between atoms: C_12  and  C_13 
REMARK    4  A    between atoms: C_12  and  C_16 
REMARK    5  A    between atoms: C_19  and  O_20 
ROOT
HETATM    1  C   UNL     1       6.988  27.851  54.650  1.00  0.00     0.273 C 
HETATM    2  N   UNL     1       6.815  26.489  54.721  1.00  0.00    -0.346 N 
HETATM    3  O   UNL     1       7.175  28.466  53.606  1.00  0.00    -0.266 OA
HETATM    4  H   UNL     1       6.606  26.133  55.646  1.00  0.00     0.163 HD
ENDROOT
BRANCH   2   5
HETATM    5  C   UNL     1       6.749  25.621  53.572  1.00  0.00     0.122 C 
BRANCH   5   6
HETATM    6  C   UNL     1       5.345  25.520  53.015  1.00  0.00     0.013 A 
HETATM    7  C   UNL     1       4.985  25.890  51.593  1.00  0.00     0.007 A 
HETATM    8  C   UNL     1       4.931  24.450  52.029  1.00  0.00     0.007 A 
ENDBRANCH   5   6
BRANCH   5   9
HETATM    9  C   UNL     1       7.269  24.224  53.883  1.00  0.00    -0.035 A 
HETATM   10  C   UNL     1       7.121  23.706  55.179  1.00  0.00     0.012 A 
HETATM   11  C   UNL     1       7.611  22.437  55.502  1.00  0.00     0.037 A 
HETATM   12  C   UNL     1       8.250  21.654  54.541  1.00  0.00     0.068 A 
HETATM   13  C   UNL     1       8.418  22.162  53.255  1.00  0.00     0.037 A 
HETATM   14  C   UNL     1       7.938  23.438  52.931  1.00  0.00     0.012 A 
BRANCH  12  15
HETATM   15  O   UNL     1       8.671  20.431  54.984  1.00  0.00    -0.356 OA
HETATM   16  C   UNL     1       8.904  20.304  56.381  1.00  0.00     0.210 C 
ENDBRANCH  12  15
ENDBRANCH   5   9
ENDBRANCH   2   5
BRANCH   1  17
HETATM   17  C   UNL     1       6.905  28.497  55.971  1.00  0.00     0.157 A 
HETATM   18  C   UNL     1       7.970  29.073  56.724  1.00  0.00     0.029 A 
HETATM   19  C   UNL     1       9.360  29.241  56.556  1.00  0.00     0.023 A 
HETATM   20  C   UNL     1       7.375  29.554  57.884  1.00  0.00     0.063 A 
HETATM   21  C   UNL     1      10.106  29.889  57.555  1.00  0.00    -0.061 A 
HETATM   22  C   UNL     1      11.587  30.075  57.399  1.00  0.00     0.048 C 
HETATM   23  C   UNL     1       9.464  30.357  58.709  1.00  0.00     0.009 A 
HETATM   24  C   UNL     1       8.086  30.200  58.898  1.00  0.00     0.032 A 
HETATM   25  N   UNL     1       6.048  29.251  57.761  1.00  0.00    -0.277 N 
HETATM   26  H   UNL     1       5.310  29.454  58.425  1.00  0.00     0.189 HD
HETATM   27  N   UNL     1       5.723  28.618  56.620  1.00  0.00    -0.168 NA
ENDBRANCH   1  17
TORSDOF 5
ENDMDL
MODEL 2
REMARK VINA RESULT:      -8.5      2.796      6.606
REMARK  5 active torsions:
REMARK  status: ('A' for Active; 'I' for Inactive)
REMARK    1  A    between atoms: C_9  and  C_10 
REMARK       I    between atoms: C_10  and  N_11 
REMARK    2  A    between atoms: N_11  and  C_12 
REMARK    3  A    between atoms: C_12  and  C_13 
REMARK    4  A    between atoms: C_12  and  C_16 
REMARK    5  A    between atoms: C_19  and  O_20 
ROOT
HETATM    1  C   UNL     1       5.229  27.684  52.585  1.00  0.00     0.273 C 
HETATM    2  N   UNL     1       6.410  27.101  52.976  1.00  0.00    -0.346 N 
HETATM    3  O   UNL     1       4.214  27.707  53.272  1.00  0.00    -0.266 OA
HETATM    4  H   UNL     1       7.179  27.217  52.327  1.00  0.00     0.163 HD
ENDROOT
BRANCH   2   5
HETATM    5  C   UNL     1       6.632  26.516  54.276  1.00  0.00     0.122 C 
BRANCH   5   6
HETATM    6  C   UNL     1       7.652  27.292  55.081  1.00  0.00     0.013 A 
HETATM    7  C   UNL     1       7.356  28.624  55.736  1.00  0.00     0.007 A 
HETATM    8  C   UNL     1       7.588  27.406  56.589  1.00  0.00     0.007 A 
ENDBRANCH   5   6
BRANCH   5   9
HETATM    9  C   UNL     1       7.070  25.061  54.178  1.00  0.00    -0.035 A 
HETATM   10  C   UNL     1       6.955  24.229  55.302  1.00  0.00     0.012 A 
HETATM   11  C   UNL     1       7.372  22.896  55.251  1.00  0.00     0.037 A 
HETATM   12  C   UNL     1       7.906  22.361  54.078  1.00  0.00     0.068 A 
HETATM   13  C   UNL     1       8.042  23.180  52.960  1.00  0.00     0.037 A 
HETATM   14  C   UNL     1       7.634  24.519  53.011  1.00  0.00     0.012 A 
BRANCH  12  15
HETATM   15  O   UNL     1       8.265  21.044  54.159  1.00  0.00    -0.356 OA
HETATM   16  C   UNL     1       8.378  20.337  52.930  1.00  0.00     0.210 C 
ENDBRANCH  12  15
ENDBRANCH   5   9
ENDBRANCH   2   5
BRANCH   1  17
HETATM   17  C   UNL     1       5.320  28.297  51.249  1.00  0.00     0.157 A 
HETATM   18  C   UNL     1       4.861  27.755  50.011  1.00  0.00     0.029 A 
HETATM   19  C   UNL     1       4.222  26.570  49.595  1.00  0.00     0.023 A 
HETATM   20  C   UNL     1       5.173  28.717  49.058  1.00  0.00     0.063 A 
HETATM   21  C   UNL     1       3.912  26.390  48.237  1.00  0.00    -0.061 A 
HETATM   22  C   UNL     1       3.235  25.135  47.770  1.00  0.00     0.048 C 
HETATM   23  C   UNL     1       4.247  27.385  47.309  1.00  0.00     0.009 A 
HETATM   24  C   UNL     1       4.883  28.569  47.700  1.00  0.00     0.032 A 
HETATM   25  N   UNL     1       5.773  29.731  49.751  1.00  0.00    -0.277 N 
HETATM   26  H   UNL     1       6.133  30.600  49.374  1.00  0.00     0.189 HD
HETATM   27  N   UNL     1       5.877  29.519  51.075  1.00  0.00    -0.168 NA
ENDBRANCH   1  17
TORSDOF 5
ENDMDL
MODEL 3
REMARK VINA RESULT:      -8.5      2.137      7.428
REMARK  5 active torsions:
REMARK  status: ('A' for Active; 'I' for Inactive)
REMARK    1  A    between atoms: C_9  and  C_10 
REMARK       I    between atoms: C_10  and  N_11 
REMARK    2  A    between atoms: N_11  and  C_12 
REMARK    3  A    between atoms: C_12  and  C_13 
REMARK    4  A    between atoms: C_12  and  C_16 
REMARK    5  A    between atoms: C_19  and  O_20 
ROOT
HETATM    1  C   UNL     1       6.272  25.614  55.013  1.00  0.00     0.273 C 
HETATM    2  N   UNL     1       6.703  26.912  54.873  1.00  0.00    -0.346 N 
HETATM    3  O   UNL     1       5.449  25.249  55.845  1.00  0.00    -0.266 OA
HETATM    4  H   UNL     1       7.338  27.070  54.100  1.00  0.00     0.163 HD
ENDROOT
BRANCH   2   5
HETATM    5  C   UNL     1       6.182  28.023  55.631  1.00  0.00     0.122 C 
BRANCH   5   6
HETATM    6  C   UNL     1       5.462  29.022  54.752  1.00  0.00     0.013 A 
HETATM    7  C   UNL     1       4.033  28.844  54.287  1.00  0.00     0.007 A 
HETATM    8  C   UNL     1       4.369  29.931  55.272  1.00  0.00     0.007 A 
ENDBRANCH   5   6
BRANCH   5   9
HETATM    9  C   UNL     1       7.273  28.737  56.416  1.00  0.00    -0.035 A 
HETATM   10  C   UNL     1       7.003  29.191  57.717  1.00  0.00     0.012 A 
HETATM   11  C   UNL     1       7.977  29.873  58.452  1.00  0.00     0.037 A 
HETATM   12  C   UNL     1       9.241  30.112  57.913  1.00  0.00     0.068 A 
HETATM   13  C   UNL     1       9.517  29.683  56.617  1.00  0.00     0.037 A 
HETATM   14  C   UNL     1       8.540  29.008  55.874  1.00  0.00     0.012 A 
BRANCH  12  15
HETATM   15  O   UNL     1      10.102  30.779  58.740  1.00  0.00    -0.356 OA
HETATM   16  C   UNL     1       9.529  31.750  59.607  1.00  0.00     0.210 C 
ENDBRANCH  12  15
ENDBRANCH   5   9
ENDBRANCH   2   5
BRANCH   1  17
HETATM   17  C   UNL     1       6.897  24.707  54.036  1.00  0.00     0.157 A 
HETATM   18  C   UNL     1       7.360  23.376  54.258  1.00  0.00     0.029 A 
HETATM   19  C   UNL     1       7.416  22.489  55.352  1.00  0.00     0.023 A 
HETATM   20  C   UNL     1       7.852  22.953  53.030  1.00  0.00     0.063 A 
HETATM   21  C   UNL     1       7.961  21.206  55.177  1.00  0.00    -0.061 A 
HETATM   22  C   UNL     1       8.034  20.246  56.329  1.00  0.00     0.048 C 
HETATM   23  C   UNL     1       8.448  20.822  53.921  1.00  0.00     0.009 A 
HETATM   24  C   UNL     1       8.404  21.687  52.821  1.00  0.00     0.032 A 
HETATM   25  N   UNL     1       7.664  24.010  52.183  1.00  0.00    -0.277 N 
HETATM   26  H   UNL     1       7.907  24.057  51.201  1.00  0.00     0.189 HD
HETATM   27  N   UNL     1       7.086  25.084  52.749  1.00  0.00    -0.168 NA
ENDBRANCH   1  17
TORSDOF 5
ENDMDL
MODEL 4
REMARK VINA RESULT:      -8.5      3.010      6.385
REMARK  5 active torsions:
REMARK  status: ('A' for Active; 'I' for Inactive)
REMARK    1  A    between atoms: C_9  and  C_10 
REMARK       I    between atoms: C_10  and  N_11 
REMARK    2  A    between atoms: N_11  and  C_12 
REMARK    3  A    between atoms: C_12  and  C_13 
REMARK    4  A    between atoms: C_12  and  C_16 
REMARK    5  A    between atoms: C_19  and  O_20 
ROOT
HETATM    1  C   UNL     1       7.455  26.950  55.831  1.00  0.00     0.273 C 
HETATM    2  N   UNL     1       6.398  26.813  54.964  1.00  0.00    -0.346 N 
HETATM    3  O   UNL     1       8.030  28.011  56.051  1.00  0.00    -0.266 OA
HETATM    4  H   UNL     1       5.986  25.888  54.936  1.00  0.00     0.163 HD
ENDROOT
BRANCH   2   5
HETATM    5  C   UNL     1       5.777  27.911  54.265  1.00  0.00     0.122 C 
BRANCH   5   6
HETATM    6  C   UNL     1       4.488  28.349  54.927  1.00  0.00     0.013 A 
HETATM    7  C   UNL     1       4.440  29.270  56.126  1.00  0.00     0.007 A 
HETATM    8  C   UNL     1       3.936  29.751  54.791  1.00  0.00     0.007 A 
ENDBRANCH   5   6
BRANCH   5   9
HETATM    9  C   UNL     1       5.505  27.575  52.805  1.00  0.00    -0.035 A 
HETATM   10  C   UNL     1       5.306  26.237  52.431  1.00  0.00     0.012 A 
HETATM   11  C   UNL     1       5.079  25.895  51.095  1.00  0.00     0.037 A 
HETATM   12  C   UNL     1       5.038  26.876  50.104  1.00  0.00     0.068 A 
HETATM   13  C   UNL     1       5.251  28.206  50.459  1.00  0.00     0.037 A 
HETATM   14  C   UNL     1       5.488  28.551  51.796  1.00  0.00     0.012 A 
BRANCH  12  15
HETATM   15  O   UNL     1       4.798  26.409  48.842  1.00  0.00    -0.356 OA
HETATM   16  C   UNL     1       4.865  27.360  47.787  1.00  0.00     0.210 C 
ENDBRANCH  12  15
ENDBRANCH   5   9
ENDBRANCH   2   5
BRANCH   1  17
HETATM   17  C   UNL     1       7.814  25.681  56.486  1.00  0.00     0.157 A 
HETATM   18  C   UNL     1       7.926  24.393  55.883  1.00  0.00     0.029 A 
HETATM   19  C   UNL     1       7.760  23.859  54.589  1.00  0.00     0.023 A 
HETATM   20  C   UNL     1       8.294  23.540  56.916  1.00  0.00     0.063 A 
HETATM   21  C   UNL     1       7.973  22.487  54.374  1.00  0.00    -0.061 A 
HETATM   22  C   UNL     1       7.799  21.896  53.005  1.00  0.00     0.048 C 
HETATM   23  C   UNL     1       8.341  21.663  55.445  1.00  0.00     0.009 A 
HETATM   24  C   UNL     1       8.509  22.172  56.738  1.00  0.00     0.032 A 
HETATM   25  N   UNL     1       8.375  24.333  58.027  1.00  0.00    -0.277 N 
HETATM   26  H   UNL     1       8.620  24.045  58.967  1.00  0.00     0.189 HD
HETATM   27  N   UNL     1       8.098  25.631  57.809  1.00  0.00    -0.168 NA
ENDBRANCH   1  17
TORSDOF 5
ENDMDL
MODEL 5
REMARK VINA RESULT:      -8.4      2.403      4.319
REMARK  5 active torsions:
REMARK  status: ('A' for Active; 'I' for Inactive)
REMARK    1  A    between atoms: C_9  and  C_10 
REMARK       I    between atoms: C_10  and  N_11 
REMARK    2  A    between atoms: N_11  and  C_12 
REMARK    3  A    between atoms: C_12  and  C_13 
REMARK    4  A    between atoms: C_12  and  C_16 
REMARK    5  A    between atoms: C_19  and  O_20 
ROOT
HETATM    1  C   UNL     1       7.681  27.829  56.811  1.00  0.00     0.273 C 
HETATM    2  N   UNL     1       8.178  26.788  56.063  1.00  0.00    -0.346 N 
HETATM    3  O   UNL     1       6.556  27.848  57.298  1.00  0.00    -0.266 OA
HETATM    4  H   UNL     1       9.146  26.889  55.782  1.00  0.00     0.163 HD
ENDROOT
BRANCH   2   5
HETATM    5  C   UNL     1       7.472  25.553  55.825  1.00  0.00     0.122 C 
BRANCH   5   6
HETATM    6  C   UNL     1       8.376  24.347  55.962  1.00  0.00     0.013 A 
HETATM    7  C   UNL     1       8.200  23.293  57.033  1.00  0.00     0.007 A 
HETATM    8  C   UNL     1       7.935  22.948  55.592  1.00  0.00     0.007 A 
ENDBRANCH   5   6
BRANCH   5   9
HETATM    9  C   UNL     1       6.809  25.532  54.455  1.00  0.00    -0.035 A 
HETATM   10  C   UNL     1       5.426  25.313  54.361  1.00  0.00     0.012 A 
HETATM   11  C   UNL     1       4.793  25.263  53.116  1.00  0.00     0.037 A 
HETATM   12  C   UNL     1       5.521  25.435  51.938  1.00  0.00     0.068 A 
HETATM   13  C   UNL     1       6.898  25.636  52.016  1.00  0.00     0.037 A 
HETATM   14  C   UNL     1       7.536  25.678  53.262  1.00  0.00     0.012 A 
BRANCH  12  15
HETATM   15  O   UNL     1       4.781  25.373  50.790  1.00  0.00    -0.356 OA
HETATM   16  C   UNL     1       4.792  26.529  49.961  1.00  0.00     0.210 C 
ENDBRANCH  12  15
ENDBRANCH   5   9
ENDBRANCH   2   5
BRANCH   1  17
HETATM   17  C   UNL     1       8.659  28.917  56.980  1.00  0.00     0.157 A 
HETATM   18  C   UNL     1       8.778  29.814  58.083  1.00  0.00     0.029 A 
HETATM   19  C   UNL     1       8.105  30.018  59.305  1.00  0.00     0.023 A 
HETATM   20  C   UNL     1       9.850  30.637  57.766  1.00  0.00     0.063 A 
HETATM   21  C   UNL     1       8.533  31.040  60.169  1.00  0.00    -0.061 A 
HETATM   22  C   UNL     1       7.829  31.278  61.473  1.00  0.00     0.048 C 
HETATM   23  C   UNL     1       9.618  31.849  59.807  1.00  0.00     0.009 A 
HETATM   24  C   UNL     1      10.300  31.665  58.599  1.00  0.00     0.032 A 
HETATM   25  N   UNL     1      10.289  30.204  56.545  1.00  0.00    -0.277 N 
HETATM   26  H   UNL     1      11.061  30.578  56.005  1.00  0.00     0.189 HD
HETATM   27  N   UNL     1       9.601  29.166  56.040  1.00  0.00    -0.168 NA
ENDBRANCH   1  17
TORSDOF 5
ENDMDL
MODEL 6
REMARK VINA RESULT:      -8.3      2.387      7.580
REMARK  5 active torsions:
REMARK  status: ('A' for Active; 'I' for Inactive)
REMARK    1  A    between atoms: C_9  and  C_10 
REMARK       I    between atoms: C_10  and  N_11 
REMARK    2  A    between atoms: N_11  and  C_12 
REMARK    3  A    between atoms: C_12  and  C_13 
REMARK    4  A    between atoms: C_12  and  C_16 
REMARK    5  A    between atoms: C_19  and  O_20 
ROOT
HETATM    1  C   UNL     1       6.973  25.154  56.133  1.00  0.00     0.273 C 
HETATM    2  N   UNL     1       7.812  26.235  56.265  1.00  0.00    -0.346 N 
HETATM    3  O   UNL     1       5.828  25.221  55.699  1.00  0.00    -0.266 OA
HETATM    4  H   UNL     1       8.749  26.013  56.579  1.00  0.00     0.163 HD
ENDROOT
BRANCH   2   5
HETATM    5  C   UNL     1       7.482  27.571  55.834  1.00  0.00     0.122 C 
BRANCH   5   6
HETATM    6  C   UNL     1       7.819  27.796  54.375  1.00  0.00     0.013 A 
HETATM    7  C   UNL     1       7.557  26.772  53.293  1.00  0.00     0.007 A 
HETATM    8  C   UNL     1       6.763  28.051  53.322  1.00  0.00     0.007 A 
ENDBRANCH   5   6
BRANCH   5   9
HETATM    9  C   UNL     1       8.176  28.630  56.680  1.00  0.00    -0.035 A 
HETATM   10  C   UNL     1       7.585  29.049  57.882  1.00  0.00     0.012 A 
HETATM   11  C   UNL     1       8.186  30.037  58.667  1.00  0.00     0.037 A 
HETATM   12  C   UNL     1       9.390  30.624  58.277  1.00  0.00     0.068 A 
HETATM   13  C   UNL     1       9.978  30.230  57.078  1.00  0.00     0.037 A 
HETATM   14  C   UNL     1       9.374  29.247  56.284  1.00  0.00     0.012 A 
BRANCH  12  15
HETATM   15  O   UNL     1       9.874  31.569  59.139  1.00  0.00    -0.356 OA
HETATM   16  C   UNL     1       8.949  32.120  60.067  1.00  0.00     0.210 C 
ENDBRANCH  12  15
ENDBRANCH   5   9
ENDBRANCH   2   5
BRANCH   1  17
HETATM   17  C   UNL     1       7.609  23.895  56.555  1.00  0.00     0.157 A 
HETATM   18  C   UNL     1       7.864  22.739  55.758  1.00  0.00     0.029 A 
HETATM   19  C   UNL     1       7.642  22.360  54.419  1.00  0.00     0.023 A 
HETATM   20  C   UNL     1       8.483  21.838  56.614  1.00  0.00     0.063 A 
HETATM   21  C   UNL     1       8.052  21.090  53.982  1.00  0.00    -0.061 A 
HETATM   22  C   UNL     1       7.823  20.663  52.561  1.00  0.00     0.048 C 
HETATM   23  C   UNL     1       8.672  20.211  54.880  1.00  0.00     0.009 A 
HETATM   24  C   UNL     1       8.900  20.566  56.214  1.00  0.00     0.032 A 
HETATM   25  N   UNL     1       8.559  22.478  57.820  1.00  0.00    -0.277 N 
HETATM   26  H   UNL     1       8.953  22.117  58.680  1.00  0.00     0.189 HD
HETATM   27  N   UNL     1       8.048  23.722  57.825  1.00  0.00    -0.168 NA
ENDBRANCH   1  17
TORSDOF 5
ENDMDL
MODEL 7
REMARK VINA RESULT:      -8.2      3.706      8.524
REMARK  5 active torsions:
REMARK  status: ('A' for Active; 'I' for Inactive)
REMARK    1  A    between atoms: C_9  and  C_10 
REMARK       I    between atoms: C_10  and  N_11 
REMARK    2  A    between atoms: N_11  and  C_12 
REMARK    3  A    between atoms: C_12  and  C_13 
REMARK    4  A    between atoms: C_12  and  C_16 
REMARK    5  A    between atoms: C_19  and  O_20 
ROOT
HETATM    1  C   UNL     1       6.526  29.911  57.342  1.00  0.00     0.273 C 
HETATM    2  N   UNL     1       7.555  29.720  58.233  1.00  0.00    -0.346 N 
HETATM    3  O   UNL     1       6.263  30.987  56.817  1.00  0.00    -0.266 OA
HETATM    4  H   UNL     1       7.689  28.762  58.533  1.00  0.00     0.163 HD
ENDROOT
BRANCH   2   5
HETATM    5  C   UNL     1       8.506  30.740  58.601  1.00  0.00     0.122 C 
BRANCH   5   6
HETATM    6  C   UNL     1       9.934  30.297  58.363  1.00  0.00     0.013 A 
HETATM    7  C   UNL     1      10.471  29.918  57.000  1.00  0.00     0.007 A 
HETATM    8  C   UNL     1      10.957  31.173  57.673  1.00  0.00     0.007 A 
ENDBRANCH   5   6
BRANCH   5   9
HETATM    9  C   UNL     1       8.348  31.169  60.053  1.00  0.00    -0.035 A 
HETATM   10  C   UNL     1       7.526  32.264  60.363  1.00  0.00     0.012 A 
HETATM   11  C   UNL     1       7.380  32.697  61.684  1.00  0.00     0.037 A 
HETATM   12  C   UNL     1       8.044  32.047  62.724  1.00  0.00     0.068 A 
HETATM   13  C   UNL     1       8.876  30.970  62.429  1.00  0.00     0.037 A 
HETATM   14  C   UNL     1       9.032  30.540  61.105  1.00  0.00     0.012 A 
BRANCH  12  15
HETATM   15  O   UNL     1       7.808  32.564  63.968  1.00  0.00    -0.356 OA
HETATM   16  C   UNL     1       6.922  33.675  64.040  1.00  0.00     0.210 C 
ENDBRANCH  12  15
ENDBRANCH   5   9
ENDBRANCH   2   5
BRANCH   1  17
HETATM   17  C   UNL     1       5.781  28.670  57.071  1.00  0.00     0.157 A 
HETATM   18  C   UNL     1       6.290  27.337  57.050  1.00  0.00     0.029 A 
HETATM   19  C   UNL     1       7.545  26.725  57.245  1.00  0.00     0.023 A 
HETATM   20  C   UNL     1       5.194  26.536  56.757  1.00  0.00     0.063 A 
HETATM   21  C   UNL     1       7.657  25.329  57.144  1.00  0.00    -0.061 A 
HETATM   22  C   UNL     1       8.984  24.656  57.344  1.00  0.00     0.048 C 
HETATM   23  C   UNL     1       6.526  24.559  56.844  1.00  0.00     0.009 A 
HETATM   24  C   UNL     1       5.271  25.145  56.645  1.00  0.00     0.032 A 
HETATM   25  N   UNL     1       4.141  27.398  56.625  1.00  0.00    -0.277 N 
HETATM   26  H   UNL     1       3.180  27.161  56.411  1.00  0.00     0.189 HD
HETATM   27  N   UNL     1       4.452  28.692  56.812  1.00  0.00    -0.168 NA
ENDBRANCH   1  17
TORSDOF 5
ENDMDL
MODEL 8
REMARK VINA RESULT:      -7.9      4.163      7.911
REMARK  5 active torsions:
REMARK  status: ('A' for Active; 'I' for Inactive)
REMARK    1  A    between atoms: C_9  and  C_10 
REMARK       I    between atoms: C_10  and  N_11 
REMARK    2  A    between atoms: N_11  and  C_12 
REMARK    3  A    between atoms: C_12  and  C_13 
REMARK    4  A    between atoms: C_12  and  C_16 
REMARK    5  A    between atoms: C_19  and  O_20 
ROOT
HETATM    1  C   UNL     1       5.281  26.590  51.560  1.00  0.00     0.273 C 
HETATM    2  N   UNL     1       5.022  27.929  51.390  1.00  0.00    -0.346 N 
HETATM    3  O   UNL     1       5.373  25.785  50.639  1.00  0.00    -0.266 OA
HETATM    4  H   UNL     1       5.039  28.479  52.241  1.00  0.00     0.163 HD
ENDROOT
BRANCH   2   5
HETATM    5  C   UNL     1       4.907  28.574  50.105  1.00  0.00     0.122 C 
BRANCH   5   6
HETATM    6  C   UNL     1       5.029  30.079  50.213  1.00  0.00     0.013 A 
HETATM    7  C   UNL     1       6.176  30.866  49.618  1.00  0.00     0.007 A 
HETATM    8  C   UNL     1       4.793  31.004  49.039  1.00  0.00     0.007 A 
ENDBRANCH   5   6
BRANCH   5   9
HETATM    9  C   UNL     1       3.601  28.223  49.407  1.00  0.00    -0.035 A 
HETATM   10  C   UNL     1       3.635  27.499  48.205  1.00  0.00     0.012 A 
HETATM   11  C   UNL     1       2.454  27.183  47.527  1.00  0.00     0.037 A 
HETATM   12  C   UNL     1       1.214  27.575  48.034  1.00  0.00     0.068 A 
HETATM   13  C   UNL     1       1.168  28.309  49.217  1.00  0.00     0.037 A 
HETATM   14  C   UNL     1       2.350  28.635  49.893  1.00  0.00     0.012 A 
BRANCH  12  15
HETATM   15  O   UNL     1       0.139  27.195  47.280  1.00  0.00    -0.356 OA
HETATM   16  C   UNL     1       0.130  27.618  45.922  1.00  0.00     0.210 C 
ENDBRANCH  12  15
ENDBRANCH   5   9
ENDBRANCH   2   5
BRANCH   1  17
HETATM   17  C   UNL     1       5.455  26.227  52.977  1.00  0.00     0.157 A 
HETATM   18  C   UNL     1       6.160  25.105  53.506  1.00  0.00     0.029 A 
HETATM   19  C   UNL     1       6.883  24.016  52.977  1.00  0.00     0.023 A 
HETATM   20  C   UNL     1       6.038  25.218  54.885  1.00  0.00     0.063 A 
HETATM   21  C   UNL     1       7.462  23.080  53.848  1.00  0.00    -0.061 A 
HETATM   22  C   UNL     1       8.233  21.911  53.307  1.00  0.00     0.048 C 
HETATM   23  C   UNL     1       7.311  23.231  55.233  1.00  0.00     0.009 A 
HETATM   24  C   UNL     1       6.597  24.303  55.780  1.00  0.00     0.032 A 
HETATM   25  N   UNL     1       5.299  26.350  55.090  1.00  0.00    -0.277 N 
HETATM   26  H   UNL     1       5.014  26.741  55.980  1.00  0.00     0.189 HD
HETATM   27  N   UNL     1       4.932  26.990  53.966  1.00  0.00    -0.168 NA
ENDBRANCH   1  17
TORSDOF 5
ENDMDL
MODEL 9
REMARK VINA RESULT:      -7.9      2.258      4.741
REMARK  5 active torsions:
REMARK  status: ('A' for Active; 'I' for Inactive)
REMARK    1  A    between atoms: C_9  and  C_10 
REMARK       I    between atoms: C_10  and  N_11 
REMARK    2  A    between atoms: N_11  and  C_12 
REMARK    3  A    between atoms: C_12  and  C_13 
REMARK    4  A    between atoms: C_12  and  C_16 
REMARK    5  A    between atoms: C_19  and  O_20 
ROOT
HETATM    1  C   UNL     1       5.821  27.220  56.075  1.00  0.00     0.273 C 
HETATM    2  N   UNL     1       6.289  27.379  54.793  1.00  0.00    -0.346 N 
HETATM    3  O   UNL     1       5.267  26.205  56.483  1.00  0.00    -0.266 OA
HETATM    4  H   UNL     1       6.780  28.248  54.622  1.00  0.00     0.163 HD
ENDROOT
BRANCH   2   5
HETATM    5  C   UNL     1       6.264  26.344  53.788  1.00  0.00     0.122 C 
BRANCH   5   6
HETATM    6  C   UNL     1       7.620  25.696  53.606  1.00  0.00     0.013 A 
HETATM    7  C   UNL     1       7.978  24.341  54.177  1.00  0.00     0.007 A 
HETATM    8  C   UNL     1       7.845  24.515  52.688  1.00  0.00     0.007 A 
ENDBRANCH   5   6
BRANCH   5   9
HETATM    9  C   UNL     1       5.772  26.866  52.445  1.00  0.00    -0.035 A 
HETATM   10  C   UNL     1       5.339  25.956  51.468  1.00  0.00     0.012 A 
HETATM   11  C   UNL     1       4.906  26.404  50.217  1.00  0.00     0.037 A 
HETATM   12  C   UNL     1       4.888  27.765  49.913  1.00  0.00     0.068 A 
HETATM   13  C   UNL     1       5.331  28.678  50.868  1.00  0.00     0.037 A 
HETATM   14  C   UNL     1       5.775  28.232  52.119  1.00  0.00     0.012 A 
BRANCH  12  15
HETATM   15  O   UNL     1       4.432  28.069  48.660  1.00  0.00    -0.356 OA
HETATM   16  C   UNL     1       4.969  27.308  47.585  1.00  0.00     0.210 C 
ENDBRANCH  12  15
ENDBRANCH   5   9
ENDBRANCH   2   5
BRANCH   1  17
HETATM   17  C   UNL     1       6.073  28.402  56.916  1.00  0.00     0.157 A 
HETATM   18  C   UNL     1       7.330  29.018  57.195  1.00  0.00     0.029 A 
HETATM   19  C   UNL     1       8.675  28.788  56.842  1.00  0.00     0.023 A 
HETATM   20  C   UNL     1       7.031  30.092  58.023  1.00  0.00     0.063 A 
HETATM   21  C   UNL     1       9.675  29.646  57.327  1.00  0.00    -0.061 A 
HETATM   22  C   UNL     1      11.114  29.419  56.967  1.00  0.00     0.048 C 
HETATM   23  C   UNL     1       9.328  30.717  58.162  1.00  0.00     0.009 A 
HETATM   24  C   UNL     1       8.000  30.962  58.527  1.00  0.00     0.032 A 
HETATM   25  N   UNL     1       5.673  30.057  58.184  1.00  0.00    -0.277 N 
HETATM   26  H   UNL     1       5.106  30.695  58.729  1.00  0.00     0.189 HD
HETATM   27  N   UNL     1       5.059  29.057  57.528  1.00  0.00    -0.168 NA
ENDBRANCH   1  17
TORSDOF 5
ENDMDL
MODEL 10
REMARK VINA RESULT:      -7.7      2.422      4.813
REMARK  5 active torsions:
REMARK  status: ('A' for Active; 'I' for Inactive)
REMARK    1  A    between atoms: C_9  and  C_10 
REMARK       I    between atoms: C_10  and  N_11 
REMARK    2  A    between atoms: N_11  and  C_12 
REMARK    3  A    between atoms: C_12  and  C_13 
REMARK    4  A    between atoms: C_12  and  C_16 
REMARK    5  A    between atoms: C_19  and  O_20 
ROOT
HETATM    1  C   UNL     1       6.877  26.421  56.752  1.00  0.00     0.273 C 
HETATM    2  N   UNL     1       7.067  26.331  55.394  1.00  0.00    -0.346 N 
HETATM    3  O   UNL     1       6.419  25.517  57.443  1.00  0.00    -0.266 OA
HETATM    4  H   UNL     1       7.513  27.136  54.970  1.00  0.00     0.163 HD
ENDROOT
BRANCH   2   5
HETATM    5  C   UNL     1       6.829  25.136  54.621  1.00  0.00     0.122 C 
BRANCH   5   6
HETATM    6  C   UNL     1       8.102  24.351  54.384  1.00  0.00     0.013 A 
HETATM    7  C   UNL     1       8.363  22.989  54.989  1.00  0.00     0.007 A 
HETATM    8  C   UNL     1       8.151  23.121  53.505  1.00  0.00     0.007 A 
ENDBRANCH   5   6
BRANCH   5   9
HETATM    9  C   UNL     1       6.172  25.445  53.283  1.00  0.00    -0.035 A 
HETATM   10  C   UNL     1       5.222  24.554  52.760  1.00  0.00     0.012 A 
HETATM   11  C   UNL     1       4.620  24.798  51.522  1.00  0.00     0.037 A 
HETATM   12  C   UNL     1       4.946  25.934  50.782  1.00  0.00     0.068 A 
HETATM   13  C   UNL     1       5.900  26.817  51.281  1.00  0.00     0.037 A 
HETATM   14  C   UNL     1       6.512  26.571  52.517  1.00  0.00     0.012 A 
BRANCH  12  15
HETATM   15  O   UNL     1       4.278  26.058  49.594  1.00  0.00    -0.356 OA
HETATM   16  C   UNL     1       4.766  27.039  48.688  1.00  0.00     0.210 C 
ENDBRANCH  12  15
ENDBRANCH   5   9
ENDBRANCH   2   5
BRANCH   1  17
HETATM   17  C   UNL     1       7.303  27.722  57.293  1.00  0.00     0.157 A 
HETATM   18  C   UNL     1       6.502  28.887  57.488  1.00  0.00     0.029 A 
HETATM   19  C   UNL     1       5.156  29.242  57.271  1.00  0.00     0.023 A 
HETATM   20  C   UNL     1       7.365  29.833  58.027  1.00  0.00     0.063 A 
HETATM   21  C   UNL     1       4.718  30.534  57.606  1.00  0.00    -0.061 A 
HETATM   22  C   UNL     1       3.289  30.936  57.381  1.00  0.00     0.048 C 
HETATM   23  C   UNL     1       5.622  31.458  58.146  1.00  0.00     0.009 A 
HETATM   24  C   UNL     1       6.964  31.127  58.368  1.00  0.00     0.032 A 
HETATM   25  N   UNL     1       8.576  29.207  58.119  1.00  0.00    -0.277 N 
HETATM   26  H   UNL     1       9.442  29.599  58.469  1.00  0.00     0.189 HD
HETATM   27  N   UNL     1       8.580  27.932  57.691  1.00  0.00    -0.168 NA
ENDBRANCH   1  17
TORSDOF 5
ENDMDL
