MODEL 1
REMARK VINA RESULT:     -10.0      0.000      0.000
REMARK  9 active torsions:
REMARK  status: ('A' for Active; 'I' for Inactive)
REMARK    1  A    between atoms: C_2  and  O_3 
REMARK    2  A    between atoms: O_3  and  C_4 
REMARK    3  A    between atoms: C_4  and  C_5 
REMARK    4  A    between atoms: C_7  and  C_8 
REMARK       I    between atoms: C_8  and  N_9 
REMARK    5  A    between atoms: N_9  and  N_10 
REMARK    6  A    between atoms: N_10  and  C_11 
REMARK    7  A    between atoms: C_11  and  N_12 
REMARK    8  A    between atoms: N_12  and  C_13 
REMARK    9  A    between atoms: C_13  and  C_14 
ROOT
HETATM    1  C   UNL     1       8.294  27.613  57.041  1.00  0.00     0.078 A 
HETATM    2  O   UNL     1       7.989  28.193  58.237  1.00  0.00    -0.307 OA
HETATM    3  C   UNL     1       8.508  29.462  58.234  1.00  0.00     0.145 A 
HETATM    4  C   UNL     1       9.174  29.671  57.038  1.00  0.00     0.045 A 
HETATM    5  C   UNL     1       9.031  28.487  56.272  1.00  0.00     0.038 A 
ENDROOT
BRANCH   3   6
HETATM    6  C   UNL     1       8.258  30.292  59.395  1.00  0.00     0.293 C 
HETATM    7  N   UNL     1       7.075  31.012  59.364  1.00  0.00    -0.262 N 
HETATM    8  H   UNL     1       6.421  31.005  58.590  1.00  0.00     0.190 HD
HETATM    9  O   UNL     1       9.007  30.371  60.372  1.00  0.00    -0.264 OA
BRANCH   7  10
HETATM   10  N   UNL     1       6.715  31.751  60.503  1.00  0.00    -0.274 N 
HETATM   11  H   UNL     1       7.505  32.214  60.950  1.00  0.00     0.189 HD
BRANCH  10  12
HETATM   12  C   UNL     1       5.462  32.289  60.635  1.00  0.00     0.186 C 
HETATM   13  S   UNL     1       4.737  33.319  59.534  1.00  0.00    -0.040 SA
BRANCH  12  14
HETATM   14  N   UNL     1       4.752  31.892  61.731  1.00  0.00    -0.364 N 
HETATM   15  H   UNL     1       3.919  31.354  61.503  1.00  0.00     0.162 HD
BRANCH  14  16
HETATM   16  C   UNL     1       5.290  31.632  63.063  1.00  0.00     0.154 C 
BRANCH  16  17
HETATM   17  C   UNL     1       5.625  32.929  63.797  1.00  0.00     0.139 C 
HETATM   18  O   UNL     1       4.746  33.114  64.926  1.00  0.00    -0.384 OA
HETATM   19  C   UNL     1       5.485  33.774  65.965  1.00  0.00     0.168 C 
HETATM   20  C   UNL     1       6.899  33.985  65.457  1.00  0.00     0.029 C 
HETATM   21  C   UNL     1       7.026  32.940  64.378  1.00  0.00     0.035 C 
ENDBRANCH  16  17
ENDBRANCH  14  16
ENDBRANCH  12  14
ENDBRANCH  10  12
ENDBRANCH   7  10
ENDBRANCH   3   6
BRANCH   1  22
HETATM   22  C   UNL     1       7.783  26.235  56.822  1.00  0.00     0.240 C 
BRANCH  22  23
HETATM   23  O   UNL     1       7.278  26.204  55.490  1.00  0.00    -0.345 OA
BRANCH  23  24
HETATM   24  C   UNL     1       7.483  25.052  54.777  1.00  0.00     0.069 A 
HETATM   25  C   UNL     1       7.685  24.973  53.390  1.00  0.00     0.037 A 
HETATM   26  C   UNL     1       7.857  23.733  52.762  1.00  0.00     0.010 A 
HETATM   27  C   UNL     1       7.838  22.588  53.540  1.00  0.00    -0.052 A 
HETATM   28  C   UNL     1       7.640  22.663  54.920  1.00  0.00    -0.049 A 
HETATM   29  C   UNL     1       7.953  21.165  53.095  1.00  0.00     0.039 C 
HETATM   30  C   UNL     1       7.450  23.884  55.547  1.00  0.00     0.044 A 
HETATM   31  C   UNL     1       7.614  21.298  55.532  1.00  0.00     0.039 C 
HETATM   32  C   UNL     1       8.271  20.462  54.423  1.00  0.00     0.009 C 
ENDBRANCH  23  24
ENDBRANCH  22  23
ENDBRANCH   1  22
TORSDOF 9
ENDMDL
MODEL 2
REMARK VINA RESULT:      -9.7      1.040      1.218
REMARK  9 active torsions:
REMARK  status: ('A' for Active; 'I' for Inactive)
REMARK    1  A    between atoms: C_2  and  O_3 
REMARK    2  A    between atoms: O_3  and  C_4 
REMARK    3  A    between atoms: C_4  and  C_5 
REMARK    4  A    between atoms: C_7  and  C_8 
REMARK       I    between atoms: C_8  and  N_9 
REMARK    5  A    between atoms: N_9  and  N_10 
REMARK    6  A    between atoms: N_10  and  C_11 
REMARK    7  A    between atoms: C_11  and  N_12 
REMARK    8  A    between atoms: N_12  and  C_13 
REMARK    9  A    between atoms: C_13  and  C_14 
ROOT
HETATM    1  C   UNL     1       8.073  27.142  56.934  1.00  0.00     0.078 A 
HETATM    2  O   UNL     1       7.980  27.805  58.121  1.00  0.00    -0.307 OA
HETATM    3  C   UNL     1       7.987  29.150  57.855  1.00  0.00     0.145 A 
HETATM    4  C   UNL     1       8.119  29.335  56.489  1.00  0.00     0.045 A 
HETATM    5  C   UNL     1       8.169  28.047  55.900  1.00  0.00     0.038 A 
ENDROOT
BRANCH   3   6
HETATM    6  C   UNL     1       7.843  30.057  58.976  1.00  0.00     0.293 C 
HETATM    7  N   UNL     1       6.778  30.940  58.889  1.00  0.00    -0.262 N 
HETATM    8  H   UNL     1       6.143  30.995  58.101  1.00  0.00     0.190 HD
HETATM    9  O   UNL     1       8.579  30.068  59.965  1.00  0.00    -0.264 OA
BRANCH   7  10
HETATM   10  N   UNL     1       6.513  31.772  59.989  1.00  0.00    -0.274 N 
HETATM   11  H   UNL     1       7.345  32.009  60.526  1.00  0.00     0.189 HD
BRANCH  10  12
HETATM   12  C   UNL     1       5.450  32.637  59.985  1.00  0.00     0.186 C 
HETATM   13  S   UNL     1       4.473  32.954  58.665  1.00  0.00    -0.040 SA
BRANCH  12  14
HETATM   14  N   UNL     1       5.155  33.229  61.179  1.00  0.00    -0.364 N 
HETATM   15  H   UNL     1       4.900  34.210  61.095  1.00  0.00     0.162 HD
BRANCH  14  16
HETATM   16  C   UNL     1       4.618  32.567  62.364  1.00  0.00     0.154 C 
BRANCH  16  17
HETATM   17  C   UNL     1       5.654  32.486  63.483  1.00  0.00     0.139 C 
HETATM   18  O   UNL     1       6.902  31.966  62.982  1.00  0.00    -0.384 OA
HETATM   19  C   UNL     1       7.971  32.596  63.705  1.00  0.00     0.168 C 
HETATM   20  C   UNL     1       7.349  33.571  64.685  1.00  0.00     0.029 C 
HETATM   21  C   UNL     1       5.996  33.840  64.075  1.00  0.00     0.035 C 
ENDBRANCH  16  17
ENDBRANCH  14  16
ENDBRANCH  12  14
ENDBRANCH  10  12
ENDBRANCH   7  10
ENDBRANCH   3   6
BRANCH   1  22
HETATM   22  C   UNL     1       8.042  25.658  56.997  1.00  0.00     0.240 C 
BRANCH  22  23
HETATM   23  O   UNL     1       7.037  25.240  56.078  1.00  0.00    -0.345 OA
BRANCH  23  24
HETATM   24  C   UNL     1       7.383  24.261  55.185  1.00  0.00     0.069 A 
HETATM   25  C   UNL     1       7.595  24.445  53.809  1.00  0.00     0.037 A 
HETATM   26  C   UNL     1       7.920  23.361  52.984  1.00  0.00     0.010 A 
HETATM   27  C   UNL     1       8.042  22.106  53.556  1.00  0.00    -0.052 A 
HETATM   28  C   UNL     1       7.835  21.919  54.925  1.00  0.00    -0.049 A 
HETATM   29  C   UNL     1       8.333  20.805  52.879  1.00  0.00     0.039 C 
HETATM   30  C   UNL     1       7.495  22.983  55.745  1.00  0.00     0.044 A 
HETATM   31  C   UNL     1       7.977  20.477  55.295  1.00  0.00     0.039 C 
HETATM   32  C   UNL     1       8.734  19.930  54.076  1.00  0.00     0.009 C 
ENDBRANCH  23  24
ENDBRANCH  22  23
ENDBRANCH   1  22
TORSDOF 9
ENDMDL
MODEL 3
REMARK VINA RESULT:      -9.5      2.029      2.211
REMARK  9 active torsions:
REMARK  status: ('A' for Active; 'I' for Inactive)
REMARK    1  A    between atoms: C_2  and  O_3 
REMARK    2  A    between atoms: O_3  and  C_4 
REMARK    3  A    between atoms: C_4  and  C_5 
REMARK    4  A    between atoms: C_7  and  C_8 
REMARK       I    between atoms: C_8  and  N_9 
REMARK    5  A    between atoms: N_9  and  N_10 
REMARK    6  A    between atoms: N_10  and  C_11 
REMARK    7  A    between atoms: C_11  and  N_12 
REMARK    8  A    between atoms: N_12  and  C_13 
REMARK    9  A    between atoms: C_13  and  C_14 
ROOT
HETATM    1  C   UNL     1       6.119  27.971  55.572  1.00  0.00     0.078 A 
HETATM    2  O   UNL     1       6.782  28.877  56.346  1.00  0.00    -0.307 OA
HETATM    3  C   UNL     1       5.851  29.562  57.084  1.00  0.00     0.145 A 
HETATM    4  C   UNL     1       4.588  29.107  56.746  1.00  0.00     0.045 A 
HETATM    5  C   UNL     1       4.762  28.083  55.781  1.00  0.00     0.038 A 
ENDROOT
BRANCH   3   6
HETATM    6  C   UNL     1       6.337  30.549  58.027  1.00  0.00     0.293 C 
HETATM    7  N   UNL     1       7.533  30.232  58.651  1.00  0.00    -0.262 N 
HETATM    8  H   UNL     1       8.044  29.369  58.505  1.00  0.00     0.190 HD
HETATM    9  O   UNL     1       5.771  31.616  58.275  1.00  0.00    -0.264 OA
BRANCH   7  10
HETATM   10  N   UNL     1       8.118  31.191  59.494  1.00  0.00    -0.274 N 
HETATM   11  H   UNL     1       8.239  32.100  59.050  1.00  0.00     0.189 HD
BRANCH  10  12
HETATM   12  C   UNL     1       7.970  31.125  60.855  1.00  0.00     0.186 C 
HETATM   13  S   UNL     1       9.110  30.516  61.918  1.00  0.00    -0.040 SA
BRANCH  12  14
HETATM   14  N   UNL     1       6.818  31.656  61.359  1.00  0.00    -0.364 N 
HETATM   15  H   UNL     1       6.107  31.830  60.651  1.00  0.00     0.162 HD
BRANCH  14  16
HETATM   16  C   UNL     1       6.292  31.462  62.706  1.00  0.00     0.154 C 
BRANCH  16  17
HETATM   17  C   UNL     1       6.172  32.785  63.460  1.00  0.00     0.139 C 
HETATM   18  O   UNL     1       5.019  32.771  64.327  1.00  0.00    -0.384 OA
HETATM   19  C   UNL     1       5.331  33.544  65.497  1.00  0.00     0.168 C 
HETATM   20  C   UNL     1       6.757  34.038  65.353  1.00  0.00     0.029 C 
HETATM   21  C   UNL     1       7.353  33.059  64.372  1.00  0.00     0.035 C 
ENDBRANCH  16  17
ENDBRANCH  14  16
ENDBRANCH  12  14
ENDBRANCH  10  12
ENDBRANCH   7  10
ENDBRANCH   3   6
BRANCH   1  22
HETATM   22  C   UNL     1       6.955  27.090  54.717  1.00  0.00     0.240 C 
BRANCH  22  23
HETATM   23  O   UNL     1       7.175  25.899  55.467  1.00  0.00    -0.345 OA
BRANCH  23  24
HETATM   24  C   UNL     1       7.447  24.760  54.755  1.00  0.00     0.069 A 
HETATM   25  C   UNL     1       7.680  24.696  53.372  1.00  0.00     0.037 A 
HETATM   26  C   UNL     1       7.922  23.467  52.744  1.00  0.00     0.010 A 
HETATM   27  C   UNL     1       7.940  22.320  53.517  1.00  0.00    -0.052 A 
HETATM   28  C   UNL     1       7.711  22.380  54.894  1.00  0.00    -0.049 A 
HETATM   29  C   UNL     1       8.129  20.905  53.071  1.00  0.00     0.039 C 
HETATM   30  C   UNL     1       7.452  23.589  55.521  1.00  0.00     0.044 A 
HETATM   31  C   UNL     1       7.735  21.013  55.501  1.00  0.00     0.039 C 
HETATM   32  C   UNL     1       8.453  20.213  54.403  1.00  0.00     0.009 C 
ENDBRANCH  23  24
ENDBRANCH  22  23
ENDBRANCH   1  22
TORSDOF 9
ENDMDL
MODEL 4
REMARK VINA RESULT:      -9.4      2.896      4.525
REMARK  9 active torsions:
REMARK  status: ('A' for Active; 'I' for Inactive)
REMARK    1  A    between atoms: C_2  and  O_3 
REMARK    2  A    between atoms: O_3  and  C_4 
REMARK    3  A    between atoms: C_4  and  C_5 
REMARK    4  A    between atoms: C_7  and  C_8 
REMARK       I    between atoms: C_8  and  N_9 
REMARK    5  A    between atoms: N_9  and  N_10 
REMARK    6  A    between atoms: N_10  and  C_11 
REMARK    7  A    between atoms: C_11  and  N_12 
REMARK    8  A    between atoms: N_12  and  C_13 
REMARK    9  A    between atoms: C_13  and  C_14 
ROOT
HETATM    1  C   UNL     1       5.335  26.915  55.776  1.00  0.00     0.078 A 
HETATM    2  O   UNL     1       5.162  27.810  56.789  1.00  0.00    -0.307 OA
HETATM    3  C   UNL     1       4.670  28.969  56.248  1.00  0.00     0.145 A 
HETATM    4  C   UNL     1       4.563  28.813  54.876  1.00  0.00     0.045 A 
HETATM    5  C   UNL     1       4.985  27.494  54.576  1.00  0.00     0.038 A 
ENDROOT
BRANCH   3   6
HETATM    6  C   UNL     1       4.356  30.054  57.156  1.00  0.00     0.293 C 
HETATM    7  N   UNL     1       5.283  30.269  58.164  1.00  0.00    -0.262 N 
HETATM    8  H   UNL     1       6.117  29.709  58.302  1.00  0.00     0.190 HD
HETATM    9  O   UNL     1       3.358  30.772  57.069  1.00  0.00    -0.264 OA
BRANCH   7  10
HETATM   10  N   UNL     1       5.099  31.372  59.013  1.00  0.00    -0.274 N 
HETATM   11  H   UNL     1       4.193  31.377  59.478  1.00  0.00     0.189 HD
BRANCH  10  12
HETATM   12  C   UNL     1       6.164  31.991  59.614  1.00  0.00     0.186 C 
HETATM   13  S   UNL     1       6.112  32.774  61.091  1.00  0.00    -0.040 SA
BRANCH  12  14
HETATM   14  N   UNL     1       7.358  31.897  58.960  1.00  0.00    -0.364 N 
HETATM   15  H   UNL     1       7.415  32.485  58.131  1.00  0.00     0.162 HD
BRANCH  14  16
HETATM   16  C   UNL     1       8.650  31.574  59.558  1.00  0.00     0.154 C 
BRANCH  16  17
HETATM   17  C   UNL     1       9.241  30.297  58.964  1.00  0.00     0.139 C 
HETATM   18  O   UNL     1       8.196  29.357  58.640  1.00  0.00    -0.384 OA
HETATM   19  C   UNL     1       8.599  28.625  57.472  1.00  0.00     0.168 C 
HETATM   20  C   UNL     1       9.952  29.159  57.043  1.00  0.00     0.029 C 
HETATM   21  C   UNL     1       9.982  30.534  57.662  1.00  0.00     0.035 C 
ENDBRANCH  16  17
ENDBRANCH  14  16
ENDBRANCH  12  14
ENDBRANCH  10  12
ENDBRANCH   7  10
ENDBRANCH   3   6
BRANCH   1  22
HETATM   22  C   UNL     1       5.829  25.567  56.157  1.00  0.00     0.240 C 
BRANCH  22  23
HETATM   23  O   UNL     1       7.163  25.477  55.667  1.00  0.00    -0.345 OA
BRANCH  23  24
HETATM   24  C   UNL     1       7.460  24.402  54.871  1.00  0.00     0.069 A 
HETATM   25  C   UNL     1       7.628  24.438  53.477  1.00  0.00     0.037 A 
HETATM   26  C   UNL     1       7.903  23.267  52.760  1.00  0.00     0.010 A 
HETATM   27  C   UNL     1       8.021  22.076  53.455  1.00  0.00    -0.052 A 
HETATM   28  C   UNL     1       7.858  22.037  54.842  1.00  0.00    -0.049 A 
HETATM   29  C   UNL     1       8.264  20.706  52.909  1.00  0.00     0.039 C 
HETATM   30  C   UNL     1       7.566  23.188  55.557  1.00  0.00     0.044 A 
HETATM   31  C   UNL     1       7.985  20.638  55.357  1.00  0.00     0.039 C 
HETATM   32  C   UNL     1       8.689  19.950  54.177  1.00  0.00     0.009 C 
ENDBRANCH  23  24
ENDBRANCH  22  23
ENDBRANCH   1  22
TORSDOF 9
ENDMDL
MODEL 5
REMARK VINA RESULT:      -9.4      2.576      3.328
REMARK  9 active torsions:
REMARK  status: ('A' for Active; 'I' for Inactive)
REMARK    1  A    between atoms: C_2  and  O_3 
REMARK    2  A    between atoms: O_3  and  C_4 
REMARK    3  A    between atoms: C_4  and  C_5 
REMARK    4  A    between atoms: C_7  and  C_8 
REMARK       I    between atoms: C_8  and  N_9 
REMARK    5  A    between atoms: N_9  and  N_10 
REMARK    6  A    between atoms: N_10  and  C_11 
REMARK    7  A    between atoms: C_11  and  N_12 
REMARK    8  A    between atoms: N_12  and  C_13 
REMARK    9  A    between atoms: C_13  and  C_14 
ROOT
HETATM    1  C   UNL     1       5.329  26.877  55.734  1.00  0.00     0.078 A 
HETATM    2  O   UNL     1       4.942  27.793  56.666  1.00  0.00    -0.307 OA
HETATM    3  C   UNL     1       4.377  28.853  56.006  1.00  0.00     0.145 A 
HETATM    4  C   UNL     1       4.439  28.616  54.643  1.00  0.00     0.045 A 
HETATM    5  C   UNL     1       5.044  27.346  54.471  1.00  0.00     0.038 A 
ENDROOT
BRANCH   3   6
HETATM    6  C   UNL     1       3.840  29.935  56.807  1.00  0.00     0.293 C 
HETATM    7  N   UNL     1       4.219  29.928  58.140  1.00  0.00    -0.262 N 
HETATM    8  H   UNL     1       4.805  29.218  58.564  1.00  0.00     0.190 HD
HETATM    9  O   UNL     1       3.109  30.828  56.375  1.00  0.00    -0.264 OA
BRANCH   7  10
HETATM   10  N   UNL     1       3.826  31.006  58.949  1.00  0.00    -0.274 N 
HETATM   11  H   UNL     1       3.134  30.752  59.653  1.00  0.00     0.189 HD
BRANCH  10  12
HETATM   12  C   UNL     1       4.669  32.059  59.189  1.00  0.00     0.186 C 
HETATM   13  S   UNL     1       4.558  33.563  58.466  1.00  0.00    -0.040 SA
BRANCH  12  14
HETATM   14  N   UNL     1       5.629  31.853  60.137  1.00  0.00    -0.364 N 
HETATM   15  H   UNL     1       6.396  31.264  59.818  1.00  0.00     0.162 HD
BRANCH  14  16
HETATM   16  C   UNL     1       5.979  32.759  61.227  1.00  0.00     0.154 C 
BRANCH  16  17
HETATM   17  C   UNL     1       7.385  32.485  61.758  1.00  0.00     0.139 C 
HETATM   18  O   UNL     1       7.463  31.162  62.326  1.00  0.00    -0.384 OA
HETATM   19  C   UNL     1       8.782  30.649  62.084  1.00  0.00     0.168 C 
HETATM   20  C   UNL     1       9.547  31.702  61.306  1.00  0.00     0.029 C 
HETATM   21  C   UNL     1       8.447  32.517  60.675  1.00  0.00     0.035 C 
ENDBRANCH  16  17
ENDBRANCH  14  16
ENDBRANCH  12  14
ENDBRANCH  10  12
ENDBRANCH   7  10
ENDBRANCH   3   6
BRANCH   1  22
HETATM   22  C   UNL     1       5.935  25.622  56.248  1.00  0.00     0.240 C 
BRANCH  22  23
HETATM   23  O   UNL     1       7.237  25.544  55.676  1.00  0.00    -0.345 OA
BRANCH  23  24
HETATM   24  C   UNL     1       7.504  24.454  54.889  1.00  0.00     0.069 A 
HETATM   25  C   UNL     1       7.641  24.467  53.492  1.00  0.00     0.037 A 
HETATM   26  C   UNL     1       7.887  23.283  52.786  1.00  0.00     0.010 A 
HETATM   27  C   UNL     1       8.006  22.101  53.497  1.00  0.00    -0.052 A 
HETATM   28  C   UNL     1       7.874  22.084  54.887  1.00  0.00    -0.049 A 
HETATM   29  C   UNL     1       8.221  20.720  52.966  1.00  0.00     0.039 C 
HETATM   30  C   UNL     1       7.611  23.248  55.592  1.00  0.00     0.044 A 
HETATM   31  C   UNL     1       7.996  20.692  55.420  1.00  0.00     0.039 C 
HETATM   32  C   UNL     1       8.666  19.978  54.236  1.00  0.00     0.009 C 
ENDBRANCH  23  24
ENDBRANCH  22  23
ENDBRANCH   1  22
TORSDOF 9
ENDMDL
MODEL 6
REMARK VINA RESULT:      -9.2      2.244      3.488
REMARK  9 active torsions:
REMARK  status: ('A' for Active; 'I' for Inactive)
REMARK    1  A    between atoms: C_2  and  O_3 
REMARK    2  A    between atoms: O_3  and  C_4 
REMARK    3  A    between atoms: C_4  and  C_5 
REMARK    4  A    between atoms: C_7  and  C_8 
REMARK       I    between atoms: C_8  and  N_9 
REMARK    5  A    between atoms: N_9  and  N_10 
REMARK    6  A    between atoms: N_10  and  C_11 
REMARK    7  A    between atoms: C_11  and  N_12 
REMARK    8  A    between atoms: N_12  and  C_13 
REMARK    9  A    between atoms: C_13  and  C_14 
ROOT
HETATM    1  C   UNL     1       8.308  28.347  57.591  1.00  0.00     0.078 A 
HETATM    2  O   UNL     1       8.116  29.308  58.538  1.00  0.00    -0.307 OA
HETATM    3  C   UNL     1       9.102  30.250  58.389  1.00  0.00     0.145 A 
HETATM    4  C   UNL     1       9.941  29.860  57.359  1.00  0.00     0.045 A 
HETATM    5  C   UNL     1       9.427  28.643  56.845  1.00  0.00     0.038 A 
ENDROOT
BRANCH   3   6
HETATM    6  C   UNL     1       9.065  31.404  59.265  1.00  0.00     0.293 C 
HETATM    7  N   UNL     1       8.201  31.302  60.343  1.00  0.00    -0.262 N 
HETATM    8  H   UNL     1       7.601  30.504  60.522  1.00  0.00     0.190 HD
HETATM    9  O   UNL     1       9.748  32.419  59.112  1.00  0.00    -0.264 OA
BRANCH   7  10
HETATM   10  N   UNL     1       8.195  32.336  61.292  1.00  0.00    -0.274 N 
HETATM   11  H   UNL     1       8.569  33.214  60.936  1.00  0.00     0.189 HD
BRANCH  10  12
HETATM   12  C   UNL     1       7.275  32.365  62.308  1.00  0.00     0.186 C 
HETATM   13  S   UNL     1       7.584  32.873  63.871  1.00  0.00    -0.040 SA
BRANCH  12  14
HETATM   14  N   UNL     1       6.004  31.996  61.974  1.00  0.00    -0.364 N 
HETATM   15  H   UNL     1       5.699  31.135  62.423  1.00  0.00     0.162 HD
BRANCH  14  16
HETATM   16  C   UNL     1       4.918  32.890  61.585  1.00  0.00     0.154 C 
BRANCH  16  17
HETATM   17  C   UNL     1       4.535  32.706  60.117  1.00  0.00     0.139 C 
HETATM   18  O   UNL     1       5.661  32.222  59.357  1.00  0.00    -0.384 OA
HETATM   19  C   UNL     1       5.164  31.359  58.323  1.00  0.00     0.168 C 
HETATM   20  C   UNL     1       3.656  31.291  58.469  1.00  0.00     0.029 C 
HETATM   21  C   UNL     1       3.442  31.675  59.912  1.00  0.00     0.035 C 
ENDBRANCH  16  17
ENDBRANCH  14  16
ENDBRANCH  12  14
ENDBRANCH  10  12
ENDBRANCH   7  10
ENDBRANCH   3   6
BRANCH   1  22
HETATM   22  C   UNL     1       7.314  27.244  57.553  1.00  0.00     0.240 C 
BRANCH  22  23
HETATM   23  O   UNL     1       8.008  26.068  57.960  1.00  0.00    -0.345 OA
BRANCH  23  24
HETATM   24  C   UNL     1       8.129  25.068  57.031  1.00  0.00     0.069 A 
HETATM   25  C   UNL     1       8.614  23.774  57.280  1.00  0.00     0.037 A 
HETATM   26  C   UNL     1       8.719  22.837  56.244  1.00  0.00     0.010 A 
HETATM   27  C   UNL     1       8.321  23.210  54.972  1.00  0.00    -0.052 A 
HETATM   28  C   UNL     1       7.835  24.495  54.720  1.00  0.00    -0.049 A 
HETATM   29  C   UNL     1       8.381  22.408  53.711  1.00  0.00     0.039 C 
HETATM   30  C   UNL     1       7.745  25.434  55.736  1.00  0.00     0.044 A 
HETATM   31  C   UNL     1       7.514  24.672  53.270  1.00  0.00     0.039 C 
HETATM   32  C   UNL     1       7.439  23.211  52.802  1.00  0.00     0.009 C 
ENDBRANCH  23  24
ENDBRANCH  22  23
ENDBRANCH   1  22
TORSDOF 9
ENDMDL
MODEL 7
REMARK VINA RESULT:      -9.2      2.407      3.761
REMARK  9 active torsions:
REMARK  status: ('A' for Active; 'I' for Inactive)
REMARK    1  A    between atoms: C_2  and  O_3 
REMARK    2  A    between atoms: O_3  and  C_4 
REMARK    3  A    between atoms: C_4  and  C_5 
REMARK    4  A    between atoms: C_7  and  C_8 
REMARK       I    between atoms: C_8  and  N_9 
REMARK    5  A    between atoms: N_9  and  N_10 
REMARK    6  A    between atoms: N_10  and  C_11 
REMARK    7  A    between atoms: C_11  and  N_12 
REMARK    8  A    between atoms: N_12  and  C_13 
REMARK    9  A    between atoms: C_13  and  C_14 
ROOT
HETATM    1  C   UNL     1       5.649  27.981  56.759  1.00  0.00     0.078 A 
HETATM    2  O   UNL     1       6.072  29.022  57.531  1.00  0.00    -0.307 OA
HETATM    3  C   UNL     1       5.373  30.139  57.153  1.00  0.00     0.145 A 
HETATM    4  C   UNL     1       4.525  29.805  56.110  1.00  0.00     0.045 A 
HETATM    5  C   UNL     1       4.700  28.420  55.862  1.00  0.00     0.038 A 
ENDROOT
BRANCH   3   6
HETATM    6  C   UNL     1       5.622  31.366  57.883  1.00  0.00     0.293 C 
HETATM    7  N   UNL     1       5.703  31.229  59.260  1.00  0.00    -0.262 N 
HETATM    8  H   UNL     1       5.574  30.355  59.756  1.00  0.00     0.190 HD
HETATM    9  O   UNL     1       5.775  32.471  57.359  1.00  0.00    -0.264 OA
BRANCH   7  10
HETATM   10  N   UNL     1       6.051  32.357  60.021  1.00  0.00    -0.274 N 
HETATM   11  H   UNL     1       5.716  33.233  59.622  1.00  0.00     0.189 HD
BRANCH  10  12
HETATM   12  C   UNL     1       6.246  32.268  61.374  1.00  0.00     0.186 C 
HETATM   13  S   UNL     1       5.668  33.360  62.502  1.00  0.00    -0.040 SA
BRANCH  12  14
HETATM   14  N   UNL     1       6.918  31.164  61.811  1.00  0.00    -0.364 N 
HETATM   15  H   UNL     1       6.550  30.290  61.440  1.00  0.00     0.162 HD
BRANCH  14  16
HETATM   16  C   UNL     1       8.322  31.105  62.208  1.00  0.00     0.154 C 
BRANCH  16  17
HETATM   17  C   UNL     1       9.235  30.844  61.012  1.00  0.00     0.139 C 
HETATM   18  O   UNL     1       8.556  30.045  60.021  1.00  0.00    -0.384 OA
HETATM   19  C   UNL     1       9.018  30.454  58.724  1.00  0.00     0.168 C 
HETATM   20  C   UNL     1      10.015  31.578  58.927  1.00  0.00     0.029 C 
HETATM   21  C   UNL     1       9.645  32.112  60.288  1.00  0.00     0.035 C 
ENDBRANCH  16  17
ENDBRANCH  14  16
ENDBRANCH  12  14
ENDBRANCH  10  12
ENDBRANCH   7  10
ENDBRANCH   3   6
BRANCH   1  22
HETATM   22  C   UNL     1       6.260  26.656  57.038  1.00  0.00     0.240 C 
BRANCH  22  23
HETATM   23  O   UNL     1       7.061  26.339  55.903  1.00  0.00    -0.345 OA
BRANCH  23  24
HETATM   24  C   UNL     1       7.447  25.032  55.763  1.00  0.00     0.069 A 
HETATM   25  C   UNL     1       7.873  24.188  56.802  1.00  0.00     0.037 A 
HETATM   26  C   UNL     1       8.272  22.872  56.537  1.00  0.00     0.010 A 
HETATM   27  C   UNL     1       8.225  22.416  55.231  1.00  0.00    -0.052 A 
HETATM   28  C   UNL     1       7.799  23.251  54.195  1.00  0.00    -0.049 A 
HETATM   29  C   UNL     1       8.639  21.081  54.701  1.00  0.00     0.039 C 
HETATM   30  C   UNL     1       7.420  24.561  54.446  1.00  0.00     0.044 A 
HETATM   31  C   UNL     1       7.879  22.551  52.876  1.00  0.00     0.039 C 
HETATM   32  C   UNL     1       7.962  21.083  53.323  1.00  0.00     0.009 C 
ENDBRANCH  23  24
ENDBRANCH  22  23
ENDBRANCH   1  22
TORSDOF 9
ENDMDL
MODEL 8
REMARK VINA RESULT:      -9.1      1.557      2.535
REMARK  9 active torsions:
REMARK  status: ('A' for Active; 'I' for Inactive)
REMARK    1  A    between atoms: C_2  and  O_3 
REMARK    2  A    between atoms: O_3  and  C_4 
REMARK    3  A    between atoms: C_4  and  C_5 
REMARK    4  A    between atoms: C_7  and  C_8 
REMARK       I    between atoms: C_8  and  N_9 
REMARK    5  A    between atoms: N_9  and  N_10 
REMARK    6  A    between atoms: N_10  and  C_11 
REMARK    7  A    between atoms: C_11  and  N_12 
REMARK    8  A    between atoms: N_12  and  C_13 
REMARK    9  A    between atoms: C_13  and  C_14 
ROOT
HETATM    1  C   UNL     1       8.774  29.213  57.648  1.00  0.00     0.078 A 
HETATM    2  O   UNL     1       8.302  29.430  58.908  1.00  0.00    -0.307 OA
HETATM    3  C   UNL     1       9.040  30.441  59.467  1.00  0.00     0.145 A 
HETATM    4  C   UNL     1      10.008  30.842  58.561  1.00  0.00     0.045 A 
HETATM    5  C   UNL     1       9.833  30.057  57.394  1.00  0.00     0.038 A 
ENDROOT
BRANCH   3   6
HETATM    6  C   UNL     1       8.676  30.881  60.799  1.00  0.00     0.293 C 
HETATM    7  N   UNL     1       7.320  30.843  61.084  1.00  0.00    -0.262 N 
HETATM    8  H   UNL     1       6.604  30.561  60.424  1.00  0.00     0.190 HD
HETATM    9  O   UNL     1       9.480  31.254  61.656  1.00  0.00    -0.264 OA
BRANCH   7  10
HETATM   10  N   UNL     1       6.907  31.151  62.391  1.00  0.00    -0.274 N 
HETATM   11  H   UNL     1       7.567  30.849  63.105  1.00  0.00     0.189 HD
BRANCH  10  12
HETATM   12  C   UNL     1       6.090  32.222  62.644  1.00  0.00     0.186 C 
HETATM   13  S   UNL     1       4.480  32.328  62.202  1.00  0.00    -0.040 SA
BRANCH  12  14
HETATM   14  N   UNL     1       6.644  33.241  63.362  1.00  0.00    -0.364 N 
HETATM   15  H   UNL     1       6.582  34.145  62.899  1.00  0.00     0.162 HD
BRANCH  14  16
HETATM   16  C   UNL     1       6.756  33.315  64.815  1.00  0.00     0.154 C 
BRANCH  16  17
HETATM   17  C   UNL     1       5.865  34.413  65.393  1.00  0.00     0.139 C 
HETATM   18  O   UNL     1       5.474  35.343  64.363  1.00  0.00    -0.384 OA
HETATM   19  C   UNL     1       4.149  35.811  64.663  1.00  0.00     0.168 C 
HETATM   20  C   UNL     1       3.694  35.115  65.931  1.00  0.00     0.029 C 
HETATM   21  C   UNL     1       4.565  33.883  65.967  1.00  0.00     0.035 C 
ENDBRANCH  16  17
ENDBRANCH  14  16
ENDBRANCH  12  14
ENDBRANCH  10  12
ENDBRANCH   7  10
ENDBRANCH   3   6
BRANCH   1  22
HETATM   22  C   UNL     1       8.078  28.174  56.847  1.00  0.00     0.240 C 
BRANCH  22  23
HETATM   23  O   UNL     1       8.111  26.981  57.626  1.00  0.00    -0.345 OA
BRANCH  23  24
HETATM   24  C   UNL     1       8.186  25.796  56.942  1.00  0.00     0.069 A 
HETATM   25  C   UNL     1       8.678  24.585  57.454  1.00  0.00     0.037 A 
HETATM   26  C   UNL     1       8.733  23.439  56.652  1.00  0.00     0.010 A 
HETATM   27  C   UNL     1       8.279  23.521  55.347  1.00  0.00    -0.052 A 
HETATM   28  C   UNL     1       7.786  24.724  54.834  1.00  0.00    -0.049 A 
HETATM   29  C   UNL     1       8.279  22.456  54.297  1.00  0.00     0.039 C 
HETATM   30  C   UNL     1       7.746  25.867  55.616  1.00  0.00     0.044 A 
HETATM   31  C   UNL     1       7.401  24.575  53.397  1.00  0.00     0.039 C 
HETATM   32  C   UNL     1       7.300  23.047  53.272  1.00  0.00     0.009 C 
ENDBRANCH  23  24
ENDBRANCH  22  23
ENDBRANCH   1  22
TORSDOF 9
ENDMDL
MODEL 9
REMARK VINA RESULT:      -9.1      3.420      5.044
REMARK  9 active torsions:
REMARK  status: ('A' for Active; 'I' for Inactive)
REMARK    1  A    between atoms: C_2  and  O_3 
REMARK    2  A    between atoms: O_3  and  C_4 
REMARK    3  A    between atoms: C_4  and  C_5 
REMARK    4  A    between atoms: C_7  and  C_8 
REMARK       I    between atoms: C_8  and  N_9 
REMARK    5  A    between atoms: N_9  and  N_10 
REMARK    6  A    between atoms: N_10  and  C_11 
REMARK    7  A    between atoms: C_11  and  N_12 
REMARK    8  A    between atoms: N_12  and  C_13 
REMARK    9  A    between atoms: C_13  and  C_14 
ROOT
HETATM    1  C   UNL     1       6.255  27.034  52.691  1.00  0.00     0.078 A 
HETATM    2  O   UNL     1       6.092  27.157  54.039  1.00  0.00    -0.307 OA
HETATM    3  C   UNL     1       5.340  28.280  54.271  1.00  0.00     0.145 A 
HETATM    4  C   UNL     1       5.055  28.887  53.060  1.00  0.00     0.045 A 
HETATM    5  C   UNL     1       5.638  28.084  52.048  1.00  0.00     0.038 A 
ENDROOT
BRANCH   3   6
HETATM    6  C   UNL     1       4.992  28.582  55.645  1.00  0.00     0.293 C 
HETATM    7  N   UNL     1       6.044  29.007  56.442  1.00  0.00    -0.262 N 
HETATM    8  H   UNL     1       7.004  29.085  56.127  1.00  0.00     0.190 HD
HETATM    9  O   UNL     1       3.854  28.498  56.113  1.00  0.00    -0.264 OA
BRANCH   7  10
HETATM   10  N   UNL     1       5.760  29.421  57.753  1.00  0.00    -0.274 N 
HETATM   11  H   UNL     1       6.007  28.729  58.458  1.00  0.00     0.189 HD
BRANCH  10  12
HETATM   12  C   UNL     1       5.751  30.749  58.092  1.00  0.00     0.186 C 
HETATM   13  S   UNL     1       4.377  31.658  58.386  1.00  0.00    -0.040 SA
BRANCH  12  14
HETATM   14  N   UNL     1       6.974  31.335  58.249  1.00  0.00    -0.364 N 
HETATM   15  H   UNL     1       7.037  32.262  57.834  1.00  0.00     0.162 HD
BRANCH  14  16
HETATM   16  C   UNL     1       7.913  31.099  59.342  1.00  0.00     0.154 C 
BRANCH  16  17
HETATM   17  C   UNL     1       9.148  30.335  58.868  1.00  0.00     0.139 C 
HETATM   18  O   UNL     1       8.778  29.306  57.928  1.00  0.00    -0.384 OA
HETATM   19  C   UNL     1       9.839  29.173  56.970  1.00  0.00     0.168 C 
HETATM   20  C   UNL     1      10.907  30.189  57.326  1.00  0.00     0.029 C 
HETATM   21  C   UNL     1      10.142  31.211  58.129  1.00  0.00     0.035 C 
ENDBRANCH  16  17
ENDBRANCH  14  16
ENDBRANCH  12  14
ENDBRANCH  10  12
ENDBRANCH   7  10
ENDBRANCH   3   6
BRANCH   1  22
HETATM   22  C   UNL     1       7.016  25.848  52.220  1.00  0.00     0.240 C 
BRANCH  22  23
HETATM   23  O   UNL     1       7.894  25.488  53.283  1.00  0.00    -0.345 OA
BRANCH  23  24
HETATM   24  C   UNL     1       7.970  24.158  53.600  1.00  0.00     0.069 A 
HETATM   25  C   UNL     1       7.865  23.093  52.691  1.00  0.00     0.037 A 
HETATM   26  C   UNL     1       7.931  21.766  53.133  1.00  0.00     0.010 A 
HETATM   27  C   UNL     1       8.118  21.526  54.483  1.00  0.00    -0.052 A 
HETATM   28  C   UNL     1       8.226  22.583  55.390  1.00  0.00    -0.049 A 
HETATM   29  C   UNL     1       8.175  20.210  55.190  1.00  0.00     0.039 C 
HETATM   30  C   UNL     1       8.143  23.898  54.964  1.00  0.00     0.044 A 
HETATM   31  C   UNL     1       8.376  22.074  56.789  1.00  0.00     0.039 C 
HETATM   32  C   UNL     1       8.798  20.619  56.533  1.00  0.00     0.009 C 
ENDBRANCH  23  24
ENDBRANCH  22  23
ENDBRANCH   1  22
TORSDOF 9
ENDMDL
MODEL 10
REMARK VINA RESULT:      -9.1      2.428      2.677
REMARK  9 active torsions:
REMARK  status: ('A' for Active; 'I' for Inactive)
REMARK    1  A    between atoms: C_2  and  O_3 
REMARK    2  A    between atoms: O_3  and  C_4 
REMARK    3  A    between atoms: C_4  and  C_5 
REMARK    4  A    between atoms: C_7  and  C_8 
REMARK       I    between atoms: C_8  and  N_9 
REMARK    5  A    between atoms: N_9  and  N_10 
REMARK    6  A    between atoms: N_10  and  C_11 
REMARK    7  A    between atoms: C_11  and  N_12 
REMARK    8  A    between atoms: N_12  and  C_13 
REMARK    9  A    between atoms: C_13  and  C_14 
ROOT
HETATM    1  C   UNL     1       5.439  27.720  55.341  1.00  0.00     0.078 A 
HETATM    2  O   UNL     1       4.444  28.164  56.160  1.00  0.00    -0.307 OA
HETATM    3  C   UNL     1       4.692  29.481  56.448  1.00  0.00     0.145 A 
HETATM    4  C   UNL     1       5.872  29.860  55.832  1.00  0.00     0.045 A 
HETATM    5  C   UNL     1       6.347  28.731  55.118  1.00  0.00     0.038 A 
ENDROOT
BRANCH   3   6
HETATM    6  C   UNL     1       3.725  30.182  57.269  1.00  0.00     0.293 C 
HETATM    7  N   UNL     1       3.900  30.045  58.637  1.00  0.00    -0.262 N 
HETATM    8  H   UNL     1       4.624  29.481  59.067  1.00  0.00     0.190 HD
HETATM    9  O   UNL     1       2.806  30.876  56.828  1.00  0.00    -0.264 OA
BRANCH   7  10
HETATM   10  N   UNL     1       3.067  30.785  59.492  1.00  0.00    -0.274 N 
HETATM   11  H   UNL     1       2.323  30.229  59.911  1.00  0.00     0.189 HD
BRANCH  10  12
HETATM   12  C   UNL     1       3.531  31.891  60.154  1.00  0.00     0.186 C 
HETATM   13  S   UNL     1       3.447  33.460  59.581  1.00  0.00    -0.040 SA
BRANCH  12  14
HETATM   14  N   UNL     1       4.046  31.671  61.399  1.00  0.00    -0.364 N 
HETATM   15  H   UNL     1       4.027  30.693  61.680  1.00  0.00     0.162 HD
BRANCH  14  16
HETATM   16  C   UNL     1       5.072  32.469  62.065  1.00  0.00     0.154 C 
BRANCH  16  17
HETATM   17  C   UNL     1       4.480  33.332  63.177  1.00  0.00     0.139 C 
HETATM   18  O   UNL     1       4.612  32.674  64.454  1.00  0.00    -0.384 OA
HETATM   19  C   UNL     1       4.814  33.681  65.457  1.00  0.00     0.168 C 
HETATM   20  C   UNL     1       4.830  35.027  64.758  1.00  0.00     0.029 C 
HETATM   21  C   UNL     1       5.190  34.662  63.339  1.00  0.00     0.035 C 
ENDBRANCH  16  17
ENDBRANCH  14  16
ENDBRANCH  12  14
ENDBRANCH  10  12
ENDBRANCH   7  10
ENDBRANCH   3   6
BRANCH   1  22
HETATM   22  C   UNL     1       5.337  26.313  54.874  1.00  0.00     0.240 C 
BRANCH  22  23
HETATM   23  O   UNL     1       6.463  25.629  55.418  1.00  0.00    -0.345 OA
BRANCH  23  24
HETATM   24  C   UNL     1       6.914  24.534  54.729  1.00  0.00     0.069 A 
HETATM   25  C   UNL     1       7.145  24.475  53.346  1.00  0.00     0.037 A 
HETATM   26  C   UNL     1       7.582  23.288  52.744  1.00  0.00     0.010 A 
HETATM   27  C   UNL     1       7.794  22.179  53.543  1.00  0.00    -0.052 A 
HETATM   28  C   UNL     1       7.568  22.234  54.921  1.00  0.00    -0.049 A 
HETATM   29  C   UNL     1       8.211  20.804  53.128  1.00  0.00     0.039 C 
HETATM   30  C   UNL     1       7.118  23.399  55.522  1.00  0.00     0.044 A 
HETATM   31  C   UNL     1       7.821  20.905  55.559  1.00  0.00     0.039 C 
HETATM   32  C   UNL     1       8.653  20.207  54.472  1.00  0.00     0.009 C 
ENDBRANCH  23  24
ENDBRANCH  22  23
ENDBRANCH   1  22
TORSDOF 9
ENDMDL
