MODEL 1
REMARK VINA RESULT:     -10.1      0.000      0.000
REMARK  9 active torsions:
REMARK  status: ('A' for Active; 'I' for Inactive)
REMARK    1  A    between atoms: C_2  and  O_3 
REMARK    2  A    between atoms: O_3  and  C_4 
REMARK    3  A    between atoms: C_5  and  O_6 
REMARK    4  A    between atoms: C_9  and  C_10 
REMARK    5  A    between atoms: C_10  and  N_11 
REMARK    6  A    between atoms: C_13  and  C_14 
REMARK       I    between atoms: C_14  and  N_15 
REMARK    7  A    between atoms: N_15  and  C_16 
REMARK    8  A    between atoms: C_28  and  S_29 
REMARK    9  A    between atoms: S_29  and  C_30 
ROOT
HETATM    1  N   UNL     1       6.014  26.412  52.546  1.00  0.00    -0.053 N 
HETATM    2  H   UNL     1       6.919  25.924  52.528  1.00  0.00     0.281 HD
HETATM    3  C   UNL     1       6.358  27.908  52.629  1.00  0.00     0.281 C 
HETATM    4  C   UNL     1       5.145  28.586  52.024  1.00  0.00     0.060 C 
HETATM    5  C   UNL     1       4.647  27.621  50.938  1.00  0.00     0.082 C 
HETATM    6  C   UNL     1       5.348  26.274  51.197  1.00  0.00     0.252 C 
ENDROOT
BRANCH   3   7
HETATM    7  C   UNL     1       6.873  28.375  53.999  1.00  0.00     0.253 C 
HETATM    8  N   UNL     1       5.944  28.992  54.814  1.00  0.00    -0.325 N 
HETATM    9  H   UNL     1       4.969  29.001  54.537  1.00  0.00     0.169 HD
HETATM   10  O   UNL     1       8.068  28.236  54.250  1.00  0.00    -0.271 OA
BRANCH   8  11
HETATM   11  C   UNL     1       6.214  29.672  56.030  1.00  0.00     0.037 A 
HETATM   12  C   UNL     1       7.160  29.243  56.968  1.00  0.00     0.062 A 
HETATM   13  C   UNL     1       7.414  30.002  58.133  1.00  0.00     0.077 A 
HETATM   14  C   UNL     1       6.695  31.177  58.343  1.00  0.00     0.035 A 
HETATM   15  N   UNL     1       8.342  29.692  59.111  1.00  0.00    -0.245 NA
HETATM   16  S   UNL     1       7.206  31.888  59.825  1.00  0.00    -0.073 SA
HETATM   17  C   UNL     1       5.731  31.622  57.426  1.00  0.00     0.023 A 
HETATM   18  C   UNL     1       8.339  30.616  60.046  1.00  0.00     0.072 A 
HETATM   19  C   UNL     1       9.228  30.597  61.239  1.00  0.00     0.079 C 
HETATM   20  C   UNL     1       5.512  30.857  56.271  1.00  0.00     0.031 A 
ENDBRANCH   8  11
ENDBRANCH   3   7
BRANCH   1  21
HETATM   21  C   UNL     1       5.274  25.741  53.692  1.00  0.00     0.274 C 
BRANCH  21  22
HETATM   22  C   UNL     1       6.100  24.987  54.701  1.00  0.00    -0.030 A 
HETATM   23  C   UNL     1       6.161  25.434  56.034  1.00  0.00     0.012 A 
HETATM   24  C   UNL     1       6.930  24.756  56.977  1.00  0.00     0.040 A 
HETATM   25  C   UNL     1       7.641  23.631  56.589  1.00  0.00     0.099 A 
HETATM   26  C   UNL     1       7.600  23.157  55.276  1.00  0.00     0.102 A 
HETATM   27  C   UNL     1       6.806  23.823  54.339  1.00  0.00     0.048 A 
BRANCH  25  28
HETATM   28  O   UNL     1       8.390  22.990  57.537  1.00  0.00    -0.358 OA
HETATM   29  H   UNL     1       7.775  22.392  58.004  1.00  0.00     0.218 HD
ENDBRANCH  25  28
BRANCH  26  30
HETATM   30  O   UNL     1       8.362  22.045  55.041  1.00  0.00    -0.349 OA
BRANCH  30  31
HETATM   31  C   UNL     1       8.803  21.831  53.701  1.00  0.00     0.171 C 
HETATM   32  C   UNL     1       8.113  20.582  53.184  1.00  0.00     0.034 C 
ENDBRANCH  30  31
ENDBRANCH  26  30
ENDBRANCH  21  22
ENDBRANCH   1  21
BRANCH   5  33
HETATM   33  S   UNL     1       5.065  28.282  49.281  1.00  0.00    -0.104 SA
BRANCH  33  34
HETATM   34  C   UNL     1       3.647  27.725  48.346  1.00  0.00     0.093 A 
HETATM   35  N   UNL     1       2.549  28.517  48.347  1.00  0.00    -0.254 NA
HETATM   36  C   UNL     1       1.483  28.082  47.632  1.00  0.00     0.118 A 
HETATM   37  C   UNL     1       1.454  26.885  46.938  1.00  0.00     0.019 A 
HETATM   38  C   UNL     1       2.587  26.082  46.972  1.00  0.00     0.004 A 
HETATM   39  C   UNL     1       3.706  26.507  47.684  1.00  0.00     0.039 A 
ENDBRANCH  33  34
ENDBRANCH   5  33
TORSDOF 9
ENDMDL
MODEL 2
REMARK VINA RESULT:     -10.0      4.396      7.385
REMARK  9 active torsions:
REMARK  status: ('A' for Active; 'I' for Inactive)
REMARK    1  A    between atoms: C_2  and  O_3 
REMARK    2  A    between atoms: O_3  and  C_4 
REMARK    3  A    between atoms: C_5  and  O_6 
REMARK    4  A    between atoms: C_9  and  C_10 
REMARK    5  A    between atoms: C_10  and  N_11 
REMARK    6  A    between atoms: C_13  and  C_14 
REMARK       I    between atoms: C_14  and  N_15 
REMARK    7  A    between atoms: N_15  and  C_16 
REMARK    8  A    between atoms: C_28  and  S_29 
REMARK    9  A    between atoms: S_29  and  C_30 
ROOT
HETATM    1  N   UNL     1       7.261  27.259  55.628  1.00  0.00    -0.053 N 
HETATM    2  H   UNL     1       7.763  28.029  55.167  1.00  0.00     0.281 HD
HETATM    3  C   UNL     1       5.874  27.222  54.969  1.00  0.00     0.281 C 
HETATM    4  C   UNL     1       5.426  25.787  55.161  1.00  0.00     0.060 C 
HETATM    5  C   UNL     1       6.714  24.953  55.084  1.00  0.00     0.082 C 
HETATM    6  C   UNL     1       7.884  25.944  55.221  1.00  0.00     0.252 C 
ENDROOT
BRANCH   3   7
HETATM    7  C   UNL     1       4.932  28.363  55.385  1.00  0.00     0.253 C 
HETATM    8  N   UNL     1       5.156  29.582  54.776  1.00  0.00    -0.325 N 
HETATM    9  H   UNL     1       5.826  29.642  54.017  1.00  0.00     0.169 HD
HETATM   10  O   UNL     1       4.103  28.142  56.265  1.00  0.00    -0.271 OA
BRANCH   8  11
HETATM   11  C   UNL     1       4.555  30.819  55.125  1.00  0.00     0.037 A 
HETATM   12  C   UNL     1       5.171  31.784  55.932  1.00  0.00     0.062 A 
HETATM   13  C   UNL     1       4.533  33.017  56.193  1.00  0.00     0.077 A 
HETATM   14  C   UNL     1       3.272  33.253  55.649  1.00  0.00     0.035 A 
HETATM   15  N   UNL     1       5.057  34.051  56.948  1.00  0.00    -0.245 NA
HETATM   16  S   UNL     1       2.743  34.819  56.127  1.00  0.00    -0.073 SA
HETATM   17  C   UNL     1       2.626  32.299  54.850  1.00  0.00     0.023 A 
HETATM   18  C   UNL     1       4.216  35.061  56.975  1.00  0.00     0.072 A 
HETATM   19  C   UNL     1       4.474  36.342  57.689  1.00  0.00     0.079 C 
HETATM   20  C   UNL     1       3.291  31.090  54.593  1.00  0.00     0.031 A 
ENDBRANCH   8  11
ENDBRANCH   3   7
BRANCH   1  21
HETATM   21  C   UNL     1       7.388  27.593  57.107  1.00  0.00     0.274 C 
BRANCH  21  22
HETATM   22  C   UNL     1       8.206  28.803  57.474  1.00  0.00    -0.030 A 
HETATM   23  C   UNL     1       9.558  28.881  57.089  1.00  0.00     0.012 A 
HETATM   24  C   UNL     1      10.331  29.986  57.432  1.00  0.00     0.040 A 
HETATM   25  C   UNL     1       9.757  31.016  58.160  1.00  0.00     0.099 A 
HETATM   26  C   UNL     1       8.418  30.974  58.556  1.00  0.00     0.102 A 
HETATM   27  C   UNL     1       7.637  29.876  58.187  1.00  0.00     0.048 A 
BRANCH  25  28
HETATM   28  O   UNL     1      10.545  32.086  58.485  1.00  0.00    -0.358 OA
HETATM   29  H   UNL     1      11.335  31.712  58.923  1.00  0.00     0.218 HD
ENDBRANCH  25  28
BRANCH  26  30
HETATM   30  O   UNL     1       7.997  32.056  59.279  1.00  0.00    -0.349 OA
BRANCH  30  31
HETATM   31  C   UNL     1       7.531  31.810  60.605  1.00  0.00     0.171 C 
HETATM   32  C   UNL     1       8.725  31.897  61.537  1.00  0.00     0.034 C 
ENDBRANCH  30  31
ENDBRANCH  26  30
ENDBRANCH  21  22
ENDBRANCH   1  21
BRANCH   5  33
HETATM   33  S   UNL     1       6.780  24.061  53.485  1.00  0.00    -0.104 SA
BRANCH  33  34
HETATM   34  C   UNL     1       7.501  22.512  54.011  1.00  0.00     0.093 A 
HETATM   35  N   UNL     1       7.545  22.264  55.341  1.00  0.00    -0.254 NA
HETATM   36  C   UNL     1       8.093  21.085  55.724  1.00  0.00     0.118 A 
HETATM   37  C   UNL     1       8.620  20.156  54.843  1.00  0.00     0.019 A 
HETATM   38  C   UNL     1       8.580  20.445  53.486  1.00  0.00     0.004 A 
HETATM   39  C   UNL     1       8.009  21.641  53.057  1.00  0.00     0.039 A 
ENDBRANCH  33  34
ENDBRANCH   5  33
TORSDOF 9
ENDMDL
MODEL 3
REMARK VINA RESULT:      -9.6      1.727      8.674
REMARK  9 active torsions:
REMARK  status: ('A' for Active; 'I' for Inactive)
REMARK    1  A    between atoms: C_2  and  O_3 
REMARK    2  A    between atoms: O_3  and  C_4 
REMARK    3  A    between atoms: C_5  and  O_6 
REMARK    4  A    between atoms: C_9  and  C_10 
REMARK    5  A    between atoms: C_10  and  N_11 
REMARK    6  A    between atoms: C_13  and  C_14 
REMARK       I    between atoms: C_14  and  N_15 
REMARK    7  A    between atoms: N_15  and  C_16 
REMARK    8  A    between atoms: C_28  and  S_29 
REMARK    9  A    between atoms: S_29  and  C_30 
ROOT
HETATM    1  N   UNL     1       6.503  27.894  56.478  1.00  0.00    -0.053 N 
HETATM    2  H   UNL     1       5.917  27.121  56.822  1.00  0.00     0.281 HD
HETATM    3  C   UNL     1       5.532  28.869  55.794  1.00  0.00     0.281 C 
HETATM    4  C   UNL     1       6.247  30.203  55.882  1.00  0.00     0.060 C 
HETATM    5  C   UNL     1       7.019  30.155  57.208  1.00  0.00     0.082 C 
HETATM    6  C   UNL     1       7.027  28.682  57.656  1.00  0.00     0.252 C 
ENDROOT
BRANCH   3   7
HETATM    7  C   UNL     1       4.995  28.394  54.434  1.00  0.00     0.253 C 
HETATM    8  N   UNL     1       5.817  28.623  53.348  1.00  0.00    -0.325 N 
HETATM    9  H   UNL     1       6.757  28.969  53.501  1.00  0.00     0.169 HD
HETATM   10  O   UNL     1       3.864  27.915  54.391  1.00  0.00    -0.271 OA
BRANCH   8  11
HETATM   11  C   UNL     1       5.470  28.453  51.983  1.00  0.00     0.037 A 
HETATM   12  C   UNL     1       5.000  27.250  51.443  1.00  0.00     0.062 A 
HETATM   13  C   UNL     1       4.623  27.171  50.083  1.00  0.00     0.077 A 
HETATM   14  C   UNL     1       4.742  28.304  49.282  1.00  0.00     0.035 A 
HETATM   15  N   UNL     1       4.119  26.048  49.451  1.00  0.00    -0.245 NA
HETATM   16  S   UNL     1       4.215  27.921  47.689  1.00  0.00    -0.073 SA
HETATM   17  C   UNL     1       5.224  29.518  49.793  1.00  0.00     0.023 A 
HETATM   18  C   UNL     1       3.851  26.320  48.193  1.00  0.00     0.072 A 
HETATM   19  C   UNL     1       3.283  25.336  47.230  1.00  0.00     0.079 C 
HETATM   20  C   UNL     1       5.576  29.573  51.151  1.00  0.00     0.031 A 
ENDBRANCH   8  11
ENDBRANCH   3   7
BRANCH   1  21
HETATM   21  C   UNL     1       7.571  27.188  55.658  1.00  0.00     0.274 C 
BRANCH  21  22
HETATM   22  C   UNL     1       7.787  25.720  55.922  1.00  0.00    -0.030 A 
HETATM   23  C   UNL     1       8.426  25.306  57.105  1.00  0.00     0.012 A 
HETATM   24  C   UNL     1       8.645  23.954  57.359  1.00  0.00     0.040 A 
HETATM   25  C   UNL     1       8.227  23.014  56.430  1.00  0.00     0.099 A 
HETATM   26  C   UNL     1       7.588  23.390  55.247  1.00  0.00     0.102 A 
HETATM   27  C   UNL     1       7.344  24.744  55.007  1.00  0.00     0.048 A 
BRANCH  25  28
HETATM   28  O   UNL     1       8.462  21.695  56.706  1.00  0.00    -0.358 OA
HETATM   29  H   UNL     1       8.873  21.677  57.593  1.00  0.00     0.218 HD
ENDBRANCH  25  28
BRANCH  26  30
HETATM   30  O   UNL     1       7.245  22.352  54.423  1.00  0.00    -0.349 OA
BRANCH  30  31
HETATM   31  C   UNL     1       7.984  22.216  53.209  1.00  0.00     0.171 C 
HETATM   32  C   UNL     1       8.335  20.748  53.047  1.00  0.00     0.034 C 
ENDBRANCH  30  31
ENDBRANCH  26  30
ENDBRANCH  21  22
ENDBRANCH   1  21
BRANCH   5  33
HETATM   33  S   UNL     1       6.193  31.223  58.446  1.00  0.00    -0.104 SA
BRANCH  33  34
HETATM   34  C   UNL     1       7.564  31.568  59.539  1.00  0.00     0.093 A 
HETATM   35  N   UNL     1       8.778  31.769  58.975  1.00  0.00    -0.254 NA
HETATM   36  C   UNL     1       9.807  32.031  59.816  1.00  0.00     0.118 A 
HETATM   37  C   UNL     1       9.685  32.078  61.194  1.00  0.00     0.019 A 
HETATM   38  C   UNL     1       8.433  31.847  61.749  1.00  0.00     0.004 A 
HETATM   39  C   UNL     1       7.351  31.591  60.911  1.00  0.00     0.039 A 
ENDBRANCH  33  34
ENDBRANCH   5  33
TORSDOF 9
ENDMDL
MODEL 4
REMARK VINA RESULT:      -9.5      3.732      9.672
REMARK  9 active torsions:
REMARK  status: ('A' for Active; 'I' for Inactive)
REMARK    1  A    between atoms: C_2  and  O_3 
REMARK    2  A    between atoms: O_3  and  C_4 
REMARK    3  A    between atoms: C_5  and  O_6 
REMARK    4  A    between atoms: C_9  and  C_10 
REMARK    5  A    between atoms: C_10  and  N_11 
REMARK    6  A    between atoms: C_13  and  C_14 
REMARK       I    between atoms: C_14  and  N_15 
REMARK    7  A    between atoms: N_15  and  C_16 
REMARK    8  A    between atoms: C_28  and  S_29 
REMARK    9  A    between atoms: S_29  and  C_30 
ROOT
HETATM    1  N   UNL     1       6.479  30.542  57.170  1.00  0.00    -0.053 N 
HETATM    2  H   UNL     1       6.581  30.959  56.235  1.00  0.00     0.281 HD
HETATM    3  C   UNL     1       7.807  29.819  57.442  1.00  0.00     0.281 C 
HETATM    4  C   UNL     1       7.892  29.788  58.955  1.00  0.00     0.060 C 
HETATM    5  C   UNL     1       7.223  31.090  59.419  1.00  0.00     0.082 C 
HETATM    6  C   UNL     1       6.454  31.643  58.205  1.00  0.00     0.252 C 
ENDROOT
BRANCH   3   7
HETATM    7  C   UNL     1       8.004  28.515  56.653  1.00  0.00     0.253 C 
HETATM    8  N   UNL     1       7.613  27.356  57.296  1.00  0.00    -0.325 N 
HETATM    9  H   UNL     1       7.117  27.421  58.178  1.00  0.00     0.169 HD
HETATM   10  O   UNL     1       8.548  28.576  55.553  1.00  0.00    -0.271 OA
BRANCH   8  11
HETATM   11  C   UNL     1       7.865  26.029  56.862  1.00  0.00     0.037 A 
HETATM   12  C   UNL     1       7.502  25.541  55.601  1.00  0.00     0.062 A 
HETATM   13  C   UNL     1       7.834  24.222  55.217  1.00  0.00     0.077 A 
HETATM   14  C   UNL     1       8.514  23.407  56.121  1.00  0.00     0.035 A 
HETATM   15  N   UNL     1       7.554  23.644  53.992  1.00  0.00    -0.245 NA
HETATM   16  S   UNL     1       8.785  21.871  55.393  1.00  0.00    -0.073 SA
HETATM   17  C   UNL     1       8.876  23.866  57.395  1.00  0.00     0.023 A 
HETATM   18  C   UNL     1       8.017  22.414  53.956  1.00  0.00     0.072 A 
HETATM   19  C   UNL     1       7.897  21.513  52.778  1.00  0.00     0.079 C 
HETATM   20  C   UNL     1       8.548  25.186  57.743  1.00  0.00     0.031 A 
ENDBRANCH   8  11
ENDBRANCH   3   7
BRANCH   1  21
HETATM   21  C   UNL     1       5.190  29.743  57.060  1.00  0.00     0.274 C 
BRANCH  21  22
HETATM   22  C   UNL     1       4.589  29.585  55.688  1.00  0.00    -0.030 A 
HETATM   23  C   UNL     1       3.960  30.681  55.067  1.00  0.00     0.012 A 
HETATM   24  C   UNL     1       3.388  30.549  53.804  1.00  0.00     0.040 A 
HETATM   25  C   UNL     1       3.443  29.324  53.159  1.00  0.00     0.099 A 
HETATM   26  C   UNL     1       4.062  28.217  53.744  1.00  0.00     0.102 A 
HETATM   27  C   UNL     1       4.659  28.358  54.999  1.00  0.00     0.048 A 
BRANCH  25  28
HETATM   28  O   UNL     1       2.867  29.226  51.923  1.00  0.00    -0.358 OA
HETATM   29  H   UNL     1       2.174  29.915  51.896  1.00  0.00     0.218 HD
ENDBRANCH  25  28
BRANCH  26  30
HETATM   30  O   UNL     1       4.025  27.073  52.994  1.00  0.00    -0.349 OA
BRANCH  30  31
HETATM   31  C   UNL     1       5.254  26.368  52.826  1.00  0.00     0.171 C 
HETATM   32  C   UNL     1       4.920  24.974  52.328  1.00  0.00     0.034 C 
ENDBRANCH  30  31
ENDBRANCH  26  30
ENDBRANCH  21  22
ENDBRANCH   1  21
BRANCH   5  33
HETATM   33  S   UNL     1       8.498  32.272  59.996  1.00  0.00    -0.104 SA
BRANCH  33  34
HETATM   34  C   UNL     1       7.797  32.761  61.565  1.00  0.00     0.093 A 
HETATM   35  N   UNL     1       6.675  33.519  61.540  1.00  0.00    -0.254 NA
HETATM   36  C   UNL     1       6.156  33.880  62.738  1.00  0.00     0.118 A 
HETATM   37  C   UNL     1       6.716  33.542  63.957  1.00  0.00     0.019 A 
HETATM   38  C   UNL     1       7.878  32.781  63.954  1.00  0.00     0.004 A 
HETATM   39  C   UNL     1       8.430  32.379  62.741  1.00  0.00     0.039 A 
ENDBRANCH  33  34
ENDBRANCH   5  33
TORSDOF 9
ENDMDL
MODEL 5
REMARK VINA RESULT:      -9.4      1.952      8.664
REMARK  9 active torsions:
REMARK  status: ('A' for Active; 'I' for Inactive)
REMARK    1  A    between atoms: C_2  and  O_3 
REMARK    2  A    between atoms: O_3  and  C_4 
REMARK    3  A    between atoms: C_5  and  O_6 
REMARK    4  A    between atoms: C_9  and  C_10 
REMARK    5  A    between atoms: C_10  and  N_11 
REMARK    6  A    between atoms: C_13  and  C_14 
REMARK       I    between atoms: C_14  and  N_15 
REMARK    7  A    between atoms: N_15  and  C_16 
REMARK    8  A    between atoms: C_28  and  S_29 
REMARK    9  A    between atoms: S_29  and  C_30 
ROOT
HETATM    1  N   UNL     1       6.815  26.163  55.260  1.00  0.00    -0.053 N 
HETATM    2  H   UNL     1       6.337  25.309  55.579  1.00  0.00     0.281 HD
HETATM    3  C   UNL     1       5.701  27.084  54.738  1.00  0.00     0.281 C 
HETATM    4  C   UNL     1       6.289  28.473  54.887  1.00  0.00     0.060 C 
HETATM    5  C   UNL     1       7.171  28.401  56.142  1.00  0.00     0.082 C 
HETATM    6  C   UNL     1       7.359  26.906  56.458  1.00  0.00     0.252 C 
ENDROOT
BRANCH   3   7
HETATM    7  C   UNL     1       5.099  26.665  53.388  1.00  0.00     0.253 C 
HETATM    8  N   UNL     1       5.143  27.616  52.387  1.00  0.00    -0.325 N 
HETATM    9  H   UNL     1       5.661  28.474  52.540  1.00  0.00     0.169 HD
HETATM   10  O   UNL     1       4.566  25.561  53.306  1.00  0.00    -0.271 OA
BRANCH   8  11
HETATM   11  C   UNL     1       4.492  27.541  51.129  1.00  0.00     0.037 A 
HETATM   12  C   UNL     1       3.472  28.412  50.727  1.00  0.00     0.062 A 
HETATM   13  C   UNL     1       2.907  28.311  49.435  1.00  0.00     0.077 A 
HETATM   14  C   UNL     1       3.369  27.320  48.572  1.00  0.00     0.035 A 
HETATM   15  N   UNL     1       1.918  29.131  48.922  1.00  0.00    -0.245 NA
HETATM   16  S   UNL     1       2.513  27.432  47.084  1.00  0.00    -0.073 SA
HETATM   17  C   UNL     1       4.380  26.426  48.954  1.00  0.00     0.023 A 
HETATM   18  C   UNL     1       1.636  28.779  47.687  1.00  0.00     0.072 A 
HETATM   19  C   UNL     1       0.624  29.464  46.836  1.00  0.00     0.079 C 
HETATM   20  C   UNL     1       4.934  26.560  50.236  1.00  0.00     0.031 A 
ENDBRANCH   8  11
ENDBRANCH   3   7
BRANCH   1  21
HETATM   21  C   UNL     1       7.873  25.637  54.303  1.00  0.00     0.274 C 
BRANCH  21  22
HETATM   22  C   UNL     1       7.868  24.159  54.011  1.00  0.00    -0.030 A 
HETATM   23  C   UNL     1       7.973  23.705  52.683  1.00  0.00     0.012 A 
HETATM   24  C   UNL     1       7.957  22.343  52.394  1.00  0.00     0.040 A 
HETATM   25  C   UNL     1       7.836  21.432  53.431  1.00  0.00     0.099 A 
HETATM   26  C   UNL     1       7.733  21.847  54.761  1.00  0.00     0.102 A 
HETATM   27  C   UNL     1       7.777  23.213  55.050  1.00  0.00     0.048 A 
BRANCH  25  28
HETATM   28  O   UNL     1       7.818  20.102  53.114  1.00  0.00    -0.358 OA
HETATM   29  H   UNL     1       8.317  20.020  52.277  1.00  0.00     0.218 HD
ENDBRANCH  25  28
BRANCH  26  30
HETATM   30  O   UNL     1       7.606  20.834  55.672  1.00  0.00    -0.349 OA
BRANCH  30  31
HETATM   31  C   UNL     1       8.702  20.620  56.561  1.00  0.00     0.171 C 
HETATM   32  C   UNL     1       8.395  21.351  57.855  1.00  0.00     0.034 C 
ENDBRANCH  30  31
ENDBRANCH  26  30
ENDBRANCH  21  22
ENDBRANCH   1  21
BRANCH   5  33
HETATM   33  S   UNL     1       6.354  29.278  57.527  1.00  0.00    -0.104 SA
BRANCH  33  34
HETATM   34  C   UNL     1       7.719  30.257  58.138  1.00  0.00     0.093 A 
HETATM   35  N   UNL     1       8.945  30.009  57.622  1.00  0.00    -0.254 NA
HETATM   36  C   UNL     1       9.969  30.760  58.094  1.00  0.00     0.118 A 
HETATM   37  C   UNL     1       9.830  31.728  59.074  1.00  0.00     0.019 A 
HETATM   38  C   UNL     1       8.564  31.948  59.601  1.00  0.00     0.004 A 
HETATM   39  C   UNL     1       7.487  31.204  59.127  1.00  0.00     0.039 A 
ENDBRANCH  33  34
ENDBRANCH   5  33
TORSDOF 9
ENDMDL
MODEL 6
REMARK VINA RESULT:      -9.1      3.444      8.922
REMARK  9 active torsions:
REMARK  status: ('A' for Active; 'I' for Inactive)
REMARK    1  A    between atoms: C_2  and  O_3 
REMARK    2  A    between atoms: O_3  and  C_4 
REMARK    3  A    between atoms: C_5  and  O_6 
REMARK    4  A    between atoms: C_9  and  C_10 
REMARK    5  A    between atoms: C_10  and  N_11 
REMARK    6  A    between atoms: C_13  and  C_14 
REMARK       I    between atoms: C_14  and  N_15 
REMARK    7  A    between atoms: N_15  and  C_16 
REMARK    8  A    between atoms: C_28  and  S_29 
REMARK    9  A    between atoms: S_29  and  C_30 
ROOT
HETATM    1  N   UNL     1       5.606  30.022  55.186  1.00  0.00    -0.053 N 
HETATM    2  H   UNL     1       6.082  30.407  54.360  1.00  0.00     0.281 HD
HETATM    3  C   UNL     1       6.716  29.387  56.039  1.00  0.00     0.281 C 
HETATM    4  C   UNL     1       6.150  29.420  57.444  1.00  0.00     0.060 C 
HETATM    5  C   UNL     1       5.301  30.699  57.502  1.00  0.00     0.082 C 
HETATM    6  C   UNL     1       5.104  31.159  56.046  1.00  0.00     0.252 C 
ENDROOT
BRANCH   3   7
HETATM    7  C   UNL     1       7.276  28.067  55.487  1.00  0.00     0.253 C 
HETATM    8  N   UNL     1       6.870  26.920  56.140  1.00  0.00    -0.325 N 
HETATM    9  H   UNL     1       6.150  26.982  56.852  1.00  0.00     0.169 HD
HETATM   10  O   UNL     1       8.085  28.118  54.563  1.00  0.00    -0.271 OA
BRANCH   8  11
HETATM   11  C   UNL     1       7.388  25.614  55.945  1.00  0.00     0.037 A 
HETATM   12  C   UNL     1       7.084  24.812  54.839  1.00  0.00     0.062 A 
HETATM   13  C   UNL     1       7.682  23.541  54.684  1.00  0.00     0.077 A 
HETATM   14  C   UNL     1       8.567  23.089  55.660  1.00  0.00     0.035 A 
HETATM   15  N   UNL     1       7.479  22.678  53.622  1.00  0.00    -0.245 NA
HETATM   16  S   UNL     1       9.138  21.527  55.216  1.00  0.00    -0.073 SA
HETATM   17  C   UNL     1       8.879  23.865  56.786  1.00  0.00     0.023 A 
HETATM   18  C   UNL     1       8.202  21.591  53.778  1.00  0.00     0.072 A 
HETATM   19  C   UNL     1       8.229  20.462  52.809  1.00  0.00     0.079 C 
HETATM   20  C   UNL     1       8.283  25.130  56.905  1.00  0.00     0.031 A 
ENDBRANCH   8  11
ENDBRANCH   3   7
BRANCH   1  21
HETATM   21  C   UNL     1       4.516  29.147  54.589  1.00  0.00     0.274 C 
BRANCH  21  22
HETATM   22  C   UNL     1       4.787  28.527  53.243  1.00  0.00    -0.030 A 
HETATM   23  C   UNL     1       4.701  27.132  53.081  1.00  0.00     0.012 A 
HETATM   24  C   UNL     1       4.961  26.542  51.847  1.00  0.00     0.040 A 
HETATM   25  C   UNL     1       5.307  27.345  50.772  1.00  0.00     0.099 A 
HETATM   26  C   UNL     1       5.397  28.733  50.895  1.00  0.00     0.102 A 
HETATM   27  C   UNL     1       5.109  29.325  52.127  1.00  0.00     0.048 A 
BRANCH  25  28
HETATM   28  O   UNL     1       5.560  26.734  49.574  1.00  0.00    -0.358 OA
HETATM   29  H   UNL     1       4.703  26.698  49.106  1.00  0.00     0.218 HD
ENDBRANCH  25  28
BRANCH  26  30
HETATM   30  O   UNL     1       5.760  29.390  49.751  1.00  0.00    -0.349 OA
BRANCH  30  31
HETATM   31  C   UNL     1       5.071  30.604  49.453  1.00  0.00     0.171 C 
HETATM   32  C   UNL     1       6.098  31.721  49.428  1.00  0.00     0.034 C 
ENDBRANCH  30  31
ENDBRANCH  26  30
ENDBRANCH  21  22
ENDBRANCH   1  21
BRANCH   5  33
HETATM   33  S   UNL     1       6.167  31.974  58.493  1.00  0.00    -0.104 SA
BRANCH  33  34
HETATM   34  C   UNL     1       4.777  32.747  59.308  1.00  0.00     0.093 A 
HETATM   35  N   UNL     1       4.457  32.309  60.548  1.00  0.00    -0.254 NA
HETATM   36  C   UNL     1       3.402  32.906  61.153  1.00  0.00     0.118 A 
HETATM   37  C   UNL     1       2.638  33.901  60.569  1.00  0.00     0.019 A 
HETATM   38  C   UNL     1       2.975  34.318  59.288  1.00  0.00     0.004 A 
HETATM   39  C   UNL     1       4.064  33.736  58.644  1.00  0.00     0.039 A 
ENDBRANCH  33  34
ENDBRANCH   5  33
TORSDOF 9
ENDMDL
MODEL 7
REMARK VINA RESULT:      -9.0      3.342      9.645
REMARK  9 active torsions:
REMARK  status: ('A' for Active; 'I' for Inactive)
REMARK    1  A    between atoms: C_2  and  O_3 
REMARK    2  A    between atoms: O_3  and  C_4 
REMARK    3  A    between atoms: C_5  and  O_6 
REMARK    4  A    between atoms: C_9  and  C_10 
REMARK    5  A    between atoms: C_10  and  N_11 
REMARK    6  A    between atoms: C_13  and  C_14 
REMARK       I    between atoms: C_14  and  N_15 
REMARK    7  A    between atoms: N_15  and  C_16 
REMARK    8  A    between atoms: C_28  and  S_29 
REMARK    9  A    between atoms: S_29  and  C_30 
ROOT
HETATM    1  N   UNL     1       6.513  30.345  56.498  1.00  0.00    -0.053 N 
HETATM    2  H   UNL     1       6.613  30.913  55.647  1.00  0.00     0.281 HD
HETATM    3  C   UNL     1       7.807  29.521  56.595  1.00  0.00     0.281 C 
HETATM    4  C   UNL     1       7.929  29.222  58.075  1.00  0.00     0.060 C 
HETATM    5  C   UNL     1       7.343  30.454  58.781  1.00  0.00     0.082 C 
HETATM    6  C   UNL     1       6.575  31.247  57.708  1.00  0.00     0.252 C 
ENDROOT
BRANCH   3   7
HETATM    7  C   UNL     1       7.912  28.367  55.585  1.00  0.00     0.253 C 
HETATM    8  N   UNL     1       7.429  27.146  56.013  1.00  0.00    -0.325 N 
HETATM    9  H   UNL     1       6.931  27.090  56.894  1.00  0.00     0.169 HD
HETATM   10  O   UNL     1       8.469  28.582  54.511  1.00  0.00    -0.271 OA
BRANCH   8  11
HETATM   11  C   UNL     1       7.584  25.902  55.348  1.00  0.00     0.037 A 
HETATM   12  C   UNL     1       8.028  24.732  55.977  1.00  0.00     0.062 A 
HETATM   13  C   UNL     1       8.105  23.516  55.263  1.00  0.00     0.077 A 
HETATM   14  C   UNL     1       7.749  23.500  53.916  1.00  0.00     0.035 A 
HETATM   15  N   UNL     1       8.500  22.298  55.786  1.00  0.00    -0.245 NA
HETATM   16  S   UNL     1       7.938  21.902  53.307  1.00  0.00    -0.073 SA
HETATM   17  C   UNL     1       7.315  24.660  53.257  1.00  0.00     0.023 A 
HETATM   18  C   UNL     1       8.440  21.367  54.860  1.00  0.00     0.072 A 
HETATM   19  C   UNL     1       8.785  19.937  55.091  1.00  0.00     0.079 C 
HETATM   20  C   UNL     1       7.232  25.850  53.996  1.00  0.00     0.031 A 
ENDBRANCH   8  11
ENDBRANCH   3   7
BRANCH   1  21
HETATM   21  C   UNL     1       5.180  29.641  56.296  1.00  0.00     0.274 C 
BRANCH  21  22
HETATM   22  C   UNL     1       4.460  29.883  54.996  1.00  0.00    -0.030 A 
HETATM   23  C   UNL     1       3.766  31.091  54.791  1.00  0.00     0.012 A 
HETATM   24  C   UNL     1       3.085  31.326  53.600  1.00  0.00     0.040 A 
HETATM   25  C   UNL     1       3.095  30.356  52.611  1.00  0.00     0.099 A 
HETATM   26  C   UNL     1       3.776  29.148  52.778  1.00  0.00     0.102 A 
HETATM   27  C   UNL     1       4.482  28.926  53.962  1.00  0.00     0.048 A 
BRANCH  25  28
HETATM   28  O   UNL     1       2.412  30.615  51.454  1.00  0.00    -0.358 OA
HETATM   29  H   UNL     1       1.713  29.934  51.398  1.00  0.00     0.218 HD
ENDBRANCH  25  28
BRANCH  26  30
HETATM   30  O   UNL     1       3.686  28.285  51.720  1.00  0.00    -0.349 OA
BRANCH  30  31
HETATM   31  C   UNL     1       4.818  28.196  50.855  1.00  0.00     0.171 C 
HETATM   32  C   UNL     1       5.291  26.754  50.863  1.00  0.00     0.034 C 
ENDBRANCH  30  31
ENDBRANCH  26  30
ENDBRANCH  21  22
ENDBRANCH   1  21
BRANCH   5  33
HETATM   33  S   UNL     1       8.695  31.453  59.509  1.00  0.00    -0.104 SA
BRANCH  33  34
HETATM   34  C   UNL     1       7.924  31.974  61.035  1.00  0.00     0.093 A 
HETATM   35  N   UNL     1       6.619  32.331  60.986  1.00  0.00    -0.254 NA
HETATM   36  C   UNL     1       6.049  32.722  62.151  1.00  0.00     0.118 A 
HETATM   37  C   UNL     1       6.726  32.796  63.356  1.00  0.00     0.019 A 
HETATM   38  C   UNL     1       8.069  32.443  63.374  1.00  0.00     0.004 A 
HETATM   39  C   UNL     1       8.682  32.021  62.198  1.00  0.00     0.039 A 
ENDBRANCH  33  34
ENDBRANCH   5  33
TORSDOF 9
ENDMDL
MODEL 8
REMARK VINA RESULT:      -9.0      3.265      8.764
REMARK  9 active torsions:
REMARK  status: ('A' for Active; 'I' for Inactive)
REMARK    1  A    between atoms: C_2  and  O_3 
REMARK    2  A    between atoms: O_3  and  C_4 
REMARK    3  A    between atoms: C_5  and  O_6 
REMARK    4  A    between atoms: C_9  and  C_10 
REMARK    5  A    between atoms: C_10  and  N_11 
REMARK    6  A    between atoms: C_13  and  C_14 
REMARK       I    between atoms: C_14  and  N_15 
REMARK    7  A    between atoms: N_15  and  C_16 
REMARK    8  A    between atoms: C_28  and  S_29 
REMARK    9  A    between atoms: S_29  and  C_30 
ROOT
HETATM    1  N   UNL     1       5.410  30.349  55.524  1.00  0.00    -0.053 N 
HETATM    2  H   UNL     1       5.770  30.683  54.621  1.00  0.00     0.281 HD
HETATM    3  C   UNL     1       6.651  29.953  56.339  1.00  0.00     0.281 C 
HETATM    4  C   UNL     1       6.193  30.091  57.777  1.00  0.00     0.060 C 
HETATM    5  C   UNL     1       5.199  31.262  57.769  1.00  0.00     0.082 C 
HETATM    6  C   UNL     1       4.837  31.517  56.294  1.00  0.00     0.252 C 
ENDROOT
BRANCH   3   7
HETATM    7  C   UNL     1       7.327  28.648  55.889  1.00  0.00     0.253 C 
HETATM    8  N   UNL     1       6.721  27.480  56.308  1.00  0.00    -0.325 N 
HETATM    9  H   UNL     1       5.821  27.526  56.772  1.00  0.00     0.169 HD
HETATM   10  O   UNL     1       8.379  28.724  55.258  1.00  0.00    -0.271 OA
BRANCH   8  11
HETATM   11  C   UNL     1       7.250  26.169  56.186  1.00  0.00     0.037 A 
HETATM   12  C   UNL     1       6.914  25.287  55.152  1.00  0.00     0.062 A 
HETATM   13  C   UNL     1       7.523  24.014  55.065  1.00  0.00     0.077 A 
HETATM   14  C   UNL     1       8.451  23.643  56.036  1.00  0.00     0.035 A 
HETATM   15  N   UNL     1       7.292  23.076  54.075  1.00  0.00    -0.245 NA
HETATM   16  S   UNL     1       9.026  22.060  55.682  1.00  0.00    -0.073 SA
HETATM   17  C   UNL     1       8.795  24.501  57.090  1.00  0.00     0.023 A 
HETATM   18  C   UNL     1       8.035  22.011  54.281  1.00  0.00     0.072 A 
HETATM   19  C   UNL     1       8.041  20.816  53.393  1.00  0.00     0.079 C 
HETATM   20  C   UNL     1       8.187  25.765  57.142  1.00  0.00     0.031 A 
ENDBRANCH   8  11
ENDBRANCH   3   7
BRANCH   1  21
HETATM   21  C   UNL     1       4.394  29.289  55.128  1.00  0.00     0.274 C 
BRANCH  21  22
HETATM   22  C   UNL     1       4.226  29.008  53.658  1.00  0.00    -0.030 A 
HETATM   23  C   UNL     1       3.289  29.740  52.905  1.00  0.00     0.012 A 
HETATM   24  C   UNL     1       3.112  29.485  51.548  1.00  0.00     0.040 A 
HETATM   25  C   UNL     1       3.871  28.497  50.940  1.00  0.00     0.099 A 
HETATM   26  C   UNL     1       4.812  27.754  51.655  1.00  0.00     0.102 A 
HETATM   27  C   UNL     1       5.007  28.031  53.010  1.00  0.00     0.048 A 
BRANCH  25  28
HETATM   28  O   UNL     1       3.669  28.267  49.606  1.00  0.00    -0.358 OA
HETATM   29  H   UNL     1       2.806  27.814  49.541  1.00  0.00     0.218 HD
ENDBRANCH  25  28
BRANCH  26  30
HETATM   30  O   UNL     1       5.475  26.807  50.923  1.00  0.00    -0.349 OA
BRANCH  30  31
HETATM   31  C   UNL     1       6.030  25.704  51.639  1.00  0.00     0.171 C 
HETATM   32  C   UNL     1       4.890  24.772  52.006  1.00  0.00     0.034 C 
ENDBRANCH  30  31
ENDBRANCH  26  30
ENDBRANCH  21  22
ENDBRANCH   1  21
BRANCH   5  33
HETATM   33  S   UNL     1       5.973  32.738  58.530  1.00  0.00    -0.104 SA
BRANCH  33  34
HETATM   34  C   UNL     1       7.265  31.964  59.492  1.00  0.00     0.093 A 
HETATM   35  N   UNL     1       8.437  31.700  58.866  1.00  0.00    -0.254 NA
HETATM   36  C   UNL     1       9.407  31.115  59.608  1.00  0.00     0.118 A 
HETATM   37  C   UNL     1       9.254  30.759  60.937  1.00  0.00     0.019 A 
HETATM   38  C   UNL     1       8.036  31.022  61.549  1.00  0.00     0.004 A 
HETATM   39  C   UNL     1       7.022  31.637  60.819  1.00  0.00     0.039 A 
ENDBRANCH  33  34
ENDBRANCH   5  33
TORSDOF 9
ENDMDL
MODEL 9
REMARK VINA RESULT:      -8.8      3.314      8.380
REMARK  9 active torsions:
REMARK  status: ('A' for Active; 'I' for Inactive)
REMARK    1  A    between atoms: C_2  and  O_3 
REMARK    2  A    between atoms: O_3  and  C_4 
REMARK    3  A    between atoms: C_5  and  O_6 
REMARK    4  A    between atoms: C_9  and  C_10 
REMARK    5  A    between atoms: C_10  and  N_11 
REMARK    6  A    between atoms: C_13  and  C_14 
REMARK       I    between atoms: C_14  and  N_15 
REMARK    7  A    between atoms: N_15  and  C_16 
REMARK    8  A    between atoms: C_28  and  S_29 
REMARK    9  A    between atoms: S_29  and  C_30 
ROOT
HETATM    1  N   UNL     1       5.145  29.321  55.062  1.00  0.00    -0.053 N 
HETATM    2  H   UNL     1       5.941  29.250  54.415  1.00  0.00     0.281 HD
HETATM    3  C   UNL     1       5.688  28.878  56.430  1.00  0.00     0.281 C 
HETATM    4  C   UNL     1       4.772  29.571  57.419  1.00  0.00     0.060 C 
HETATM    5  C   UNL     1       4.401  30.904  56.752  1.00  0.00     0.082 C 
HETATM    6  C   UNL     1       4.803  30.778  55.270  1.00  0.00     0.252 C 
ENDROOT
BRANCH   3   7
HETATM    7  C   UNL     1       5.932  27.367  56.566  1.00  0.00     0.253 C 
HETATM    8  N   UNL     1       7.159  26.912  56.126  1.00  0.00    -0.325 N 
HETATM    9  H   UNL     1       7.870  27.583  55.856  1.00  0.00     0.169 HD
HETATM   10  O   UNL     1       5.014  26.664  56.984  1.00  0.00    -0.271 OA
BRANCH   8  11
HETATM   11  C   UNL     1       7.546  25.556  55.971  1.00  0.00     0.037 A 
HETATM   12  C   UNL     1       7.365  24.824  54.791  1.00  0.00     0.062 A 
HETATM   13  C   UNL     1       7.826  23.492  54.692  1.00  0.00     0.077 A 
HETATM   14  C   UNL     1       8.449  22.910  55.794  1.00  0.00     0.035 A 
HETATM   15  N   UNL     1       7.728  22.686  53.572  1.00  0.00    -0.245 NA
HETATM   16  S   UNL     1       8.903  21.299  55.392  1.00  0.00    -0.073 SA
HETATM   17  C   UNL     1       8.631  23.615  56.992  1.00  0.00     0.023 A 
HETATM   18  C   UNL     1       8.273  21.514  53.810  1.00  0.00     0.072 A 
HETATM   19  C   UNL     1       8.349  20.413  52.811  1.00  0.00     0.079 C 
HETATM   20  C   UNL     1       8.178  24.942  57.057  1.00  0.00     0.031 A 
ENDBRANCH   8  11
ENDBRANCH   3   7
BRANCH   1  21
HETATM   21  C   UNL     1       4.060  28.504  54.377  1.00  0.00     0.274 C 
BRANCH  21  22
HETATM   22  C   UNL     1       4.344  28.011  52.982  1.00  0.00    -0.030 A 
HETATM   23  C   UNL     1       5.174  26.891  52.789  1.00  0.00     0.012 A 
HETATM   24  C   UNL     1       5.456  26.429  51.506  1.00  0.00     0.040 A 
HETATM   25  C   UNL     1       4.911  27.085  50.414  1.00  0.00     0.099 A 
HETATM   26  C   UNL     1       4.081  28.197  50.569  1.00  0.00     0.102 A 
HETATM   27  C   UNL     1       3.776  28.642  51.858  1.00  0.00     0.048 A 
BRANCH  25  28
HETATM   28  O   UNL     1       5.212  26.610  49.167  1.00  0.00    -0.358 OA
HETATM   29  H   UNL     1       4.421  26.781  48.618  1.00  0.00     0.218 HD
ENDBRANCH  25  28
BRANCH  26  30
HETATM   30  O   UNL     1       3.628  28.746  49.400  1.00  0.00    -0.349 OA
BRANCH  30  31
HETATM   31  C   UNL     1       2.231  29.021  49.310  1.00  0.00     0.171 C 
HETATM   32  C   UNL     1       1.567  27.822  48.658  1.00  0.00     0.034 C 
ENDBRANCH  30  31
ENDBRANCH  26  30
ENDBRANCH  21  22
ENDBRANCH   1  21
BRANCH   5  33
HETATM   33  S   UNL     1       5.294  32.278  57.570  1.00  0.00    -0.104 SA
BRANCH  33  34
HETATM   34  C   UNL     1       4.490  33.682  56.812  1.00  0.00     0.093 A 
HETATM   35  N   UNL     1       5.242  34.477  56.014  1.00  0.00    -0.254 NA
HETATM   36  C   UNL     1       4.618  35.536  55.446  1.00  0.00     0.118 A 
HETATM   37  C   UNL     1       3.287  35.852  55.656  1.00  0.00     0.019 A 
HETATM   38  C   UNL     1       2.544  35.032  56.494  1.00  0.00     0.004 A 
HETATM   39  C   UNL     1       3.150  33.926  57.083  1.00  0.00     0.039 A 
ENDBRANCH  33  34
ENDBRANCH   5  33
TORSDOF 9
ENDMDL
MODEL 10
REMARK VINA RESULT:      -8.6      1.945      2.490
REMARK  9 active torsions:
REMARK  status: ('A' for Active; 'I' for Inactive)
REMARK    1  A    between atoms: C_2  and  O_3 
REMARK    2  A    between atoms: O_3  and  C_4 
REMARK    3  A    between atoms: C_5  and  O_6 
REMARK    4  A    between atoms: C_9  and  C_10 
REMARK    5  A    between atoms: C_10  and  N_11 
REMARK    6  A    between atoms: C_13  and  C_14 
REMARK       I    between atoms: C_14  and  N_15 
REMARK    7  A    between atoms: N_15  and  C_16 
REMARK    8  A    between atoms: C_28  and  S_29 
REMARK    9  A    between atoms: S_29  and  C_30 
ROOT
HETATM    1  N   UNL     1       5.930  27.039  53.109  1.00  0.00    -0.053 N 
HETATM    2  H   UNL     1       6.866  27.263  53.473  1.00  0.00     0.281 HD
HETATM    3  C   UNL     1       5.201  28.387  52.996  1.00  0.00     0.281 C 
HETATM    4  C   UNL     1       4.163  28.141  51.919  1.00  0.00     0.060 C 
HETATM    5  C   UNL     1       4.822  27.152  50.947  1.00  0.00     0.082 C 
HETATM    6  C   UNL     1       6.053  26.579  51.675  1.00  0.00     0.252 C 
ENDROOT
BRANCH   3   7
HETATM    7  C   UNL     1       4.761  28.995  54.337  1.00  0.00     0.253 C 
HETATM    8  N   UNL     1       5.505  30.070  54.784  1.00  0.00    -0.325 N 
HETATM    9  H   UNL     1       6.205  30.476  54.175  1.00  0.00     0.169 HD
HETATM   10  O   UNL     1       3.841  28.456  54.947  1.00  0.00    -0.271 OA
BRANCH   8  11
HETATM   11  C   UNL     1       5.420  30.675  56.065  1.00  0.00     0.037 A 
HETATM   12  C   UNL     1       4.352  31.482  56.475  1.00  0.00     0.062 A 
HETATM   13  C   UNL     1       4.309  32.008  57.786  1.00  0.00     0.077 A 
HETATM   14  C   UNL     1       5.356  31.724  58.661  1.00  0.00     0.035 A 
HETATM   15  N   UNL     1       3.295  32.790  58.308  1.00  0.00    -0.245 NA
HETATM   16  S   UNL     1       5.042  32.485  60.172  1.00  0.00    -0.073 SA
HETATM   17  C   UNL     1       6.444  30.930  58.272  1.00  0.00     0.023 A 
HETATM   18  C   UNL     1       3.557  33.092  59.560  1.00  0.00     0.072 A 
HETATM   19  C   UNL     1       2.663  33.912  60.424  1.00  0.00     0.079 C 
HETATM   20  C   UNL     1       6.452  30.408  56.969  1.00  0.00     0.031 A 
ENDBRANCH   8  11
ENDBRANCH   3   7
BRANCH   1  21
HETATM   21  C   UNL     1       5.421  25.981  54.075  1.00  0.00     0.274 C 
BRANCH  21  22
HETATM   22  C   UNL     1       6.323  25.596  55.218  1.00  0.00    -0.030 A 
HETATM   23  C   UNL     1       6.488  26.471  56.308  1.00  0.00     0.012 A 
HETATM   24  C   UNL     1       7.329  26.137  57.366  1.00  0.00     0.040 A 
HETATM   25  C   UNL     1       8.006  24.928  57.339  1.00  0.00     0.099 A 
HETATM   26  C   UNL     1       7.863  24.034  56.276  1.00  0.00     0.102 A 
HETATM   27  C   UNL     1       6.998  24.359  55.228  1.00  0.00     0.048 A 
BRANCH  25  28
HETATM   28  O   UNL     1       8.827  24.632  58.392  1.00  0.00    -0.358 OA
HETATM   29  H   UNL     1       8.244  24.286  59.096  1.00  0.00     0.218 HD
ENDBRANCH  25  28
BRANCH  26  30
HETATM   30  O   UNL     1       8.603  22.889  56.383  1.00  0.00    -0.349 OA
BRANCH  30  31
HETATM   31  C   UNL     1       7.965  21.666  56.016  1.00  0.00     0.171 C 
HETATM   32  C   UNL     1       9.029  20.586  55.973  1.00  0.00     0.034 C 
ENDBRANCH  30  31
ENDBRANCH  26  30
ENDBRANCH  21  22
ENDBRANCH   1  21
BRANCH   5  33
HETATM   33  S   UNL     1       5.303  28.021  49.408  1.00  0.00    -0.104 SA
BRANCH  33  34
HETATM   34  C   UNL     1       3.822  27.793  48.434  1.00  0.00     0.093 A 
HETATM   35  N   UNL     1       3.323  28.876  47.793  1.00  0.00    -0.254 NA
HETATM   36  C   UNL     1       2.202  28.686  47.057  1.00  0.00     0.118 A 
HETATM   37  C   UNL     1       1.543  27.473  46.951  1.00  0.00     0.019 A 
HETATM   38  C   UNL     1       2.065  26.383  47.634  1.00  0.00     0.004 A 
HETATM   39  C   UNL     1       3.226  26.540  48.387  1.00  0.00     0.039 A 
ENDBRANCH  33  34
ENDBRANCH   5  33
TORSDOF 9
ENDMDL
