MODEL 1
REMARK VINA RESULT:      -9.3      0.000      0.000
REMARK  2 active torsions:
REMARK  status: ('A' for Active; 'I' for Inactive)
REMARK    1  A    between atoms: C_10  and  C_11 
REMARK    2  A    between atoms: C_12  and  O_13 
ROOT
HETATM    1  C   UNL     1       5.103  27.805  47.373  1.00  0.00     0.076 C 
HETATM    2  C   UNL     1       4.613  27.997  48.753  1.00  0.00     0.050 A 
HETATM    3  O   UNL     1       5.322  27.391  49.745  1.00  0.00    -0.312 OA
HETATM    4  C   UNL     1       4.714  27.694  50.938  1.00  0.00     0.121 A 
HETATM    5  C   UNL     1       5.204  27.236  52.198  1.00  0.00     0.163 A 
HETATM    6  N   UNL     1       4.661  27.481  53.371  1.00  0.00    -0.221 NA
HETATM    7  C   UNL     1       5.497  26.897  54.307  1.00  0.00     0.149 A 
HETATM    8  C   UNL     1       6.565  26.286  53.664  1.00  0.00     0.046 A 
HETATM    9  C   UNL     1       7.782  25.642  54.221  1.00  0.00     0.070 C 
HETATM   10  C   UNL     1       7.512  24.554  55.281  1.00  0.00     0.045 C 
HETATM   11  C   UNL     1       6.155  24.643  56.013  1.00  0.00     0.132 C 
HETATM   12  N   UNL     1       5.834  25.963  56.527  1.00  0.00    -0.355 N 
HETATM   13  C   UNL     1       5.285  26.971  55.756  1.00  0.00     0.272 C 
HETATM   14  O   UNL     1       4.650  27.867  56.309  1.00  0.00    -0.266 OA
HETATM   15  N   UNL     1       6.346  26.491  52.327  1.00  0.00    -0.340 N 
HETATM   16  H   UNL     1       6.938  26.211  51.556  1.00  0.00     0.167 HD
HETATM   17  C   UNL     1       3.615  28.496  50.684  1.00  0.00     0.043 A 
HETATM   18  C   UNL     1       3.551  28.692  49.285  1.00  0.00     0.035 A 
HETATM   19  H   UNL     1       5.558  26.045  57.497  1.00  0.00     0.162 HD
ENDROOT
BRANCH  10  20
HETATM   20  C   UNL     1       7.749  23.160  54.694  1.00  0.00    -0.019 A 
HETATM   21  C   UNL     1       8.162  22.088  55.515  1.00  0.00     0.074 A 
HETATM   22  C   UNL     1       8.365  20.821  54.953  1.00  0.00     0.037 A 
HETATM   23  C   UNL     1       8.180  20.613  53.586  1.00  0.00     0.003 A 
HETATM   24  C   UNL     1       7.803  21.669  52.765  1.00  0.00     0.001 A 
HETATM   25  C   UNL     1       7.595  22.935  53.312  1.00  0.00     0.010 A 
BRANCH  21  26
HETATM   26  O   UNL     1       8.344  22.378  56.842  1.00  0.00    -0.355 OA
HETATM   27  C   UNL     1       8.334  21.296  57.764  1.00  0.00     0.210 C 
ENDBRANCH  21  26
ENDBRANCH  10  20
TORSDOF 2
ENDMDL
MODEL 2
REMARK VINA RESULT:      -9.3      2.416      4.837
REMARK  2 active torsions:
REMARK  status: ('A' for Active; 'I' for Inactive)
REMARK    1  A    between atoms: C_10  and  C_11 
REMARK    2  A    between atoms: C_12  and  O_13 
ROOT
HETATM    1  C   UNL     1       3.482  30.899  58.344  1.00  0.00     0.076 C 
HETATM    2  C   UNL     1       3.808  30.812  56.906  1.00  0.00     0.050 A 
HETATM    3  O   UNL     1       4.133  29.580  56.424  1.00  0.00    -0.312 OA
HETATM    4  C   UNL     1       4.393  29.712  55.083  1.00  0.00     0.121 A 
HETATM    5  C   UNL     1       4.751  28.610  54.249  1.00  0.00     0.163 A 
HETATM    6  N   UNL     1       5.023  28.673  52.963  1.00  0.00    -0.221 NA
HETATM    7  C   UNL     1       5.255  27.370  52.559  1.00  0.00     0.149 A 
HETATM    8  C   UNL     1       5.119  26.512  53.641  1.00  0.00     0.046 A 
HETATM    9  C   UNL     1       5.141  25.028  53.702  1.00  0.00     0.070 C 
HETATM   10  C   UNL     1       6.381  24.373  53.059  1.00  0.00     0.045 C 
HETATM   11  C   UNL     1       7.122  25.218  51.999  1.00  0.00     0.132 C 
HETATM   12  N   UNL     1       6.259  25.807  50.990  1.00  0.00    -0.355 N 
HETATM   13  C   UNL     1       5.552  26.981  51.177  1.00  0.00     0.272 C 
HETATM   14  O   UNL     1       5.214  27.637  50.194  1.00  0.00    -0.266 OA
HETATM   15  N   UNL     1       4.823  27.322  54.708  1.00  0.00    -0.340 N 
HETATM   16  H   UNL     1       4.625  27.040  55.658  1.00  0.00     0.167 HD
HETATM   17  C   UNL     1       4.229  31.039  54.728  1.00  0.00     0.043 A 
HETATM   18  C   UNL     1       3.852  31.744  55.895  1.00  0.00     0.035 A 
HETATM   19  H   UNL     1       6.499  25.669  50.016  1.00  0.00     0.162 HD
ENDROOT
BRANCH  10  20
HETATM   20  C   UNL     1       7.336  23.854  54.138  1.00  0.00    -0.019 A 
HETATM   21  C   UNL     1       7.982  22.606  53.994  1.00  0.00     0.074 A 
HETATM   22  C   UNL     1       8.855  22.158  54.993  1.00  0.00     0.037 A 
HETATM   23  C   UNL     1       9.080  22.925  56.136  1.00  0.00     0.003 A 
HETATM   24  C   UNL     1       8.426  24.140  56.300  1.00  0.00     0.001 A 
HETATM   25  C   UNL     1       7.555  24.599  55.312  1.00  0.00     0.010 A 
BRANCH  21  26
HETATM   26  O   UNL     1       7.692  21.902  52.855  1.00  0.00    -0.355 OA
HETATM   27  C   UNL     1       8.078  20.535  52.804  1.00  0.00     0.210 C 
ENDBRANCH  21  26
ENDBRANCH  10  20
TORSDOF 2
ENDMDL
MODEL 3
REMARK VINA RESULT:      -8.8      4.162      7.194
REMARK  2 active torsions:
REMARK  status: ('A' for Active; 'I' for Inactive)
REMARK    1  A    between atoms: C_10  and  C_11 
REMARK    2  A    between atoms: C_12  and  O_13 
ROOT
HETATM    1  C   UNL     1       9.767  30.246  62.115  1.00  0.00     0.076 C 
HETATM    2  C   UNL     1       9.100  30.837  60.938  1.00  0.00     0.050 A 
HETATM    3  O   UNL     1       8.408  29.985  60.132  1.00  0.00    -0.312 OA
HETATM    4  C   UNL     1       7.864  30.725  59.112  1.00  0.00     0.121 A 
HETATM    5  C   UNL     1       7.055  30.154  58.084  1.00  0.00     0.163 A 
HETATM    6  N   UNL     1       6.516  30.805  57.075  1.00  0.00    -0.221 NA
HETATM    7  C   UNL     1       5.773  29.872  56.373  1.00  0.00     0.149 A 
HETATM    8  C   UNL     1       5.880  28.631  56.986  1.00  0.00     0.046 A 
HETATM    9  C   UNL     1       5.180  27.352  56.697  1.00  0.00     0.070 C 
HETATM   10  C   UNL     1       5.272  26.881  55.231  1.00  0.00     0.045 C 
HETATM   11  C   UNL     1       5.559  27.978  54.183  1.00  0.00     0.132 C 
HETATM   12  N   UNL     1       4.719  29.158  54.301  1.00  0.00    -0.355 N 
HETATM   13  C   UNL     1       4.968  30.188  55.190  1.00  0.00     0.272 C 
HETATM   14  O   UNL     1       4.513  31.305  54.950  1.00  0.00    -0.266 OA
HETATM   15  N   UNL     1       6.716  28.827  58.054  1.00  0.00    -0.340 N 
HETATM   16  H   UNL     1       6.997  28.148  58.748  1.00  0.00     0.167 HD
HETATM   17  C   UNL     1       8.224  32.050  59.284  1.00  0.00     0.043 A 
HETATM   18  C   UNL     1       9.013  32.123  60.455  1.00  0.00     0.035 A 
HETATM   19  H   UNL     1       4.239  29.488  53.473  1.00  0.00     0.162 HD
ENDROOT
BRANCH  10  20
HETATM   20  C   UNL     1       6.245  25.706  55.104  1.00  0.00    -0.019 A 
HETATM   21  C   UNL     1       6.023  24.680  54.159  1.00  0.00     0.074 A 
HETATM   22  C   UNL     1       6.933  23.620  54.058  1.00  0.00     0.037 A 
HETATM   23  C   UNL     1       8.048  23.559  54.895  1.00  0.00     0.003 A 
HETATM   24  C   UNL     1       8.258  24.549  55.848  1.00  0.00     0.001 A 
HETATM   25  C   UNL     1       7.361  25.611  55.957  1.00  0.00     0.010 A 
BRANCH  21  26
HETATM   26  O   UNL     1       4.895  24.799  53.390  1.00  0.00    -0.355 OA
HETATM   27  C   UNL     1       5.063  24.983  51.991  1.00  0.00     0.210 C 
ENDBRANCH  21  26
ENDBRANCH  10  20
TORSDOF 2
ENDMDL
MODEL 4
REMARK VINA RESULT:      -8.6      5.852      9.087
REMARK  2 active torsions:
REMARK  status: ('A' for Active; 'I' for Inactive)
REMARK    1  A    between atoms: C_10  and  C_11 
REMARK    2  A    between atoms: C_12  and  O_13 
ROOT
HETATM    1  C   UNL     1       5.038  32.413  63.648  1.00  0.00     0.076 C 
HETATM    2  C   UNL     1       6.379  32.270  63.048  1.00  0.00     0.050 A 
HETATM    3  O   UNL     1       6.440  31.720  61.804  1.00  0.00    -0.312 OA
HETATM    4  C   UNL     1       7.759  31.682  61.428  1.00  0.00     0.121 A 
HETATM    5  C   UNL     1       8.193  31.179  60.165  1.00  0.00     0.163 A 
HETATM    6  N   UNL     1       9.440  31.106  59.751  1.00  0.00    -0.221 NA
HETATM    7  C   UNL     1       9.383  30.617  58.457  1.00  0.00     0.149 A 
HETATM    8  C   UNL     1       8.062  30.392  58.099  1.00  0.00     0.046 A 
HETATM    9  C   UNL     1       7.473  29.997  56.793  1.00  0.00     0.070 C 
HETATM   10  C   UNL     1       8.089  28.732  56.161  1.00  0.00     0.045 C 
HETATM   11  C   UNL     1       9.518  28.370  56.623  1.00  0.00     0.132 C 
HETATM   12  N   UNL     1      10.457  29.478  56.596  1.00  0.00    -0.355 N 
HETATM   13  C   UNL     1      10.559  30.420  57.603  1.00  0.00     0.272 C 
HETATM   14  O   UNL     1      11.614  31.037  57.739  1.00  0.00    -0.266 OA
HETATM   15  N   UNL     1       7.326  30.732  59.204  1.00  0.00    -0.340 N 
HETATM   16  H   UNL     1       6.319  30.726  59.298  1.00  0.00     0.167 HD
HETATM   17  C   UNL     1       8.527  32.213  62.450  1.00  0.00     0.043 A 
HETATM   18  C   UNL     1       7.643  32.592  63.487  1.00  0.00     0.035 A 
HETATM   19  H   UNL     1      11.341  29.344  56.121  1.00  0.00     0.162 HD
ENDROOT
BRANCH  10  20
HETATM   20  C   UNL     1       7.133  27.544  56.294  1.00  0.00    -0.019 A 
HETATM   21  C   UNL     1       6.090  27.344  55.362  1.00  0.00     0.074 A 
HETATM   22  C   UNL     1       5.234  26.245  55.504  1.00  0.00     0.037 A 
HETATM   23  C   UNL     1       5.390  25.355  56.567  1.00  0.00     0.003 A 
HETATM   24  C   UNL     1       6.394  25.561  57.506  1.00  0.00     0.001 A 
HETATM   25  C   UNL     1       7.255  26.650  57.376  1.00  0.00     0.010 A 
BRANCH  21  26
HETATM   26  O   UNL     1       5.989  28.273  54.360  1.00  0.00    -0.355 OA
HETATM   27  C   UNL     1       6.250  27.844  53.031  1.00  0.00     0.210 C 
ENDBRANCH  21  26
ENDBRANCH  10  20
TORSDOF 2
ENDMDL
MODEL 5
REMARK VINA RESULT:      -8.4      6.108      9.703
REMARK  2 active torsions:
REMARK  status: ('A' for Active; 'I' for Inactive)
REMARK    1  A    between atoms: C_10  and  C_11 
REMARK    2  A    between atoms: C_12  and  O_13 
ROOT
HETATM    1  C   UNL     1       9.051  24.558  57.129  1.00  0.00     0.076 C 
HETATM    2  C   UNL     1       7.756  25.246  56.959  1.00  0.00     0.050 A 
HETATM    3  O   UNL     1       7.689  26.540  57.379  1.00  0.00    -0.312 OA
HETATM    4  C   UNL     1       6.418  26.994  57.130  1.00  0.00     0.121 A 
HETATM    5  C   UNL     1       5.996  28.324  57.430  1.00  0.00     0.163 A 
HETATM    6  N   UNL     1       4.792  28.816  57.228  1.00  0.00    -0.221 NA
HETATM    7  C   UNL     1       4.855  30.145  57.605  1.00  0.00     0.149 A 
HETATM    8  C   UNL     1       6.135  30.447  58.047  1.00  0.00     0.046 A 
HETATM    9  C   UNL     1       6.738  31.749  58.434  1.00  0.00     0.070 C 
HETATM   10  C   UNL     1       5.948  32.537  59.498  1.00  0.00     0.045 C 
HETATM   11  C   UNL     1       4.446  32.197  59.618  1.00  0.00     0.132 C 
HETATM   12  N   UNL     1       3.733  32.169  58.353  1.00  0.00    -0.355 N 
HETATM   13  C   UNL     1       3.731  31.082  57.499  1.00  0.00     0.272 C 
HETATM   14  O   UNL     1       2.802  30.948  56.705  1.00  0.00    -0.266 OA
HETATM   15  N   UNL     1       6.836  29.272  57.951  1.00  0.00    -0.340 N 
HETATM   16  H   UNL     1       7.813  29.121  58.158  1.00  0.00     0.167 HD
HETATM   17  C   UNL     1       5.687  25.972  56.552  1.00  0.00     0.043 A 
HETATM   18  C   UNL     1       6.544  24.852  56.440  1.00  0.00     0.035 A 
HETATM   19  H   UNL     1       2.878  32.706  58.274  1.00  0.00     0.162 HD
ENDROOT
BRANCH  10  20
HETATM   20  C   UNL     1       6.654  32.467  60.855  1.00  0.00    -0.019 A 
HETATM   21  C   UNL     1       6.407  33.435  61.853  1.00  0.00     0.074 A 
HETATM   22  C   UNL     1       7.061  33.343  63.087  1.00  0.00     0.037 A 
HETATM   23  C   UNL     1       7.970  32.313  63.334  1.00  0.00     0.003 A 
HETATM   24  C   UNL     1       8.242  31.373  62.347  1.00  0.00     0.001 A 
HETATM   25  C   UNL     1       7.595  31.452  61.114  1.00  0.00     0.010 A 
BRANCH  21  26
HETATM   26  O   UNL     1       5.519  34.427  61.526  1.00  0.00    -0.355 OA
HETATM   27  C   UNL     1       5.479  35.579  62.357  1.00  0.00     0.210 C 
ENDBRANCH  21  26
ENDBRANCH  10  20
TORSDOF 2
ENDMDL
MODEL 6
REMARK VINA RESULT:      -8.3      1.786      7.374
REMARK  2 active torsions:
REMARK  status: ('A' for Active; 'I' for Inactive)
REMARK    1  A    between atoms: C_10  and  C_11 
REMARK    2  A    between atoms: C_12  and  O_13 
ROOT
HETATM    1  C   UNL     1       8.108  20.335  53.307  1.00  0.00     0.076 C 
HETATM    2  C   UNL     1       8.280  21.681  53.890  1.00  0.00     0.050 A 
HETATM    3  O   UNL     1       7.405  22.642  53.486  1.00  0.00    -0.312 OA
HETATM    4  C   UNL     1       7.727  23.804  54.141  1.00  0.00     0.121 A 
HETATM    5  C   UNL     1       7.001  25.020  53.969  1.00  0.00     0.163 A 
HETATM    6  N   UNL     1       7.266  26.167  54.558  1.00  0.00    -0.221 NA
HETATM    7  C   UNL     1       6.277  27.044  54.147  1.00  0.00     0.149 A 
HETATM    8  C   UNL     1       5.403  26.394  53.287  1.00  0.00     0.046 A 
HETATM    9  C   UNL     1       4.126  26.856  52.685  1.00  0.00     0.070 C 
HETATM   10  C   UNL     1       4.213  28.200  51.934  1.00  0.00     0.045 C 
HETATM   11  C   UNL     1       5.376  29.131  52.343  1.00  0.00     0.132 C 
HETATM   12  N   UNL     1       5.517  29.323  53.776  1.00  0.00    -0.355 N 
HETATM   13  C   UNL     1       6.171  28.432  54.606  1.00  0.00     0.272 C 
HETATM   14  O   UNL     1       6.629  28.837  55.673  1.00  0.00    -0.266 OA
HETATM   15  N   UNL     1       5.894  25.120  53.169  1.00  0.00    -0.340 N 
HETATM   16  H   UNL     1       5.495  24.353  52.644  1.00  0.00     0.167 HD
HETATM   17  C   UNL     1       8.816  23.563  54.960  1.00  0.00     0.043 A 
HETATM   18  C   UNL     1       9.169  22.202  54.802  1.00  0.00     0.035 A 
HETATM   19  H   UNL     1       5.574  30.270  54.129  1.00  0.00     0.162 HD
ENDROOT
BRANCH  10  20
HETATM   20  C   UNL     1       4.173  27.975  50.420  1.00  0.00    -0.019 A 
HETATM   21  C   UNL     1       3.442  28.840  49.577  1.00  0.00     0.074 A 
HETATM   22  C   UNL     1       3.429  28.615  48.195  1.00  0.00     0.037 A 
HETATM   23  C   UNL     1       4.116  27.533  47.645  1.00  0.00     0.003 A 
HETATM   24  C   UNL     1       4.814  26.658  48.470  1.00  0.00     0.001 A 
HETATM   25  C   UNL     1       4.837  26.873  49.848  1.00  0.00     0.010 A 
BRANCH  21  26
HETATM   26  O   UNL     1       2.776  29.866  50.195  1.00  0.00    -0.355 OA
HETATM   27  C   UNL     1       1.364  29.927  50.040  1.00  0.00     0.210 C 
ENDBRANCH  21  26
ENDBRANCH  10  20
TORSDOF 2
ENDMDL
MODEL 7
REMARK VINA RESULT:      -8.2      8.191     11.551
REMARK  2 active torsions:
REMARK  status: ('A' for Active; 'I' for Inactive)
REMARK    1  A    between atoms: C_10  and  C_11 
REMARK    2  A    between atoms: C_12  and  O_13 
ROOT
HETATM    1  C   UNL     1      11.719  30.060  57.397  1.00  0.00     0.076 C 
HETATM    2  C   UNL     1      10.259  29.851  57.347  1.00  0.00     0.050 A 
HETATM    3  O   UNL     1       9.494  30.679  58.110  1.00  0.00    -0.312 OA
HETATM    4  C   UNL     1       8.180  30.329  57.919  1.00  0.00     0.121 A 
HETATM    5  C   UNL     1       7.096  31.004  58.555  1.00  0.00     0.163 A 
HETATM    6  N   UNL     1       5.820  30.709  58.423  1.00  0.00    -0.221 NA
HETATM    7  C   UNL     1       5.132  31.654  59.164  1.00  0.00     0.149 A 
HETATM    8  C   UNL     1       6.030  32.532  59.754  1.00  0.00     0.046 A 
HETATM    9  C   UNL     1       5.792  33.776  60.530  1.00  0.00     0.070 C 
HETATM   10  C   UNL     1       4.824  33.620  61.721  1.00  0.00     0.045 C 
HETATM   11  C   UNL     1       3.839  32.433  61.644  1.00  0.00     0.132 C 
HETATM   12  N   UNL     1       3.133  32.318  60.379  1.00  0.00    -0.355 N 
HETATM   13  C   UNL     1       3.670  31.719  59.255  1.00  0.00     0.272 C 
HETATM   14  O   UNL     1       2.911  31.271  58.397  1.00  0.00    -0.266 OA
HETATM   15  N   UNL     1       7.271  32.087  59.374  1.00  0.00    -0.340 N 
HETATM   16  H   UNL     1       8.166  32.502  59.593  1.00  0.00     0.167 HD
HETATM   17  C   UNL     1       8.129  29.270  57.030  1.00  0.00     0.043 A 
HETATM   18  C   UNL     1       9.460  28.964  56.661  1.00  0.00     0.035 A 
HETATM   19  H   UNL     1       2.125  32.234  60.400  1.00  0.00     0.162 HD
ENDROOT
BRANCH  10  20
HETATM   20  C   UNL     1       5.594  33.632  63.045  1.00  0.00    -0.019 A 
HETATM   21  C   UNL     1       5.082  34.307  64.175  1.00  0.00     0.074 A 
HETATM   22  C   UNL     1       5.803  34.296  65.375  1.00  0.00     0.037 A 
HETATM   23  C   UNL     1       7.031  33.640  65.460  1.00  0.00     0.003 A 
HETATM   24  C   UNL     1       7.557  32.998  64.344  1.00  0.00     0.001 A 
HETATM   25  C   UNL     1       6.848  33.000  63.143  1.00  0.00     0.010 A 
BRANCH  21  26
HETATM   26  O   UNL     1       3.882  34.946  64.005  1.00  0.00    -0.355 OA
HETATM   27  C   UNL     1       3.880  36.367  64.026  1.00  0.00     0.210 C 
ENDBRANCH  21  26
ENDBRANCH  10  20
TORSDOF 2
ENDMDL
MODEL 8
REMARK VINA RESULT:      -8.0      3.467      6.004
REMARK  2 active torsions:
REMARK  status: ('A' for Active; 'I' for Inactive)
REMARK    1  A    between atoms: C_10  and  C_11 
REMARK    2  A    between atoms: C_12  and  O_13 
ROOT
HETATM    1  C   UNL     1       5.606  32.823  60.407  1.00  0.00     0.076 C 
HETATM    2  C   UNL     1       5.210  32.558  59.010  1.00  0.00     0.050 A 
HETATM    3  O   UNL     1       5.226  31.259  58.604  1.00  0.00    -0.312 OA
HETATM    4  C   UNL     1       4.824  31.226  57.292  1.00  0.00     0.121 A 
HETATM    5  C   UNL     1       4.707  30.016  56.545  1.00  0.00     0.163 A 
HETATM    6  N   UNL     1       4.340  29.919  55.284  1.00  0.00    -0.221 NA
HETATM    7  C   UNL     1       4.307  28.565  55.000  1.00  0.00     0.149 A 
HETATM    8  C   UNL     1       4.670  27.841  56.126  1.00  0.00     0.046 A 
HETATM    9  C   UNL     1       4.667  26.375  56.370  1.00  0.00     0.070 C 
HETATM   10  C   UNL     1       5.431  25.543  55.320  1.00  0.00     0.045 C 
HETATM   11  C   UNL     1       5.612  26.201  53.934  1.00  0.00     0.132 C 
HETATM   12  N   UNL     1       4.395  26.762  53.371  1.00  0.00    -0.355 N 
HETATM   13  C   UNL     1       3.903  28.010  53.705  1.00  0.00     0.272 C 
HETATM   14  O   UNL     1       3.162  28.590  52.913  1.00  0.00    -0.266 OA
HETATM   15  N   UNL     1       4.942  28.780  57.087  1.00  0.00    -0.340 N 
HETATM   16  H   UNL     1       5.208  28.617  58.049  1.00  0.00     0.167 HD
HETATM   17  C   UNL     1       4.558  32.519  56.877  1.00  0.00     0.043 A 
HETATM   18  C   UNL     1       4.803  33.373  57.978  1.00  0.00     0.035 A 
HETATM   19  H   UNL     1       4.141  26.501  52.427  1.00  0.00     0.162 HD
ENDROOT
BRANCH  10  20
HETATM   20  C   UNL     1       6.764  25.050  55.890  1.00  0.00    -0.019 A 
HETATM   21  C   UNL     1       7.434  23.946  55.317  1.00  0.00     0.074 A 
HETATM   22  C   UNL     1       8.655  23.520  55.854  1.00  0.00     0.037 A 
HETATM   23  C   UNL     1       9.207  24.164  56.962  1.00  0.00     0.003 A 
HETATM   24  C   UNL     1       8.540  25.232  57.551  1.00  0.00     0.001 A 
HETATM   25  C   UNL     1       7.324  25.668  57.025  1.00  0.00     0.010 A 
BRANCH  21  26
HETATM   26  O   UNL     1       6.817  23.354  54.247  1.00  0.00    -0.355 OA
HETATM   27  C   UNL     1       7.641  22.807  53.226  1.00  0.00     0.210 C 
ENDBRANCH  21  26
ENDBRANCH  10  20
TORSDOF 2
ENDMDL
MODEL 9
REMARK VINA RESULT:      -7.8     10.135     14.059
REMARK  2 active torsions:
REMARK  status: ('A' for Active; 'I' for Inactive)
REMARK    1  A    between atoms: C_10  and  C_11 
REMARK    2  A    between atoms: C_12  and  O_13 
ROOT
HETATM    1  C   UNL     1       9.399  30.451  59.063  1.00  0.00     0.076 C 
HETATM    2  C   UNL     1       8.872  30.837  60.387  1.00  0.00     0.050 A 
HETATM    3  O   UNL     1       7.780  31.650  60.400  1.00  0.00    -0.312 OA
HETATM    4  C   UNL     1       7.448  31.883  61.712  1.00  0.00     0.121 A 
HETATM    5  C   UNL     1       6.334  32.686  62.101  1.00  0.00     0.163 A 
HETATM    6  N   UNL     1       5.972  32.956  63.337  1.00  0.00    -0.221 NA
HETATM    7  C   UNL     1       4.816  33.710  63.239  1.00  0.00     0.149 A 
HETATM    8  C   UNL     1       4.488  33.894  61.903  1.00  0.00     0.046 A 
HETATM    9  C   UNL     1       3.289  34.514  61.282  1.00  0.00     0.070 C 
HETATM   10  C   UNL     1       2.963  35.936  61.785  1.00  0.00     0.045 C 
HETATM   11  C   UNL     1       3.521  36.308  63.176  1.00  0.00     0.132 C 
HETATM   12  N   UNL     1       3.271  35.318  64.210  1.00  0.00    -0.355 N 
HETATM   13  C   UNL     1       4.050  34.190  64.393  1.00  0.00     0.272 C 
HETATM   14  O   UNL     1       4.068  33.651  65.498  1.00  0.00    -0.266 OA
HETATM   15  N   UNL     1       5.477  33.257  61.198  1.00  0.00    -0.340 N 
HETATM   16  H   UNL     1       5.551  33.157  60.195  1.00  0.00     0.167 HD
HETATM   17  C   UNL     1       8.344  31.208  62.522  1.00  0.00     0.043 A 
HETATM   18  C   UNL     1       9.255  30.536  61.675  1.00  0.00     0.035 A 
HETATM   19  H   UNL     1       2.855  35.628  65.079  1.00  0.00     0.162 HD
ENDROOT
BRANCH  10  20
HETATM   20  C   UNL     1       3.333  36.979  60.728  1.00  0.00    -0.019 A 
HETATM   21  C   UNL     1       2.445  37.292  59.675  1.00  0.00     0.074 A 
HETATM   22  C   UNL     1       2.806  38.255  58.725  1.00  0.00     0.037 A 
HETATM   23  C   UNL     1       4.043  38.897  58.799  1.00  0.00     0.003 A 
HETATM   24  C   UNL     1       4.936  38.574  59.814  1.00  0.00     0.001 A 
HETATM   25  C   UNL     1       4.588  37.617  60.768  1.00  0.00     0.010 A 
BRANCH  21  26
HETATM   26  O   UNL     1       1.261  36.603  59.659  1.00  0.00    -0.355 OA
HETATM   27  C   UNL     1       1.022  35.722  58.569  1.00  0.00     0.210 C 
ENDBRANCH  21  26
ENDBRANCH  10  20
TORSDOF 2
ENDMDL
MODEL 10
REMARK VINA RESULT:      -7.8     11.600     15.330
REMARK  2 active torsions:
REMARK  status: ('A' for Active; 'I' for Inactive)
REMARK    1  A    between atoms: C_10  and  C_11 
REMARK    2  A    between atoms: C_12  and  O_13 
ROOT
HETATM    1  C   UNL     1       9.852  31.587  59.091  1.00  0.00     0.076 C 
HETATM    2  C   UNL     1       9.210  31.578  60.421  1.00  0.00     0.050 A 
HETATM    3  O   UNL     1       8.322  32.576  60.681  1.00  0.00    -0.312 OA
HETATM    4  C   UNL     1       7.838  32.385  61.951  1.00  0.00     0.121 A 
HETATM    5  C   UNL     1       6.867  33.242  62.549  1.00  0.00     0.163 A 
HETATM    6  N   UNL     1       6.373  33.120  63.763  1.00  0.00    -0.221 NA
HETATM    7  C   UNL     1       5.429  34.123  63.894  1.00  0.00     0.149 A 
HETATM    8  C   UNL     1       5.366  34.863  62.721  1.00  0.00     0.046 A 
HETATM    9  C   UNL     1       4.436  35.949  62.317  1.00  0.00     0.070 C 
HETATM   10  C   UNL     1       4.333  37.118  63.318  1.00  0.00     0.045 C 
HETATM   11  C   UNL     1       4.725  36.798  64.777  1.00  0.00     0.132 C 
HETATM   12  N   UNL     1       4.113  35.594  65.314  1.00  0.00    -0.355 N 
HETATM   13  C   UNL     1       4.603  34.321  65.088  1.00  0.00     0.272 C 
HETATM   14  O   UNL     1       4.331  33.427  65.888  1.00  0.00    -0.266 OA
HETATM   15  N   UNL     1       6.302  34.302  61.891  1.00  0.00    -0.340 N 
HETATM   16  H   UNL     1       6.514  34.563  60.937  1.00  0.00     0.167 HD
HETATM   17  C   UNL     1       8.433  31.257  62.487  1.00  0.00     0.043 A 
HETATM   18  C   UNL     1       9.310  30.738  61.506  1.00  0.00     0.035 A 
HETATM   19  H   UNL     1       3.636  35.657  66.205  1.00  0.00     0.162 HD
ENDROOT
BRANCH  10  20
HETATM   20  C   UNL     1       5.076  38.347  62.788  1.00  0.00    -0.019 A 
HETATM   21  C   UNL     1       4.447  39.249  61.901  1.00  0.00     0.074 A 
HETATM   22  C   UNL     1       5.147  40.369  61.438  1.00  0.00     0.037 A 
HETATM   23  C   UNL     1       6.467  40.593  61.829  1.00  0.00     0.003 A 
HETATM   24  C   UNL     1       7.105  39.696  62.678  1.00  0.00     0.001 A 
HETATM   25  C   UNL     1       6.418  38.577  63.149  1.00  0.00     0.010 A 
BRANCH  21  26
HETATM   26  O   UNL     1       3.158  38.947  61.546  1.00  0.00    -0.355 OA
HETATM   27  C   UNL     1       2.338  40.004  61.069  1.00  0.00     0.210 C 
ENDBRANCH  21  26
ENDBRANCH  10  20
TORSDOF 2
ENDMDL
