MODEL 1
REMARK VINA RESULT:     -11.3      0.000      0.000
REMARK  7 active torsions:
REMARK  status: ('A' for Active; 'I' for Inactive)
REMARK    1  A    between atoms: C_4  and  C_5 
REMARK    2  A    between atoms: C_5  and  C_6 
REMARK    3  A    between atoms: C_6  and  N_7 
REMARK       I    between atoms: N_7  and  C_8 
REMARK    4  A    between atoms: C_8  and  C_9 
REMARK    5  A    between atoms: C_10  and  N_11 
REMARK    6  A    between atoms: N_12  and  N_13 
REMARK    7  A    between atoms: C_14  and  C_15 
ROOT
HETATM    1  C   UNL     1       7.300  29.212  57.776  1.00  0.00     0.104 C 
HETATM    2  C   UNL     1       7.249  27.861  57.471  1.00  0.00     0.123 C 
HETATM    3  N   UNL     1       6.514  27.713  56.293  1.00  0.00    -0.202 N 
HETATM    4  C   UNL     1       5.807  28.886  56.100  1.00  0.00     0.183 A 
HETATM    5  C   UNL     1       6.337  29.846  56.958  1.00  0.00     0.124 A 
HETATM    6  N   UNL     1       5.892  31.129  56.949  1.00  0.00    -0.242 NA
HETATM    7  C   UNL     1       4.855  31.353  56.120  1.00  0.00     0.086 A 
HETATM    8  C   UNL     1       4.318  30.351  55.267  1.00  0.00     0.088 A 
HETATM    9  N   UNL     1       4.813  29.106  55.208  1.00  0.00    -0.225 NA
HETATM   10  C   UNL     1       4.269  32.614  56.113  1.00  0.00     0.034 A 
HETATM   11  C   UNL     1       3.166  32.907  55.309  1.00  0.00     0.002 A 
HETATM   12  C   UNL     1       2.641  31.924  54.482  1.00  0.00     0.002 A 
HETATM   13  C   UNL     1       3.226  30.659  54.466  1.00  0.00     0.034 A 
ENDROOT
BRANCH   1  14
HETATM   14  C   UNL     1       8.150  29.750  58.813  1.00  0.00     0.257 C 
HETATM   15  N   UNL     1       7.476  30.537  59.736  1.00  0.00    -0.356 N 
HETATM   16  H   UNL     1       6.484  30.649  59.575  1.00  0.00     0.162 HD
HETATM   17  O   UNL     1       9.374  29.687  58.746  1.00  0.00    -0.267 OA
BRANCH  15  18
HETATM   18  C   UNL     1       8.195  31.671  60.285  1.00  0.00     0.127 C 
BRANCH  18  19
HETATM   19  C   UNL     1       8.502  31.548  61.777  1.00  0.00     0.058 C 
BRANCH  19  20
HETATM   20  C   UNL     1       7.713  32.565  62.572  1.00  0.00    -0.057 A 
HETATM   21  C   UNL     1       6.811  33.428  61.932  1.00  0.00     0.007 A 
HETATM   22  C   UNL     1       6.132  34.407  62.659  1.00  0.00     0.001 A 
HETATM   23  C   UNL     1       6.348  34.538  64.029  1.00  0.00     0.000 A 
HETATM   24  C   UNL     1       7.238  33.682  64.676  1.00  0.00     0.001 A 
HETATM   25  C   UNL     1       7.914  32.698  63.953  1.00  0.00     0.007 A 
ENDBRANCH  19  20
ENDBRANCH  18  19
ENDBRANCH  15  18
ENDBRANCH   1  14
BRANCH   2  26
HETATM   26  N   UNL     1       7.815  26.807  58.131  1.00  0.00    -0.286 NA
HETATM   27  H   UNL     1       8.839  26.744  58.085  1.00  0.00     0.125 HD
HETATM   28  H   UNL     1       7.503  26.631  59.089  1.00  0.00     0.125 HD
ENDBRANCH   2  26
BRANCH   3  29
HETATM   29  N   UNL     1       6.449  26.620  55.462  1.00  0.00    -0.176 NA
HETATM   30  C   UNL     1       7.480  26.480  54.696  1.00  0.00     0.153 C 
BRANCH  30  31
HETATM   31  C   UNL     1       7.575  25.357  53.791  1.00  0.00     0.011 A 
HETATM   32  C   UNL     1       7.680  23.979  54.162  1.00  0.00     0.004 A 
HETATM   33  C   UNL     1       7.794  23.240  52.986  1.00  0.00     0.043 A 
HETATM   34  C   UNL     1       7.672  23.291  55.395  1.00  0.00     0.014 A 
HETATM   35  C   UNL     1       7.917  21.846  52.980  1.00  0.00     0.030 A 
HETATM   36  N   UNL     1       7.755  24.135  51.940  1.00  0.00    -0.364 N 
HETATM   37  C   UNL     1       7.903  21.187  54.214  1.00  0.00     0.002 A 
HETATM   38  C   UNL     1       7.778  21.897  55.405  1.00  0.00     0.001 A 
HETATM   39  H   UNL     1       7.824  23.880  50.965  1.00  0.00     0.165 HD
HETATM   40  C   UNL     1       7.602  25.410  52.413  1.00  0.00     0.102 A 
ENDBRANCH  30  31
ENDBRANCH   3  29
TORSDOF 7
ENDMDL
MODEL 2
REMARK VINA RESULT:     -11.3      3.282      5.051
REMARK  7 active torsions:
REMARK  status: ('A' for Active; 'I' for Inactive)
REMARK    1  A    between atoms: C_4  and  C_5 
REMARK    2  A    between atoms: C_5  and  C_6 
REMARK    3  A    between atoms: C_6  and  N_7 
REMARK       I    between atoms: N_7  and  C_8 
REMARK    4  A    between atoms: C_8  and  C_9 
REMARK    5  A    between atoms: C_10  and  N_11 
REMARK    6  A    between atoms: N_12  and  N_13 
REMARK    7  A    between atoms: C_14  and  C_15 
ROOT
HETATM    1  C   UNL     1       4.890  28.284  55.115  1.00  0.00     0.104 C 
HETATM    2  C   UNL     1       4.929  27.038  55.721  1.00  0.00     0.123 C 
HETATM    3  N   UNL     1       5.349  26.108  54.767  1.00  0.00    -0.202 N 
HETATM    4  C   UNL     1       5.190  26.695  53.525  1.00  0.00     0.183 A 
HETATM    5  C   UNL     1       4.985  28.058  53.723  1.00  0.00     0.124 A 
HETATM    6  N   UNL     1       4.865  28.916  52.678  1.00  0.00    -0.242 NA
HETATM    7  C   UNL     1       4.871  28.325  51.468  1.00  0.00     0.086 A 
HETATM    8  C   UNL     1       5.064  26.929  51.292  1.00  0.00     0.088 A 
HETATM    9  N   UNL     1       5.271  26.089  52.317  1.00  0.00    -0.225 NA
HETATM   10  C   UNL     1       4.658  29.113  50.342  1.00  0.00     0.034 A 
HETATM   11  C   UNL     1       4.612  28.564  49.058  1.00  0.00     0.002 A 
HETATM   12  C   UNL     1       4.794  27.199  48.892  1.00  0.00     0.002 A 
HETATM   13  C   UNL     1       5.024  26.397  50.009  1.00  0.00     0.034 A 
ENDROOT
BRANCH   1  14
HETATM   14  C   UNL     1       4.699  29.511  55.855  1.00  0.00     0.257 C 
HETATM   15  N   UNL     1       5.797  30.358  55.824  1.00  0.00    -0.356 N 
HETATM   16  H   UNL     1       6.597  30.021  55.303  1.00  0.00     0.162 HD
HETATM   17  O   UNL     1       3.743  29.672  56.606  1.00  0.00    -0.267 OA
BRANCH  15  18
HETATM   18  C   UNL     1       6.060  31.139  57.018  1.00  0.00     0.127 C 
BRANCH  18  19
HETATM   19  C   UNL     1       6.735  30.348  58.140  1.00  0.00     0.058 C 
BRANCH  19  20
HETATM   20  C   UNL     1       8.228  30.265  57.913  1.00  0.00    -0.057 A 
HETATM   21  C   UNL     1       9.087  31.234  58.451  1.00  0.00     0.007 A 
HETATM   22  C   UNL     1      10.458  31.189  58.186  1.00  0.00     0.001 A 
HETATM   23  C   UNL     1      10.983  30.180  57.382  1.00  0.00     0.000 A 
HETATM   24  C   UNL     1      10.138  29.208  56.847  1.00  0.00     0.001 A 
HETATM   25  C   UNL     1       8.769  29.248  57.114  1.00  0.00     0.007 A 
ENDBRANCH  19  20
ENDBRANCH  18  19
ENDBRANCH  15  18
ENDBRANCH   1  14
BRANCH   2  26
HETATM   26  N   UNL     1       4.654  26.702  57.016  1.00  0.00    -0.286 NA
HETATM   27  H   UNL     1       4.545  27.485  57.671  1.00  0.00     0.125 HD
HETATM   28  H   UNL     1       3.915  26.014  57.176  1.00  0.00     0.125 HD
ENDBRANCH   2  26
BRANCH   3  29
HETATM   29  N   UNL     1       5.811  24.830  54.971  1.00  0.00    -0.176 NA
HETATM   30  C   UNL     1       7.047  24.772  55.343  1.00  0.00     0.153 C 
BRANCH  30  31
HETATM   31  C   UNL     1       7.667  23.499  55.632  1.00  0.00     0.011 A 
HETATM   32  C   UNL     1       7.907  22.444  54.696  1.00  0.00     0.004 A 
HETATM   33  C   UNL     1       8.480  21.386  55.400  1.00  0.00     0.043 A 
HETATM   34  C   UNL     1       7.703  22.298  53.307  1.00  0.00     0.014 A 
HETATM   35  C   UNL     1       8.845  20.182  54.788  1.00  0.00     0.030 A 
HETATM   36  N   UNL     1       8.589  21.786  56.714  1.00  0.00    -0.364 N 
HETATM   37  C   UNL     1       8.636  20.064  53.410  1.00  0.00     0.002 A 
HETATM   38  C   UNL     1       8.077  21.107  52.677  1.00  0.00     0.001 A 
HETATM   39  H   UNL     1       8.965  21.215  57.457  1.00  0.00     0.165 HD
HETATM   40  C   UNL     1       8.122  23.064  56.860  1.00  0.00     0.102 A 
ENDBRANCH  30  31
ENDBRANCH   3  29
TORSDOF 7
ENDMDL
MODEL 3
REMARK VINA RESULT:     -11.2      1.339      1.843
REMARK  7 active torsions:
REMARK  status: ('A' for Active; 'I' for Inactive)
REMARK    1  A    between atoms: C_4  and  C_5 
REMARK    2  A    between atoms: C_5  and  C_6 
REMARK    3  A    between atoms: C_6  and  N_7 
REMARK       I    between atoms: N_7  and  C_8 
REMARK    4  A    between atoms: C_8  and  C_9 
REMARK    5  A    between atoms: C_10  and  N_11 
REMARK    6  A    between atoms: N_12  and  N_13 
REMARK    7  A    between atoms: C_14  and  C_15 
ROOT
HETATM    1  C   UNL     1       7.041  28.819  57.204  1.00  0.00     0.104 C 
HETATM    2  C   UNL     1       7.424  27.494  57.068  1.00  0.00     0.123 C 
HETATM    3  N   UNL     1       7.171  27.106  55.751  1.00  0.00    -0.202 N 
HETATM    4  C   UNL     1       6.300  28.034  55.210  1.00  0.00     0.183 A 
HETATM    5  C   UNL     1       6.271  29.135  56.062  1.00  0.00     0.124 A 
HETATM    6  N   UNL     1       5.554  30.247  55.759  1.00  0.00    -0.242 NA
HETATM    7  C   UNL     1       4.820  30.148  54.634  1.00  0.00     0.086 A 
HETATM    8  C   UNL     1       4.851  29.006  53.791  1.00  0.00     0.088 A 
HETATM    9  N   UNL     1       5.627  27.940  54.039  1.00  0.00    -0.225 NA
HETATM   10  C   UNL     1       3.978  31.202  54.295  1.00  0.00     0.034 A 
HETATM   11  C   UNL     1       3.159  31.152  53.164  1.00  0.00     0.002 A 
HETATM   12  C   UNL     1       3.188  30.032  52.347  1.00  0.00     0.002 A 
HETATM   13  C   UNL     1       4.038  28.973  52.665  1.00  0.00     0.034 A 
ENDROOT
BRANCH   1  14
HETATM   14  C   UNL     1       7.350  29.609  58.375  1.00  0.00     0.257 C 
HETATM   15  N   UNL     1       6.471  30.660  58.587  1.00  0.00    -0.356 N 
HETATM   16  H   UNL     1       5.731  30.759  57.903  1.00  0.00     0.162 HD
HETATM   17  O   UNL     1       8.408  29.481  58.981  1.00  0.00    -0.267 OA
BRANCH  15  18
HETATM   18  C   UNL     1       7.024  31.878  59.150  1.00  0.00     0.127 C 
BRANCH  18  19
HETATM   19  C   UNL     1       6.058  32.633  60.063  1.00  0.00     0.058 C 
BRANCH  19  20
HETATM   20  C   UNL     1       6.619  32.739  61.464  1.00  0.00    -0.057 A 
HETATM   21  C   UNL     1       5.990  33.542  62.426  1.00  0.00     0.007 A 
HETATM   22  C   UNL     1       6.546  33.687  63.699  1.00  0.00     0.001 A 
HETATM   23  C   UNL     1       7.733  33.034  64.023  1.00  0.00     0.000 A 
HETATM   24  C   UNL     1       8.363  32.228  63.076  1.00  0.00     0.001 A 
HETATM   25  C   UNL     1       7.807  32.078  61.805  1.00  0.00     0.007 A 
ENDBRANCH  19  20
ENDBRANCH  18  19
ENDBRANCH  15  18
ENDBRANCH   1  14
BRANCH   2  26
HETATM   26  N   UNL     1       7.985  26.661  57.994  1.00  0.00    -0.286 NA
HETATM   27  H   UNL     1       8.988  26.470  57.880  1.00  0.00     0.125 HD
HETATM   28  H   UNL     1       7.780  26.847  58.978  1.00  0.00     0.125 HD
ENDBRANCH   2  26
BRANCH   3  29
HETATM   29  N   UNL     1       7.648  26.004  55.082  1.00  0.00    -0.176 NA
HETATM   30  C   UNL     1       6.885  24.965  55.172  1.00  0.00     0.153 C 
BRANCH  30  31
HETATM   31  C   UNL     1       7.233  23.738  54.492  1.00  0.00     0.011 A 
HETATM   32  C   UNL     1       7.746  22.550  55.101  1.00  0.00     0.004 A 
HETATM   33  C   UNL     1       7.985  21.629  54.082  1.00  0.00     0.043 A 
HETATM   34  C   UNL     1       8.014  22.166  56.433  1.00  0.00     0.014 A 
HETATM   35  C   UNL     1       8.495  20.349  54.325  1.00  0.00     0.030 A 
HETATM   36  N   UNL     1       7.626  22.235  52.898  1.00  0.00    -0.364 N 
HETATM   37  C   UNL     1       8.749  19.993  55.654  1.00  0.00     0.002 A 
HETATM   38  C   UNL     1       8.509  20.885  56.695  1.00  0.00     0.001 A 
HETATM   39  H   UNL     1       7.698  21.803  51.988  1.00  0.00     0.165 HD
HETATM   40  C   UNL     1       7.151  23.496  53.136  1.00  0.00     0.102 A 
ENDBRANCH  30  31
ENDBRANCH   3  29
TORSDOF 7
ENDMDL
MODEL 4
REMARK VINA RESULT:     -11.1      1.537      9.719
REMARK  7 active torsions:
REMARK  status: ('A' for Active; 'I' for Inactive)
REMARK    1  A    between atoms: C_4  and  C_5 
REMARK    2  A    between atoms: C_5  and  C_6 
REMARK    3  A    between atoms: C_6  and  N_7 
REMARK       I    between atoms: N_7  and  C_8 
REMARK    4  A    between atoms: C_8  and  C_9 
REMARK    5  A    between atoms: C_10  and  N_11 
REMARK    6  A    between atoms: N_12  and  N_13 
REMARK    7  A    between atoms: C_14  and  C_15 
ROOT
HETATM    1  C   UNL     1       7.128  28.801  57.286  1.00  0.00     0.104 C 
HETATM    2  C   UNL     1       7.640  29.792  58.109  1.00  0.00     0.123 C 
HETATM    3  N   UNL     1       6.800  30.903  58.018  1.00  0.00    -0.202 N 
HETATM    4  C   UNL     1       6.028  30.743  56.882  1.00  0.00     0.183 A 
HETATM    5  C   UNL     1       6.160  29.421  56.463  1.00  0.00     0.124 A 
HETATM    6  N   UNL     1       5.459  28.939  55.405  1.00  0.00    -0.242 NA
HETATM    7  C   UNL     1       4.718  29.860  54.761  1.00  0.00     0.086 A 
HETATM    8  C   UNL     1       4.614  31.209  55.197  1.00  0.00     0.088 A 
HETATM    9  N   UNL     1       5.234  31.668  56.293  1.00  0.00    -0.225 NA
HETATM   10  C   UNL     1       4.041  29.481  53.607  1.00  0.00     0.034 A 
HETATM   11  C   UNL     1       3.284  30.392  52.866  1.00  0.00     0.002 A 
HETATM   12  C   UNL     1       3.191  31.709  53.291  1.00  0.00     0.002 A 
HETATM   13  C   UNL     1       3.851  32.102  54.455  1.00  0.00     0.034 A 
ENDROOT
BRANCH   1  14
HETATM   14  C   UNL     1       7.624  27.444  57.290  1.00  0.00     0.257 C 
HETATM   15  N   UNL     1       7.634  26.849  56.037  1.00  0.00    -0.356 N 
HETATM   16  H   UNL     1       7.289  27.421  55.277  1.00  0.00     0.162 HD
HETATM   17  O   UNL     1       7.807  26.824  58.333  1.00  0.00    -0.267 OA
BRANCH  15  18
HETATM   18  C   UNL     1       7.353  25.426  55.981  1.00  0.00     0.127 C 
BRANCH  18  19
HETATM   19  C   UNL     1       7.032  24.913  54.577  1.00  0.00     0.058 C 
BRANCH  19  20
HETATM   20  C   UNL     1       7.418  23.457  54.438  1.00  0.00    -0.057 A 
HETATM   21  C   UNL     1       7.653  22.898  53.174  1.00  0.00     0.007 A 
HETATM   22  C   UNL     1       7.947  21.539  53.045  1.00  0.00     0.001 A 
HETATM   23  C   UNL     1       8.007  20.726  54.175  1.00  0.00     0.000 A 
HETATM   24  C   UNL     1       7.782  21.272  55.437  1.00  0.00     0.001 A 
HETATM   25  C   UNL     1       7.492  22.632  55.569  1.00  0.00     0.007 A 
ENDBRANCH  19  20
ENDBRANCH  18  19
ENDBRANCH  15  18
ENDBRANCH   1  14
BRANCH   2  26
HETATM   26  N   UNL     1       8.740  29.755  58.918  1.00  0.00    -0.286 NA
HETATM   27  H   UNL     1       9.173  28.833  59.049  1.00  0.00     0.125 HD
HETATM   28  H   UNL     1       9.466  30.456  58.754  1.00  0.00     0.125 HD
ENDBRANCH   2  26
BRANCH   3  29
HETATM   29  N   UNL     1       6.735  31.992  58.855  1.00  0.00    -0.176 NA
HETATM   30  C   UNL     1       5.839  31.890  59.780  1.00  0.00     0.153 C 
BRANCH  30  31
HETATM   31  C   UNL     1       5.673  32.938  60.761  1.00  0.00     0.011 A 
HETATM   32  C   UNL     1       6.373  33.051  62.004  1.00  0.00     0.004 A 
HETATM   33  C   UNL     1       5.879  34.178  62.658  1.00  0.00     0.043 A 
HETATM   34  C   UNL     1       7.396  32.304  62.626  1.00  0.00     0.014 A 
HETATM   35  C   UNL     1       6.345  34.588  63.913  1.00  0.00     0.030 A 
HETATM   36  N   UNL     1       4.918  34.732  61.841  1.00  0.00    -0.364 N 
HETATM   37  C   UNL     1       7.361  33.832  64.506  1.00  0.00     0.002 A 
HETATM   38  C   UNL     1       7.884  32.708  63.872  1.00  0.00     0.001 A 
HETATM   39  H   UNL     1       4.383  35.559  62.064  1.00  0.00     0.165 HD
HETATM   40  C   UNL     1       4.802  34.006  60.687  1.00  0.00     0.102 A 
ENDBRANCH  30  31
ENDBRANCH   3  29
TORSDOF 7
ENDMDL
MODEL 5
REMARK VINA RESULT:     -11.1      3.015      6.602
REMARK  7 active torsions:
REMARK  status: ('A' for Active; 'I' for Inactive)
REMARK    1  A    between atoms: C_4  and  C_5 
REMARK    2  A    between atoms: C_5  and  C_6 
REMARK    3  A    between atoms: C_6  and  N_7 
REMARK       I    between atoms: N_7  and  C_8 
REMARK    4  A    between atoms: C_8  and  C_9 
REMARK    5  A    between atoms: C_10  and  N_11 
REMARK    6  A    between atoms: N_12  and  N_13 
REMARK    7  A    between atoms: C_14  and  C_15 
ROOT
HETATM    1  C   UNL     1       7.462  26.439  55.726  1.00  0.00     0.104 C 
HETATM    2  C   UNL     1       7.542  27.268  54.618  1.00  0.00     0.123 C 
HETATM    3  N   UNL     1       7.270  26.498  53.485  1.00  0.00    -0.202 N 
HETATM    4  C   UNL     1       7.410  25.171  53.846  1.00  0.00     0.183 A 
HETATM    5  C   UNL     1       7.451  25.113  55.237  1.00  0.00     0.124 A 
HETATM    6  N   UNL     1       7.513  23.927  55.896  1.00  0.00    -0.242 NA
HETATM    7  C   UNL     1       7.624  22.850  55.096  1.00  0.00     0.086 A 
HETATM    8  C   UNL     1       7.599  22.936  53.678  1.00  0.00     0.088 A 
HETATM    9  N   UNL     1       7.448  24.097  53.023  1.00  0.00    -0.225 NA
HETATM   10  C   UNL     1       7.791  21.600  55.682  1.00  0.00     0.034 A 
HETATM   11  C   UNL     1       7.951  20.444  54.915  1.00  0.00     0.002 A 
HETATM   12  C   UNL     1       7.933  20.534  53.531  1.00  0.00     0.002 A 
HETATM   13  C   UNL     1       7.751  21.777  52.927  1.00  0.00     0.034 A 
ENDROOT
BRANCH   1  14
HETATM   14  C   UNL     1       7.482  26.939  57.082  1.00  0.00     0.257 C 
HETATM   15  N   UNL     1       7.171  28.287  57.185  1.00  0.00    -0.356 N 
HETATM   16  H   UNL     1       6.979  28.761  56.311  1.00  0.00     0.162 HD
HETATM   17  O   UNL     1       7.941  26.279  58.009  1.00  0.00    -0.267 OA
BRANCH  15  18
HETATM   18  C   UNL     1       7.855  29.044  58.217  1.00  0.00     0.127 C 
BRANCH  18  19
HETATM   19  C   UNL     1       7.346  30.477  58.374  1.00  0.00     0.058 C 
BRANCH  19  20
HETATM   20  C   UNL     1       7.798  31.063  59.693  1.00  0.00    -0.057 A 
HETATM   21  C   UNL     1       8.957  30.591  60.325  1.00  0.00     0.007 A 
HETATM   22  C   UNL     1       9.336  31.091  61.573  1.00  0.00     0.001 A 
HETATM   23  C   UNL     1       8.562  32.064  62.202  1.00  0.00     0.000 A 
HETATM   24  C   UNL     1       7.411  32.545  61.579  1.00  0.00     0.001 A 
HETATM   25  C   UNL     1       7.033  32.051  60.330  1.00  0.00     0.007 A 
ENDBRANCH  19  20
ENDBRANCH  18  19
ENDBRANCH  15  18
ENDBRANCH   1  14
BRANCH   2  26
HETATM   26  N   UNL     1       7.801  28.608  54.562  1.00  0.00    -0.286 NA
HETATM   27  H   UNL     1       8.792  28.875  54.529  1.00  0.00     0.125 HD
HETATM   28  H   UNL     1       7.273  29.159  53.882  1.00  0.00     0.125 HD
ENDBRANCH   2  26
BRANCH   3  29
HETATM   29  N   UNL     1       6.949  26.930  52.220  1.00  0.00    -0.176 NA
HETATM   30  C   UNL     1       5.821  27.558  52.150  1.00  0.00     0.153 C 
BRANCH  30  31
HETATM   31  C   UNL     1       5.363  28.105  50.893  1.00  0.00     0.011 A 
HETATM   32  C   UNL     1       4.724  27.380  49.838  1.00  0.00     0.004 A 
HETATM   33  C   UNL     1       4.491  28.278  48.798  1.00  0.00     0.043 A 
HETATM   34  C   UNL     1       4.307  26.041  49.680  1.00  0.00     0.014 A 
HETATM   35  C   UNL     1       3.876  27.901  47.599  1.00  0.00     0.030 A 
HETATM   36  N   UNL     1       4.966  29.504  49.208  1.00  0.00    -0.364 N 
HETATM   37  C   UNL     1       3.469  26.570  47.468  1.00  0.00     0.002 A 
HETATM   38  C   UNL     1       3.677  25.651  48.494  1.00  0.00     0.001 A 
HETATM   39  H   UNL     1       4.937  30.346  48.651  1.00  0.00     0.165 HD
HETATM   40  C   UNL     1       5.473  29.415  50.476  1.00  0.00     0.102 A 
ENDBRANCH  30  31
ENDBRANCH   3  29
TORSDOF 7
ENDMDL
MODEL 6
REMARK VINA RESULT:     -11.0      3.841     10.631
REMARK  7 active torsions:
REMARK  status: ('A' for Active; 'I' for Inactive)
REMARK    1  A    between atoms: C_4  and  C_5 
REMARK    2  A    between atoms: C_5  and  C_6 
REMARK    3  A    between atoms: C_6  and  N_7 
REMARK       I    between atoms: N_7  and  C_8 
REMARK    4  A    between atoms: C_8  and  C_9 
REMARK    5  A    between atoms: C_10  and  N_11 
REMARK    6  A    between atoms: N_12  and  N_13 
REMARK    7  A    between atoms: C_14  and  C_15 
ROOT
HETATM    1  C   UNL     1       5.609  26.653  53.839  1.00  0.00     0.104 C 
HETATM    2  C   UNL     1       5.824  27.471  54.937  1.00  0.00     0.123 C 
HETATM    3  N   UNL     1       7.004  27.057  55.557  1.00  0.00    -0.202 N 
HETATM    4  C   UNL     1       7.290  25.787  55.092  1.00  0.00     0.183 A 
HETATM    5  C   UNL     1       6.488  25.554  53.977  1.00  0.00     0.124 A 
HETATM    6  N   UNL     1       6.592  24.410  53.255  1.00  0.00    -0.242 NA
HETATM    7  C   UNL     1       7.456  23.508  53.760  1.00  0.00     0.086 A 
HETATM    8  C   UNL     1       8.250  23.762  54.911  1.00  0.00     0.088 A 
HETATM    9  N   UNL     1       8.214  24.925  55.576  1.00  0.00    -0.225 NA
HETATM   10  C   UNL     1       7.559  22.267  53.142  1.00  0.00     0.034 A 
HETATM   11  C   UNL     1       8.404  21.269  53.634  1.00  0.00     0.002 A 
HETATM   12  C   UNL     1       9.173  21.518  54.762  1.00  0.00     0.002 A 
HETATM   13  C   UNL     1       9.092  22.763  55.384  1.00  0.00     0.034 A 
ENDROOT
BRANCH   1  14
HETATM   14  C   UNL     1       4.594  26.923  52.846  1.00  0.00     0.257 C 
HETATM   15  N   UNL     1       4.924  26.478  51.575  1.00  0.00    -0.356 N 
HETATM   16  H   UNL     1       5.828  26.031  51.487  1.00  0.00     0.162 HD
HETATM   17  O   UNL     1       3.642  27.661  53.077  1.00  0.00    -0.267 OA
BRANCH  15  18
HETATM   18  C   UNL     1       4.466  27.281  50.456  1.00  0.00     0.127 C 
BRANCH  18  19
HETATM   19  C   UNL     1       4.313  26.498  49.153  1.00  0.00     0.058 C 
BRANCH  19  20
HETATM   20  C   UNL     1       3.072  26.936  48.407  1.00  0.00    -0.057 A 
HETATM   21  C   UNL     1       2.327  28.039  48.847  1.00  0.00     0.007 A 
HETATM   22  C   UNL     1       1.147  28.402  48.194  1.00  0.00     0.001 A 
HETATM   23  C   UNL     1       0.699  27.667  47.099  1.00  0.00     0.000 A 
HETATM   24  C   UNL     1       1.435  26.572  46.649  1.00  0.00     0.001 A 
HETATM   25  C   UNL     1       2.617  26.210  47.297  1.00  0.00     0.007 A 
ENDBRANCH  19  20
ENDBRANCH  18  19
ENDBRANCH  15  18
ENDBRANCH   1  14
BRANCH   2  26
HETATM   26  N   UNL     1       5.083  28.530  55.379  1.00  0.00    -0.286 NA
HETATM   27  H   UNL     1       4.514  28.363  56.217  1.00  0.00     0.125 HD
HETATM   28  H   UNL     1       5.555  29.433  55.459  1.00  0.00     0.125 HD
ENDBRANCH   2  26
BRANCH   3  29
HETATM   29  N   UNL     1       7.760  27.734  56.485  1.00  0.00    -0.176 NA
HETATM   30  C   UNL     1       8.451  28.708  55.990  1.00  0.00     0.153 C 
BRANCH  30  31
HETATM   31  C   UNL     1       9.268  29.537  56.845  1.00  0.00     0.011 A 
HETATM   32  C   UNL     1       8.804  30.362  57.918  1.00  0.00     0.004 A 
HETATM   33  C   UNL     1       9.913  31.022  58.446  1.00  0.00     0.043 A 
HETATM   34  C   UNL     1       7.539  30.596  58.500  1.00  0.00     0.014 A 
HETATM   35  C   UNL     1       9.819  31.917  59.517  1.00  0.00     0.030 A 
HETATM   36  N   UNL     1      11.010  30.609  57.723  1.00  0.00    -0.364 N 
HETATM   37  C   UNL     1       8.556  32.128  60.078  1.00  0.00     0.002 A 
HETATM   38  C   UNL     1       7.431  31.476  59.581  1.00  0.00     0.001 A 
HETATM   39  H   UNL     1      11.955  30.930  57.882  1.00  0.00     0.165 HD
HETATM   40  C   UNL     1      10.637  29.699  56.772  1.00  0.00     0.102 A 
ENDBRANCH  30  31
ENDBRANCH   3  29
TORSDOF 7
ENDMDL
MODEL 7
REMARK VINA RESULT:     -10.9      4.101     10.863
REMARK  7 active torsions:
REMARK  status: ('A' for Active; 'I' for Inactive)
REMARK    1  A    between atoms: C_4  and  C_5 
REMARK    2  A    between atoms: C_5  and  C_6 
REMARK    3  A    between atoms: C_6  and  N_7 
REMARK       I    between atoms: N_7  and  C_8 
REMARK    4  A    between atoms: C_8  and  C_9 
REMARK    5  A    between atoms: C_10  and  N_11 
REMARK    6  A    between atoms: N_12  and  N_13 
REMARK    7  A    between atoms: C_14  and  C_15 
ROOT
HETATM    1  C   UNL     1       5.701  25.433  52.757  1.00  0.00     0.104 C 
HETATM    2  C   UNL     1       5.355  26.302  53.780  1.00  0.00     0.123 C 
HETATM    3  N   UNL     1       6.170  26.020  54.878  1.00  0.00    -0.202 N 
HETATM    4  C   UNL     1       6.719  24.767  54.671  1.00  0.00     0.183 A 
HETATM    5  C   UNL     1       6.505  24.426  53.338  1.00  0.00     0.124 A 
HETATM    6  N   UNL     1       6.995  23.274  52.813  1.00  0.00    -0.242 NA
HETATM    7  C   UNL     1       7.611  22.474  53.704  1.00  0.00     0.086 A 
HETATM    8  C   UNL     1       7.801  22.836  55.065  1.00  0.00     0.088 A 
HETATM    9  N   UNL     1       7.396  24.012  55.567  1.00  0.00    -0.225 NA
HETATM   10  C   UNL     1       8.062  21.229  53.279  1.00  0.00     0.034 A 
HETATM   11  C   UNL     1       8.674  20.330  54.156  1.00  0.00     0.002 A 
HETATM   12  C   UNL     1       8.852  20.685  55.485  1.00  0.00     0.002 A 
HETATM   13  C   UNL     1       8.419  21.937  55.924  1.00  0.00     0.034 A 
ENDROOT
BRANCH   1  14
HETATM   14  C   UNL     1       5.206  25.575  51.406  1.00  0.00     0.257 C 
HETATM   15  N   UNL     1       5.723  26.673  50.735  1.00  0.00    -0.356 N 
HETATM   16  H   UNL     1       6.370  27.245  51.262  1.00  0.00     0.162 HD
HETATM   17  O   UNL     1       4.263  24.911  50.988  1.00  0.00    -0.267 OA
BRANCH  15  18
HETATM   18  C   UNL     1       4.842  27.351  49.802  1.00  0.00     0.127 C 
BRANCH  18  19
HETATM   19  C   UNL     1       4.629  26.595  48.490  1.00  0.00     0.058 C 
BRANCH  19  20
HETATM   20  C   UNL     1       3.402  27.109  47.770  1.00  0.00    -0.057 A 
HETATM   21  C   UNL     1       3.222  28.484  47.557  1.00  0.00     0.007 A 
HETATM   22  C   UNL     1       2.059  28.959  46.948  1.00  0.00     0.001 A 
HETATM   23  C   UNL     1       1.064  28.068  46.548  1.00  0.00     0.000 A 
HETATM   24  C   UNL     1       1.235  26.700  46.750  1.00  0.00     0.001 A 
HETATM   25  C   UNL     1       2.400  26.222  47.354  1.00  0.00     0.007 A 
ENDBRANCH  19  20
ENDBRANCH  18  19
ENDBRANCH  15  18
ENDBRANCH   1  14
BRANCH   2  26
HETATM   26  N   UNL     1       4.422  27.300  53.783  1.00  0.00    -0.286 NA
HETATM   27  H   UNL     1       4.710  28.184  54.218  1.00  0.00     0.125 HD
HETATM   28  H   UNL     1       3.937  27.491  52.904  1.00  0.00     0.125 HD
ENDBRANCH   2  26
BRANCH   3  29
HETATM   29  N   UNL     1       6.394  26.793  55.992  1.00  0.00    -0.176 NA
HETATM   30  C   UNL     1       7.098  27.853  55.763  1.00  0.00     0.153 C 
BRANCH  30  31
HETATM   31  C   UNL     1       7.388  28.786  56.827  1.00  0.00     0.011 A 
HETATM   32  C   UNL     1       8.658  29.380  57.108  1.00  0.00     0.004 A 
HETATM   33  C   UNL     1       8.504  30.178  58.241  1.00  0.00     0.043 A 
HETATM   34  C   UNL     1       9.926  29.325  56.489  1.00  0.00     0.014 A 
HETATM   35  C   UNL     1       9.557  30.911  58.797  1.00  0.00     0.030 A 
HETATM   36  N   UNL     1       7.186  30.075  58.631  1.00  0.00    -0.364 N 
HETATM   37  C   UNL     1      10.802  30.842  58.164  1.00  0.00     0.002 A 
HETATM   38  C   UNL     1      10.986  30.064  57.024  1.00  0.00     0.001 A 
HETATM   39  H   UNL     1       6.788  30.544  59.432  1.00  0.00     0.165 HD
HETATM   40  C   UNL     1       6.501  29.257  57.774  1.00  0.00     0.102 A 
ENDBRANCH  30  31
ENDBRANCH   3  29
TORSDOF 7
ENDMDL
MODEL 8
REMARK VINA RESULT:     -10.7      3.453      8.437
REMARK  7 active torsions:
REMARK  status: ('A' for Active; 'I' for Inactive)
REMARK    1  A    between atoms: C_4  and  C_5 
REMARK    2  A    between atoms: C_5  and  C_6 
REMARK    3  A    between atoms: C_6  and  N_7 
REMARK       I    between atoms: N_7  and  C_8 
REMARK    4  A    between atoms: C_8  and  C_9 
REMARK    5  A    between atoms: C_10  and  N_11 
REMARK    6  A    between atoms: N_12  and  N_13 
REMARK    7  A    between atoms: C_14  and  C_15 
ROOT
HETATM    1  C   UNL     1       5.288  28.718  54.265  1.00  0.00     0.104 C 
HETATM    2  C   UNL     1       6.087  27.674  53.828  1.00  0.00     0.123 C 
HETATM    3  N   UNL     1       6.877  27.258  54.901  1.00  0.00    -0.202 N 
HETATM    4  C   UNL     1       6.850  28.267  55.847  1.00  0.00     0.183 A 
HETATM    5  C   UNL     1       5.816  29.136  55.508  1.00  0.00     0.124 A 
HETATM    6  N   UNL     1       5.494  30.196  56.294  1.00  0.00    -0.242 NA
HETATM    7  C   UNL     1       6.308  30.372  57.353  1.00  0.00     0.086 A 
HETATM    8  C   UNL     1       7.369  29.480  57.667  1.00  0.00     0.088 A 
HETATM    9  N   UNL     1       7.635  28.383  56.943  1.00  0.00    -0.225 NA
HETATM   10  C   UNL     1       6.115  31.486  58.161  1.00  0.00     0.034 A 
HETATM   11  C   UNL     1       6.945  31.755  59.253  1.00  0.00     0.002 A 
HETATM   12  C   UNL     1       7.984  30.886  59.552  1.00  0.00     0.002 A 
HETATM   13  C   UNL     1       8.181  29.755  58.760  1.00  0.00     0.034 A 
ENDROOT
BRANCH   1  14
HETATM   14  C   UNL     1       4.200  29.256  53.480  1.00  0.00     0.257 C 
HETATM   15  N   UNL     1       3.486  28.293  52.783  1.00  0.00    -0.356 N 
HETATM   16  H   UNL     1       3.809  27.340  52.894  1.00  0.00     0.162 HD
HETATM   17  O   UNL     1       4.072  30.461  53.289  1.00  0.00    -0.267 OA
BRANCH  15  18
HETATM   18  C   UNL     1       2.965  28.672  51.483  1.00  0.00     0.127 C 
BRANCH  18  19
HETATM   19  C   UNL     1       3.970  28.513  50.342  1.00  0.00     0.058 C 
BRANCH  19  20
HETATM   20  C   UNL     1       3.408  27.627  49.252  1.00  0.00    -0.057 A 
HETATM   21  C   UNL     1       4.178  26.590  48.707  1.00  0.00     0.007 A 
HETATM   22  C   UNL     1       3.679  25.814  47.658  1.00  0.00     0.001 A 
HETATM   23  C   UNL     1       2.410  26.068  47.142  1.00  0.00     0.000 A 
HETATM   24  C   UNL     1       1.634  27.093  47.681  1.00  0.00     0.001 A 
HETATM   25  C   UNL     1       2.128  27.866  48.733  1.00  0.00     0.007 A 
ENDBRANCH  19  20
ENDBRANCH  18  19
ENDBRANCH  15  18
ENDBRANCH   1  14
BRANCH   2  26
HETATM   26  N   UNL     1       6.131  27.080  52.598  1.00  0.00    -0.286 NA
HETATM   27  H   UNL     1       6.558  26.147  52.563  1.00  0.00     0.125 HD
HETATM   28  H   UNL     1       5.272  27.087  52.044  1.00  0.00     0.125 HD
ENDBRANCH   2  26
BRANCH   3  29
HETATM   29  N   UNL     1       7.592  26.091  55.029  1.00  0.00    -0.176 NA
HETATM   30  C   UNL     1       6.966  25.159  55.670  1.00  0.00     0.153 C 
BRANCH  30  31
HETATM   31  C   UNL     1       7.573  23.861  55.855  1.00  0.00     0.011 A 
HETATM   32  C   UNL     1       7.758  22.863  54.847  1.00  0.00     0.004 A 
HETATM   33  C   UNL     1       8.336  21.753  55.462  1.00  0.00     0.043 A 
HETATM   34  C   UNL     1       7.501  22.808  53.460  1.00  0.00     0.014 A 
HETATM   35  C   UNL     1       8.656  20.584  54.763  1.00  0.00     0.030 A 
HETATM   36  N   UNL     1       8.500  22.068  56.793  1.00  0.00    -0.364 N 
HETATM   37  C   UNL     1       8.394  20.557  53.389  1.00  0.00     0.002 A 
HETATM   38  C   UNL     1       7.828  21.653  52.744  1.00  0.00     0.001 A 
HETATM   39  H   UNL     1       8.893  21.445  57.485  1.00  0.00     0.165 HD
HETATM   40  C   UNL     1       8.064  23.342  57.035  1.00  0.00     0.102 A 
ENDBRANCH  30  31
ENDBRANCH   3  29
TORSDOF 7
ENDMDL
MODEL 9
REMARK VINA RESULT:     -10.5      3.539      9.939
REMARK  7 active torsions:
REMARK  status: ('A' for Active; 'I' for Inactive)
REMARK    1  A    between atoms: C_4  and  C_5 
REMARK    2  A    between atoms: C_5  and  C_6 
REMARK    3  A    between atoms: C_6  and  N_7 
REMARK       I    between atoms: N_7  and  C_8 
REMARK    4  A    between atoms: C_8  and  C_9 
REMARK    5  A    between atoms: C_10  and  N_11 
REMARK    6  A    between atoms: N_12  and  N_13 
REMARK    7  A    between atoms: C_14  and  C_15 
ROOT
HETATM    1  C   UNL     1       5.454  26.790  53.888  1.00  0.00     0.104 C 
HETATM    2  C   UNL     1       5.669  27.589  55.000  1.00  0.00     0.123 C 
HETATM    3  N   UNL     1       6.861  27.179  55.600  1.00  0.00    -0.202 N 
HETATM    4  C   UNL     1       7.158  25.922  55.107  1.00  0.00     0.183 A 
HETATM    5  C   UNL     1       6.348  25.700  53.996  1.00  0.00     0.124 A 
HETATM    6  N   UNL     1       6.459  24.571  53.251  1.00  0.00    -0.242 NA
HETATM    7  C   UNL     1       7.340  23.672  53.730  1.00  0.00     0.086 A 
HETATM    8  C   UNL     1       8.142  23.913  54.878  1.00  0.00     0.088 A 
HETATM    9  N   UNL     1       8.099  25.063  55.566  1.00  0.00    -0.225 NA
HETATM   10  C   UNL     1       7.453  22.444  53.087  1.00  0.00     0.034 A 
HETATM   11  C   UNL     1       8.316  21.448  53.551  1.00  0.00     0.002 A 
HETATM   12  C   UNL     1       9.093  21.686  54.676  1.00  0.00     0.002 A 
HETATM   13  C   UNL     1       9.002  22.917  55.323  1.00  0.00     0.034 A 
ENDROOT
BRANCH   1  14
HETATM   14  C   UNL     1       4.425  27.065  52.911  1.00  0.00     0.257 C 
HETATM   15  N   UNL     1       4.727  26.607  51.638  1.00  0.00    -0.356 N 
HETATM   16  H   UNL     1       5.624  26.149  51.537  1.00  0.00     0.162 HD
HETATM   17  O   UNL     1       3.486  27.817  53.153  1.00  0.00    -0.267 OA
BRANCH  15  18
HETATM   18  C   UNL     1       4.260  27.408  50.521  1.00  0.00     0.127 C 
BRANCH  18  19
HETATM   19  C   UNL     1       5.359  27.788  49.529  1.00  0.00     0.058 C 
BRANCH  19  20
HETATM   20  C   UNL     1       5.148  29.193  49.009  1.00  0.00    -0.057 A 
HETATM   21  C   UNL     1       4.409  29.419  47.839  1.00  0.00     0.007 A 
HETATM   22  C   UNL     1       4.270  30.711  47.329  1.00  0.00     0.001 A 
HETATM   23  C   UNL     1       4.868  31.789  47.978  1.00  0.00     0.000 A 
HETATM   24  C   UNL     1       5.599  31.577  49.145  1.00  0.00     0.001 A 
HETATM   25  C   UNL     1       5.736  30.287  49.661  1.00  0.00     0.007 A 
ENDBRANCH  19  20
ENDBRANCH  18  19
ENDBRANCH  15  18
ENDBRANCH   1  14
BRANCH   2  26
HETATM   26  N   UNL     1       4.918  28.630  55.470  1.00  0.00    -0.286 NA
HETATM   27  H   UNL     1       4.318  29.099  54.782  1.00  0.00     0.125 HD
HETATM   28  H   UNL     1       4.397  28.478  56.336  1.00  0.00     0.125 HD
ENDBRANCH   2  26
BRANCH   3  29
HETATM   29  N   UNL     1       7.617  27.848  56.533  1.00  0.00    -0.176 NA
HETATM   30  C   UNL     1       8.390  28.754  56.031  1.00  0.00     0.153 C 
BRANCH  30  31
HETATM   31  C   UNL     1       9.221  29.568  56.888  1.00  0.00     0.011 A 
HETATM   32  C   UNL     1       8.768  30.412  57.951  1.00  0.00     0.004 A 
HETATM   33  C   UNL     1       9.889  31.046  58.485  1.00  0.00     0.043 A 
HETATM   34  C   UNL     1       7.505  30.682  58.520  1.00  0.00     0.014 A 
HETATM   35  C   UNL     1       9.809  31.950  59.549  1.00  0.00     0.030 A 
HETATM   36  N   UNL     1      10.982  30.600  57.775  1.00  0.00    -0.364 N 
HETATM   37  C   UNL     1       8.546  32.198  60.098  1.00  0.00     0.002 A 
HETATM   38  C   UNL     1       7.409  31.571  59.595  1.00  0.00     0.001 A 
HETATM   39  H   UNL     1      11.933  30.898  57.940  1.00  0.00     0.165 HD
HETATM   40  C   UNL     1      10.593  29.694  56.826  1.00  0.00     0.102 A 
ENDBRANCH  30  31
ENDBRANCH   3  29
TORSDOF 7
ENDMDL
MODEL 10
REMARK VINA RESULT:     -10.3      3.001      6.040
REMARK  7 active torsions:
REMARK  status: ('A' for Active; 'I' for Inactive)
REMARK    1  A    between atoms: C_4  and  C_5 
REMARK    2  A    between atoms: C_5  and  C_6 
REMARK    3  A    between atoms: C_6  and  N_7 
REMARK       I    between atoms: N_7  and  C_8 
REMARK    4  A    between atoms: C_8  and  C_9 
REMARK    5  A    between atoms: C_10  and  N_11 
REMARK    6  A    between atoms: N_12  and  N_13 
REMARK    7  A    between atoms: C_14  and  C_15 
ROOT
HETATM    1  C   UNL     1       7.000  27.949  56.187  1.00  0.00     0.104 C 
HETATM    2  C   UNL     1       6.320  28.774  55.304  1.00  0.00     0.123 C 
HETATM    3  N   UNL     1       5.760  27.971  54.309  1.00  0.00    -0.202 N 
HETATM    4  C   UNL     1       6.403  26.747  54.358  1.00  0.00     0.183 A 
HETATM    5  C   UNL     1       7.112  26.689  55.555  1.00  0.00     0.124 A 
HETATM    6  N   UNL     1       7.793  25.574  55.923  1.00  0.00    -0.242 NA
HETATM    7  C   UNL     1       7.793  24.592  55.001  1.00  0.00     0.086 A 
HETATM    8  C   UNL     1       7.077  24.682  53.777  1.00  0.00     0.088 A 
HETATM    9  N   UNL     1       6.331  25.747  53.449  1.00  0.00    -0.225 NA
HETATM   10  C   UNL     1       8.544  23.448  55.248  1.00  0.00     0.034 A 
HETATM   11  C   UNL     1       8.623  22.406  54.321  1.00  0.00     0.002 A 
HETATM   12  C   UNL     1       7.928  22.501  53.125  1.00  0.00     0.002 A 
HETATM   13  C   UNL     1       7.158  23.635  52.868  1.00  0.00     0.034 A 
ENDROOT
BRANCH   1  14
HETATM   14  C   UNL     1       7.526  28.415  57.449  1.00  0.00     0.257 C 
HETATM   15  N   UNL     1       6.740  29.383  58.058  1.00  0.00    -0.356 N 
HETATM   16  H   UNL     1       5.907  29.654  57.552  1.00  0.00     0.162 HD
HETATM   17  O   UNL     1       8.660  28.133  57.823  1.00  0.00    -0.267 OA
BRANCH  15  18
HETATM   18  C   UNL     1       7.430  30.416  58.808  1.00  0.00     0.127 C 
BRANCH  18  19
HETATM   19  C   UNL     1       6.548  31.610  59.173  1.00  0.00     0.058 C 
BRANCH  19  20
HETATM   20  C   UNL     1       6.916  32.150  60.537  1.00  0.00    -0.057 A 
HETATM   21  C   UNL     1       8.002  31.618  61.247  1.00  0.00     0.007 A 
HETATM   22  C   UNL     1       8.300  32.075  62.532  1.00  0.00     0.001 A 
HETATM   23  C   UNL     1       7.516  33.065  63.122  1.00  0.00     0.000 A 
HETATM   24  C   UNL     1       6.438  33.605  62.423  1.00  0.00     0.001 A 
HETATM   25  C   UNL     1       6.142  33.154  61.136  1.00  0.00     0.007 A 
ENDBRANCH  19  20
ENDBRANCH  18  19
ENDBRANCH  15  18
ENDBRANCH   1  14
BRANCH   2  26
HETATM   26  N   UNL     1       6.154  30.129  55.347  1.00  0.00    -0.286 NA
HETATM   27  H   UNL     1       6.396  30.585  56.235  1.00  0.00     0.125 HD
HETATM   28  H   UNL     1       6.530  30.673  54.568  1.00  0.00     0.125 HD
ENDBRANCH   2  26
BRANCH   3  29
HETATM   29  N   UNL     1       4.776  28.297  53.406  1.00  0.00    -0.176 NA
HETATM   30  C   UNL     1       5.209  28.485  52.203  1.00  0.00     0.153 C 
BRANCH  30  31
HETATM   31  C   UNL     1       4.291  28.799  51.132  1.00  0.00     0.011 A 
HETATM   32  C   UNL     1       4.115  28.054  49.924  1.00  0.00     0.004 A 
HETATM   33  C   UNL     1       3.168  28.728  49.154  1.00  0.00     0.043 A 
HETATM   34  C   UNL     1       4.664  26.855  49.420  1.00  0.00     0.014 A 
HETATM   35  C   UNL     1       2.754  28.273  47.897  1.00  0.00     0.030 A 
HETATM   36  N   UNL     1       2.780  29.838  49.871  1.00  0.00    -0.364 N 
HETATM   37  C   UNL     1       3.311  27.081  47.423  1.00  0.00     0.002 A 
HETATM   38  C   UNL     1       4.250  26.378  48.173  1.00  0.00     0.001 A 
HETATM   39  H   UNL     1       2.105  30.519  49.553  1.00  0.00     0.165 HD
HETATM   40  C   UNL     1       3.434  29.879  51.072  1.00  0.00     0.102 A 
ENDBRANCH  30  31
ENDBRANCH   3  29
TORSDOF 7
ENDMDL
