MODEL 1
REMARK VINA RESULT:      -9.7      0.000      0.000
REMARK  6 active torsions:
REMARK  status: ('A' for Active; 'I' for Inactive)
REMARK    1  A    between atoms: C_2  and  O_3 
REMARK    2  A    between atoms: C_2  and  C_4 
REMARK    3  A    between atoms: C_6  and  N_7 
REMARK       I    between atoms: N_7  and  C_8 
REMARK    4  A    between atoms: C_8  and  C_9 
REMARK    5  A    between atoms: C_12  and  C_13 
REMARK    6  A    between atoms: C_18  and  C_19 
ROOT
HETATM    1  C   UNL     1       6.360  29.278  56.898  1.00  0.00     0.096 A 
HETATM    2  C   UNL     1       6.657  28.809  55.631  1.00  0.00     0.138 A 
HETATM    3  N   UNL     1       5.476  28.858  54.930  1.00  0.00    -0.240 N 
HETATM    4  C   UNL     1       5.326  28.510  53.531  1.00  0.00     0.221 C 
HETATM    5  C   UNL     1       6.706  28.348  52.864  1.00  0.00     0.066 C 
HETATM    6  C   UNL     1       7.756  27.666  53.759  1.00  0.00     0.118 C 
HETATM    7  N   UNL     1       7.802  28.356  55.056  1.00  0.00    -0.365 N 
HETATM    8  N   UNL     1       4.440  29.325  55.645  1.00  0.00    -0.181 NA
HETATM    9  C   UNL     1       4.969  29.530  56.856  1.00  0.00     0.160 A 
HETATM   10  H   UNL     1       8.562  28.023  55.653  1.00  0.00     0.161 HD
ENDROOT
BRANCH   1  11
HETATM   11  C   UNL     1       7.246  29.490  58.030  1.00  0.00     0.261 C 
HETATM   12  N   UNL     1       7.042  30.710  58.648  1.00  0.00    -0.323 N 
HETATM   13  H   UNL     1       6.254  31.244  58.298  1.00  0.00     0.169 HD
HETATM   14  O   UNL     1       8.022  28.614  58.391  1.00  0.00    -0.267 OA
BRANCH  12  15
HETATM   15  C   UNL     1       7.686  31.214  59.793  1.00  0.00     0.035 A 
HETATM   16  C   UNL     1       7.033  31.477  61.000  1.00  0.00     0.039 A 
HETATM   17  C   UNL     1       7.734  31.986  62.109  1.00  0.00    -0.028 A 
HETATM   18  C   UNL     1       9.108  32.230  61.985  1.00  0.00     0.010 A 
HETATM   19  C   UNL     1       9.768  31.968  60.787  1.00  0.00     0.003 A 
HETATM   20  C   UNL     1       9.062  31.454  59.700  1.00  0.00     0.029 A 
BRANCH  17  21
HETATM   21  C   UNL     1       7.005  32.214  63.416  1.00  0.00     0.147 C 
HETATM   22  C   UNL     1       7.695  33.286  64.252  1.00  0.00     0.044 C 
BRANCH  21  23
HETATM   23  O   UNL     1       5.659  32.616  63.167  1.00  0.00    -0.391 OA
HETATM   24  H   UNL     1       5.697  33.517  62.805  1.00  0.00     0.210 HD
ENDBRANCH  21  23
ENDBRANCH  17  21
ENDBRANCH  12  15
ENDBRANCH   1  11
BRANCH   4  25
HETATM   25  C   UNL     1       4.420  27.307  53.370  1.00  0.00     0.409 C 
HETATM   26  F   UNL     1       4.521  26.407  54.364  1.00  0.00    -0.169 F 
HETATM   27  F   UNL     1       3.118  27.660  53.271  1.00  0.00    -0.169 F 
HETATM   28  F   UNL     1       4.718  26.657  52.212  1.00  0.00    -0.169 F 
ENDBRANCH   4  25
BRANCH   6  29
HETATM   29  C   UNL     1       7.619  26.156  53.872  1.00  0.00    -0.035 A 
HETATM   30  C   UNL     1       7.671  25.375  52.701  1.00  0.00     0.009 A 
HETATM   31  C   UNL     1       7.536  23.985  52.750  1.00  0.00     0.001 A 
HETATM   32  C   UNL     1       7.360  23.345  53.972  1.00  0.00     0.000 A 
HETATM   33  C   UNL     1       7.324  24.093  55.145  1.00  0.00     0.001 A 
HETATM   34  C   UNL     1       7.457  25.484  55.097  1.00  0.00     0.009 A 
ENDBRANCH   6  29
TORSDOF 6
ENDMDL
MODEL 2
REMARK VINA RESULT:      -9.3      1.234      1.407
REMARK  6 active torsions:
REMARK  status: ('A' for Active; 'I' for Inactive)
REMARK    1  A    between atoms: C_2  and  O_3 
REMARK    2  A    between atoms: C_2  and  C_4 
REMARK    3  A    between atoms: C_6  and  N_7 
REMARK       I    between atoms: N_7  and  C_8 
REMARK    4  A    between atoms: C_8  and  C_9 
REMARK    5  A    between atoms: C_12  and  C_13 
REMARK    6  A    between atoms: C_18  and  C_19 
ROOT
HETATM    1  C   UNL     1       6.391  28.256  56.355  1.00  0.00     0.096 A 
HETATM    2  C   UNL     1       6.735  27.621  55.175  1.00  0.00     0.138 A 
HETATM    3  N   UNL     1       5.562  27.479  54.473  1.00  0.00    -0.240 N 
HETATM    4  C   UNL     1       5.454  26.912  53.143  1.00  0.00     0.221 C 
HETATM    5  C   UNL     1       6.850  26.747  52.511  1.00  0.00     0.066 C 
HETATM    6  C   UNL     1       7.934  26.285  53.502  1.00  0.00     0.118 C 
HETATM    7  N   UNL     1       7.916  27.166  54.678  1.00  0.00    -0.365 N 
HETATM    8  N   UNL     1       4.488  27.975  55.107  1.00  0.00    -0.181 NA
HETATM    9  C   UNL     1       4.986  28.399  56.272  1.00  0.00     0.160 A 
HETATM   10  H   UNL     1       8.690  26.983  55.320  1.00  0.00     0.161 HD
ENDROOT
BRANCH   1  11
HETATM   11  C   UNL     1       7.246  28.699  57.442  1.00  0.00     0.261 C 
HETATM   12  N   UNL     1       7.120  30.051  57.704  1.00  0.00    -0.323 N 
HETATM   13  H   UNL     1       6.395  30.526  57.179  1.00  0.00     0.169 HD
HETATM   14  O   UNL     1       7.932  27.899  58.067  1.00  0.00    -0.267 OA
BRANCH  12  15
HETATM   15  C   UNL     1       7.759  30.797  58.713  1.00  0.00     0.035 A 
HETATM   16  C   UNL     1       7.110  31.274  59.855  1.00  0.00     0.039 A 
HETATM   17  C   UNL     1       7.806  32.019  60.826  1.00  0.00    -0.028 A 
HETATM   18  C   UNL     1       9.168  32.279  60.630  1.00  0.00     0.010 A 
HETATM   19  C   UNL     1       9.823  31.804  59.496  1.00  0.00     0.003 A 
HETATM   20  C   UNL     1       9.124  31.058  58.548  1.00  0.00     0.029 A 
BRANCH  17  21
HETATM   21  C   UNL     1       7.083  32.480  62.074  1.00  0.00     0.147 C 
HETATM   22  C   UNL     1       8.020  32.497  63.277  1.00  0.00     0.044 C 
BRANCH  21  23
HETATM   23  O   UNL     1       6.552  33.790  61.882  1.00  0.00    -0.391 OA
HETATM   24  H   UNL     1       5.617  33.755  62.141  1.00  0.00     0.210 HD
ENDBRANCH  21  23
ENDBRANCH  17  21
ENDBRANCH  12  15
ENDBRANCH   1  11
BRANCH   4  25
HETATM   25  C   UNL     1       4.636  25.637  53.167  1.00  0.00     0.409 C 
HETATM   26  F   UNL     1       4.844  24.871  54.252  1.00  0.00    -0.169 F 
HETATM   27  F   UNL     1       3.308  25.884  53.092  1.00  0.00    -0.169 F 
HETATM   28  F   UNL     1       4.935  24.877  52.079  1.00  0.00    -0.169 F 
ENDBRANCH   4  25
BRANCH   6  29
HETATM   29  C   UNL     1       7.900  24.804  53.845  1.00  0.00    -0.035 A 
HETATM   30  C   UNL     1       7.919  23.860  52.799  1.00  0.00     0.009 A 
HETATM   31  C   UNL     1       7.875  22.489  53.061  1.00  0.00     0.001 A 
HETATM   32  C   UNL     1       7.826  22.031  54.373  1.00  0.00     0.000 A 
HETATM   33  C   UNL     1       7.827  22.944  55.424  1.00  0.00     0.001 A 
HETATM   34  C   UNL     1       7.868  24.316  55.163  1.00  0.00     0.009 A 
ENDBRANCH   6  29
TORSDOF 6
ENDMDL
MODEL 3
REMARK VINA RESULT:      -9.2      5.002      8.706
REMARK  6 active torsions:
REMARK  status: ('A' for Active; 'I' for Inactive)
REMARK    1  A    between atoms: C_2  and  O_3 
REMARK    2  A    between atoms: C_2  and  C_4 
REMARK    3  A    between atoms: C_6  and  N_7 
REMARK       I    between atoms: N_7  and  C_8 
REMARK    4  A    between atoms: C_8  and  C_9 
REMARK    5  A    between atoms: C_12  and  C_13 
REMARK    6  A    between atoms: C_18  and  C_19 
ROOT
HETATM    1  C   UNL     1       5.263  28.326  54.078  1.00  0.00     0.096 A 
HETATM    2  C   UNL     1       5.352  27.153  54.804  1.00  0.00     0.138 A 
HETATM    3  N   UNL     1       6.108  27.457  55.911  1.00  0.00    -0.240 N 
HETATM    4  C   UNL     1       6.413  26.534  56.987  1.00  0.00     0.221 C 
HETATM    5  C   UNL     1       5.553  25.261  56.866  1.00  0.00     0.066 C 
HETATM    6  C   UNL     1       5.352  24.778  55.419  1.00  0.00     0.118 C 
HETATM    7  N   UNL     1       4.868  25.898  54.602  1.00  0.00    -0.365 N 
HETATM    8  N   UNL     1       6.511  28.736  55.957  1.00  0.00    -0.181 NA
HETATM    9  C   UNL     1       6.041  29.248  54.815  1.00  0.00     0.160 A 
HETATM   10  H   UNL     1       4.605  25.613  53.656  1.00  0.00     0.161 HD
ENDROOT
BRANCH   1  11
HETATM   11  C   UNL     1       4.539  28.591  52.847  1.00  0.00     0.261 C 
HETATM   12  N   UNL     1       5.264  28.259  51.717  1.00  0.00    -0.323 N 
HETATM   13  H   UNL     1       6.149  27.796  51.894  1.00  0.00     0.169 HD
HETATM   14  O   UNL     1       3.385  29.002  52.873  1.00  0.00    -0.267 OA
BRANCH  12  15
HETATM   15  C   UNL     1       4.853  28.341  50.374  1.00  0.00     0.035 A 
HETATM   16  C   UNL     1       3.976  27.434  49.773  1.00  0.00     0.039 A 
HETATM   17  C   UNL     1       3.608  27.568  48.421  1.00  0.00    -0.028 A 
HETATM   18  C   UNL     1       4.137  28.632  47.679  1.00  0.00     0.010 A 
HETATM   19  C   UNL     1       5.009  29.543  48.271  1.00  0.00     0.003 A 
HETATM   20  C   UNL     1       5.357  29.403  49.614  1.00  0.00     0.029 A 
BRANCH  17  21
HETATM   21  C   UNL     1       2.618  26.595  47.815  1.00  0.00     0.147 C 
HETATM   22  C   UNL     1       3.093  25.155  47.978  1.00  0.00     0.044 C 
BRANCH  21  23
HETATM   23  O   UNL     1       1.343  26.737  48.437  1.00  0.00    -0.391 OA
HETATM   24  H   UNL     1       1.117  27.681  48.404  1.00  0.00     0.210 HD
ENDBRANCH  21  23
ENDBRANCH  17  21
ENDBRANCH  12  15
ENDBRANCH   1  11
BRANCH   4  25
HETATM   25  C   UNL     1       7.902  26.266  57.059  1.00  0.00     0.409 C 
HETATM   26  F   UNL     1       8.228  25.163  57.755  1.00  0.00    -0.169 F 
HETATM   27  F   UNL     1       8.458  26.152  55.832  1.00  0.00    -0.169 F 
HETATM   28  F   UNL     1       8.530  27.315  57.656  1.00  0.00    -0.169 F 
ENDBRANCH   4  25
BRANCH   6  29
HETATM   29  C   UNL     1       6.541  24.047  54.816  1.00  0.00    -0.035 A 
HETATM   30  C   UNL     1       6.926  24.343  53.493  1.00  0.00     0.009 A 
HETATM   31  C   UNL     1       8.003  23.688  52.889  1.00  0.00     0.001 A 
HETATM   32  C   UNL     1       8.726  22.735  53.598  1.00  0.00     0.000 A 
HETATM   33  C   UNL     1       8.377  22.441  54.912  1.00  0.00     0.001 A 
HETATM   34  C   UNL     1       7.299  23.092  55.517  1.00  0.00     0.009 A 
ENDBRANCH   6  29
TORSDOF 6
ENDMDL
MODEL 4
REMARK VINA RESULT:      -9.2      6.109      8.338
REMARK  6 active torsions:
REMARK  status: ('A' for Active; 'I' for Inactive)
REMARK    1  A    between atoms: C_2  and  O_3 
REMARK    2  A    between atoms: C_2  and  C_4 
REMARK    3  A    between atoms: C_6  and  N_7 
REMARK       I    between atoms: N_7  and  C_8 
REMARK    4  A    between atoms: C_8  and  C_9 
REMARK    5  A    between atoms: C_12  and  C_13 
REMARK    6  A    between atoms: C_18  and  C_19 
ROOT
HETATM    1  C   UNL     1       5.857  26.931  52.699  1.00  0.00     0.096 A 
HETATM    2  C   UNL     1       5.653  27.647  51.533  1.00  0.00     0.138 A 
HETATM    3  N   UNL     1       4.835  28.695  51.878  1.00  0.00    -0.240 N 
HETATM    4  C   UNL     1       4.403  29.744  50.975  1.00  0.00     0.221 C 
HETATM    5  C   UNL     1       5.201  29.684  49.658  1.00  0.00     0.066 C 
HETATM    6  C   UNL     1       5.483  28.254  49.162  1.00  0.00     0.118 C 
HETATM    7  N   UNL     1       6.084  27.477  50.255  1.00  0.00    -0.365 N 
HETATM    8  N   UNL     1       4.497  28.714  53.177  1.00  0.00    -0.181 NA
HETATM    9  C   UNL     1       5.076  27.612  53.662  1.00  0.00     0.160 A 
HETATM   10  H   UNL     1       6.401  26.553  49.954  1.00  0.00     0.161 HD
ENDROOT
BRANCH   1  11
HETATM   11  C   UNL     1       6.683  25.758  52.924  1.00  0.00     0.261 C 
HETATM   12  N   UNL     1       6.653  25.326  54.237  1.00  0.00    -0.323 N 
HETATM   13  H   UNL     1       5.999  25.817  54.837  1.00  0.00     0.169 HD
HETATM   14  O   UNL     1       7.266  25.213  51.994  1.00  0.00    -0.267 OA
BRANCH  12  15
HETATM   15  C   UNL     1       7.292  24.201  54.791  1.00  0.00     0.035 A 
HETATM   16  C   UNL     1       7.266  22.930  54.212  1.00  0.00     0.039 A 
HETATM   17  C   UNL     1       7.923  21.843  54.819  1.00  0.00    -0.028 A 
HETATM   18  C   UNL     1       8.610  22.054  56.022  1.00  0.00     0.010 A 
HETATM   19  C   UNL     1       8.643  23.319  56.604  1.00  0.00     0.003 A 
HETATM   20  C   UNL     1       7.996  24.389  55.985  1.00  0.00     0.029 A 
BRANCH  17  21
HETATM   21  C   UNL     1       7.915  20.489  54.140  1.00  0.00     0.147 C 
HETATM   22  C   UNL     1       8.316  20.607  52.674  1.00  0.00     0.044 C 
BRANCH  21  23
HETATM   23  O   UNL     1       8.817  19.601  54.798  1.00  0.00    -0.391 OA
HETATM   24  H   UNL     1       9.633  20.102  54.964  1.00  0.00     0.210 HD
ENDBRANCH  21  23
ENDBRANCH  17  21
ENDBRANCH  12  15
ENDBRANCH   1  11
BRANCH   4  25
HETATM   25  C   UNL     1       2.901  29.706  50.786  1.00  0.00     0.409 C 
HETATM   26  F   UNL     1       2.381  28.465  50.768  1.00  0.00    -0.169 F 
HETATM   27  F   UNL     1       2.250  30.406  51.742  1.00  0.00    -0.169 F 
HETATM   28  F   UNL     1       2.570  30.293  49.604  1.00  0.00    -0.169 F 
ENDBRANCH   4  25
BRANCH   6  29
HETATM   29  C   UNL     1       4.304  27.563  48.494  1.00  0.00    -0.035 A 
HETATM   30  C   UNL     1       3.512  28.290  47.584  1.00  0.00     0.009 A 
HETATM   31  C   UNL     1       2.410  27.705  46.955  1.00  0.00     0.001 A 
HETATM   32  C   UNL     1       2.085  26.378  47.212  1.00  0.00     0.000 A 
HETATM   33  C   UNL     1       2.865  25.633  48.092  1.00  0.00     0.001 A 
HETATM   34  C   UNL     1       3.966  26.218  48.723  1.00  0.00     0.009 A 
ENDBRANCH   6  29
TORSDOF 6
ENDMDL
MODEL 5
REMARK VINA RESULT:      -8.9      6.064      8.296
REMARK  6 active torsions:
REMARK  status: ('A' for Active; 'I' for Inactive)
REMARK    1  A    between atoms: C_2  and  O_3 
REMARK    2  A    between atoms: C_2  and  C_4 
REMARK    3  A    between atoms: C_6  and  N_7 
REMARK       I    between atoms: N_7  and  C_8 
REMARK    4  A    between atoms: C_8  and  C_9 
REMARK    5  A    between atoms: C_12  and  C_13 
REMARK    6  A    between atoms: C_18  and  C_19 
ROOT
HETATM    1  C   UNL     1       4.950  27.044  52.821  1.00  0.00     0.096 A 
HETATM    2  C   UNL     1       5.155  27.799  51.681  1.00  0.00     0.138 A 
HETATM    3  N   UNL     1       4.814  29.086  52.020  1.00  0.00    -0.240 N 
HETATM    4  C   UNL     1       4.927  30.234  51.141  1.00  0.00     0.221 C 
HETATM    5  C   UNL     1       5.737  29.872  49.882  1.00  0.00     0.066 C 
HETATM    6  C   UNL     1       5.448  28.461  49.337  1.00  0.00     0.118 C 
HETATM    7  N   UNL     1       5.584  27.488  50.429  1.00  0.00    -0.365 N 
HETATM    8  N   UNL     1       4.406  29.222  53.292  1.00  0.00    -0.181 NA
HETATM    9  C   UNL     1       4.439  27.971  53.761  1.00  0.00     0.160 A 
HETATM   10  H   UNL     1       5.518  26.520  50.106  1.00  0.00     0.161 HD
ENDROOT
BRANCH   1  11
HETATM   11  C   UNL     1       5.199  25.631  53.045  1.00  0.00     0.261 C 
HETATM   12  N   UNL     1       6.521  25.363  53.351  1.00  0.00    -0.323 N 
HETATM   13  H   UNL     1       7.110  26.180  53.471  1.00  0.00     0.169 HD
HETATM   14  O   UNL     1       4.281  24.820  53.018  1.00  0.00    -0.267 OA
BRANCH  12  15
HETATM   15  C   UNL     1       7.097  24.119  53.671  1.00  0.00     0.035 A 
HETATM   16  C   UNL     1       7.221  23.632  54.974  1.00  0.00     0.039 A 
HETATM   17  C   UNL     1       7.812  22.380  55.228  1.00  0.00    -0.028 A 
HETATM   18  C   UNL     1       8.280  21.622  54.146  1.00  0.00     0.010 A 
HETATM   19  C   UNL     1       8.158  22.099  52.843  1.00  0.00     0.003 A 
HETATM   20  C   UNL     1       7.560  23.337  52.607  1.00  0.00     0.029 A 
BRANCH  17  21
HETATM   21  C   UNL     1       7.886  21.861  56.648  1.00  0.00     0.147 C 
HETATM   22  C   UNL     1       8.768  20.620  56.735  1.00  0.00     0.044 C 
BRANCH  21  23
HETATM   23  O   UNL     1       8.413  22.865  57.513  1.00  0.00    -0.391 OA
HETATM   24  H   UNL     1       8.358  22.515  58.418  1.00  0.00     0.210 HD
ENDBRANCH  21  23
ENDBRANCH  17  21
ENDBRANCH  12  15
ENDBRANCH   1  11
BRANCH   4  25
HETATM   25  C   UNL     1       3.563  30.823  50.847  1.00  0.00     0.409 C 
HETATM   26  F   UNL     1       3.130  31.696  51.774  1.00  0.00    -0.169 F 
HETATM   27  F   UNL     1       3.527  31.450  49.649  1.00  0.00    -0.169 F 
HETATM   28  F   UNL     1       2.638  29.828  50.773  1.00  0.00    -0.169 F 
ENDBRANCH   4  25
BRANCH   6  29
HETATM   29  C   UNL     1       4.150  28.330  48.555  1.00  0.00    -0.035 A 
HETATM   30  C   UNL     1       3.285  27.255  48.843  1.00  0.00     0.009 A 
HETATM   31  C   UNL     1       2.088  27.083  48.143  1.00  0.00     0.001 A 
HETATM   32  C   UNL     1       1.724  27.987  47.152  1.00  0.00     0.000 A 
HETATM   33  C   UNL     1       2.553  29.067  46.863  1.00  0.00     0.001 A 
HETATM   34  C   UNL     1       3.751  29.240  47.561  1.00  0.00     0.009 A 
ENDBRANCH   6  29
TORSDOF 6
ENDMDL
MODEL 6
REMARK VINA RESULT:      -8.9      2.282      4.274
REMARK  6 active torsions:
REMARK  status: ('A' for Active; 'I' for Inactive)
REMARK    1  A    between atoms: C_2  and  O_3 
REMARK    2  A    between atoms: C_2  and  C_4 
REMARK    3  A    between atoms: C_6  and  N_7 
REMARK       I    between atoms: N_7  and  C_8 
REMARK    4  A    between atoms: C_8  and  C_9 
REMARK    5  A    between atoms: C_12  and  C_13 
REMARK    6  A    between atoms: C_18  and  C_19 
ROOT
HETATM    1  C   UNL     1       8.121  30.178  58.414  1.00  0.00     0.096 A 
HETATM    2  C   UNL     1       7.086  29.449  57.857  1.00  0.00     0.138 A 
HETATM    3  N   UNL     1       7.685  28.487  57.079  1.00  0.00    -0.240 N 
HETATM    4  C   UNL     1       6.979  27.454  56.346  1.00  0.00     0.221 C 
HETATM    5  C   UNL     1       5.499  27.404  56.774  1.00  0.00     0.066 C 
HETATM    6  C   UNL     1       4.874  28.787  57.027  1.00  0.00     0.118 C 
HETATM    7  N   UNL     1       5.733  29.540  57.951  1.00  0.00    -0.365 N 
HETATM    8  N   UNL     1       9.026  28.538  57.091  1.00  0.00    -0.181 NA
HETATM    9  C   UNL     1       9.287  29.599  57.861  1.00  0.00     0.160 A 
HETATM   10  H   UNL     1       5.313  30.423  58.249  1.00  0.00     0.161 HD
ENDROOT
BRANCH   1  11
HETATM   11  C   UNL     1       8.064  31.280  59.358  1.00  0.00     0.261 C 
HETATM   12  N   UNL     1       7.383  30.957  60.517  1.00  0.00    -0.323 N 
HETATM   13  H   UNL     1       7.102  29.985  60.596  1.00  0.00     0.169 HD
HETATM   14  O   UNL     1       8.636  32.338  59.123  1.00  0.00    -0.267 OA
BRANCH  12  15
HETATM   15  C   UNL     1       7.182  31.763  61.653  1.00  0.00     0.035 A 
HETATM   16  C   UNL     1       5.969  32.385  61.960  1.00  0.00     0.039 A 
HETATM   17  C   UNL     1       5.833  33.184  63.110  1.00  0.00    -0.028 A 
HETATM   18  C   UNL     1       6.941  33.350  63.952  1.00  0.00     0.010 A 
HETATM   19  C   UNL     1       8.153  32.732  63.655  1.00  0.00     0.003 A 
HETATM   20  C   UNL     1       8.269  31.934  62.517  1.00  0.00     0.029 A 
BRANCH  17  21
HETATM   21  C   UNL     1       4.491  33.804  63.437  1.00  0.00     0.147 C 
HETATM   22  C   UNL     1       3.422  33.354  62.448  1.00  0.00     0.044 C 
BRANCH  21  23
HETATM   23  O   UNL     1       4.086  33.438  64.755  1.00  0.00    -0.391 OA
HETATM   24  H   UNL     1       3.206  33.034  64.677  1.00  0.00     0.210 HD
ENDBRANCH  21  23
ENDBRANCH  17  21
ENDBRANCH  12  15
ENDBRANCH   1  11
BRANCH   4  25
HETATM   25  C   UNL     1       7.182  27.620  54.854  1.00  0.00     0.409 C 
HETATM   26  F   UNL     1       7.276  28.899  54.451  1.00  0.00    -0.169 F 
HETATM   27  F   UNL     1       8.286  26.973  54.416  1.00  0.00    -0.169 F 
HETATM   28  F   UNL     1       6.136  27.066  54.182  1.00  0.00    -0.169 F 
ENDBRANCH   4  25
BRANCH   6  29
HETATM   29  C   UNL     1       4.497  29.559  55.772  1.00  0.00    -0.035 A 
HETATM   30  C   UNL     1       3.879  28.874  54.708  1.00  0.00     0.009 A 
HETATM   31  C   UNL     1       3.527  29.535  53.529  1.00  0.00     0.001 A 
HETATM   32  C   UNL     1       3.772  30.897  53.394  1.00  0.00     0.000 A 
HETATM   33  C   UNL     1       4.363  31.599  54.439  1.00  0.00     0.001 A 
HETATM   34  C   UNL     1       4.718  30.939  55.618  1.00  0.00     0.009 A 
ENDBRANCH   6  29
TORSDOF 6
ENDMDL
MODEL 7
REMARK VINA RESULT:      -8.9      5.010      8.922
REMARK  6 active torsions:
REMARK  status: ('A' for Active; 'I' for Inactive)
REMARK    1  A    between atoms: C_2  and  O_3 
REMARK    2  A    between atoms: C_2  and  C_4 
REMARK    3  A    between atoms: C_6  and  N_7 
REMARK       I    between atoms: N_7  and  C_8 
REMARK    4  A    between atoms: C_8  and  C_9 
REMARK    5  A    between atoms: C_12  and  C_13 
REMARK    6  A    between atoms: C_18  and  C_19 
ROOT
HETATM    1  C   UNL     1       5.111  28.015  53.878  1.00  0.00     0.096 A 
HETATM    2  C   UNL     1       5.306  26.957  54.746  1.00  0.00     0.138 A 
HETATM    3  N   UNL     1       6.088  27.449  55.763  1.00  0.00    -0.240 N 
HETATM    4  C   UNL     1       6.497  26.697  56.934  1.00  0.00     0.221 C 
HETATM    5  C   UNL     1       5.717  25.372  57.024  1.00  0.00     0.066 C 
HETATM    6  C   UNL     1       5.485  24.689  55.665  1.00  0.00     0.118 C 
HETATM    7  N   UNL     1       4.895  25.661  54.734  1.00  0.00    -0.365 N 
HETATM    8  N   UNL     1       6.410  28.744  55.621  1.00  0.00    -0.181 NA
HETATM    9  C   UNL     1       5.860  29.071  54.448  1.00  0.00     0.160 A 
HETATM   10  H   UNL     1       4.610  25.236  53.848  1.00  0.00     0.161 HD
ENDROOT
BRANCH   1  11
HETATM   11  C   UNL     1       4.320  28.072  52.661  1.00  0.00     0.261 C 
HETATM   12  N   UNL     1       5.059  27.786  51.528  1.00  0.00    -0.323 N 
HETATM   13  H   UNL     1       6.013  27.487  51.699  1.00  0.00     0.169 HD
HETATM   14  O   UNL     1       3.114  28.288  52.706  1.00  0.00    -0.267 OA
BRANCH  12  15
HETATM   15  C   UNL     1       4.603  27.704  50.199  1.00  0.00     0.035 A 
HETATM   16  C   UNL     1       4.156  28.804  49.462  1.00  0.00     0.039 A 
HETATM   17  C   UNL     1       3.708  28.655  48.135  1.00  0.00    -0.028 A 
HETATM   18  C   UNL     1       3.717  27.378  47.559  1.00  0.00     0.010 A 
HETATM   19  C   UNL     1       4.164  26.277  48.285  1.00  0.00     0.003 A 
HETATM   20  C   UNL     1       4.615  26.442  49.595  1.00  0.00     0.029 A 
BRANCH  17  21
HETATM   21  C   UNL     1       3.274  29.875  47.350  1.00  0.00     0.147 C 
HETATM   22  C   UNL     1       4.468  30.556  46.689  1.00  0.00     0.044 C 
BRANCH  21  23
HETATM   23  O   UNL     1       2.335  29.505  46.343  1.00  0.00    -0.391 OA
HETATM   24  H   UNL     1       2.591  28.622  46.030  1.00  0.00     0.210 HD
ENDBRANCH  21  23
ENDBRANCH  17  21
ENDBRANCH  12  15
ENDBRANCH   1  11
BRANCH   4  25
HETATM   25  C   UNL     1       8.002  26.528  56.964  1.00  0.00     0.409 C 
HETATM   26  F   UNL     1       8.665  27.593  57.448  1.00  0.00    -0.169 F 
HETATM   27  F   UNL     1       8.378  25.451  57.691  1.00  0.00    -0.169 F 
HETATM   28  F   UNL     1       8.467  26.307  55.705  1.00  0.00    -0.169 F 
ENDBRANCH   4  25
BRANCH   6  29
HETATM   29  C   UNL     1       6.691  23.954  55.102  1.00  0.00    -0.035 A 
HETATM   30  C   UNL     1       7.448  23.128  55.957  1.00  0.00     0.009 A 
HETATM   31  C   UNL     1       8.573  22.443  55.491  1.00  0.00     0.001 A 
HETATM   32  C   UNL     1       8.958  22.558  54.160  1.00  0.00     0.000 A 
HETATM   33  C   UNL     1       8.215  23.352  53.293  1.00  0.00     0.001 A 
HETATM   34  C   UNL     1       7.090  24.040  53.757  1.00  0.00     0.009 A 
ENDBRANCH   6  29
TORSDOF 6
ENDMDL
MODEL 8
REMARK VINA RESULT:      -8.6      4.754      9.245
REMARK  6 active torsions:
REMARK  status: ('A' for Active; 'I' for Inactive)
REMARK    1  A    between atoms: C_2  and  O_3 
REMARK    2  A    between atoms: C_2  and  C_4 
REMARK    3  A    between atoms: C_6  and  N_7 
REMARK       I    between atoms: N_7  and  C_8 
REMARK    4  A    between atoms: C_8  and  C_9 
REMARK    5  A    between atoms: C_12  and  C_13 
REMARK    6  A    between atoms: C_18  and  C_19 
ROOT
HETATM    1  C   UNL     1       4.841  32.743  58.478  1.00  0.00     0.096 A 
HETATM    2  C   UNL     1       4.426  32.781  59.797  1.00  0.00     0.138 A 
HETATM    3  N   UNL     1       3.967  34.058  60.007  1.00  0.00    -0.240 N 
HETATM    4  C   UNL     1       3.379  34.537  61.243  1.00  0.00     0.221 C 
HETATM    5  C   UNL     1       3.082  33.359  62.191  1.00  0.00     0.066 C 
HETATM    6  C   UNL     1       4.160  32.261  62.180  1.00  0.00     0.118 C 
HETATM    7  N   UNL     1       4.416  31.853  60.792  1.00  0.00    -0.365 N 
HETATM    8  N   UNL     1       4.052  34.849  58.925  1.00  0.00    -0.181 NA
HETATM    9  C   UNL     1       4.632  34.063  58.014  1.00  0.00     0.160 A 
HETATM   10  H   UNL     1       5.039  31.045  60.726  1.00  0.00     0.161 HD
ENDROOT
BRANCH   1  11
HETATM   11  C   UNL     1       5.365  31.626  57.711  1.00  0.00     0.261 C 
HETATM   12  N   UNL     1       6.422  30.994  58.339  1.00  0.00    -0.323 N 
HETATM   13  H   UNL     1       6.628  31.325  59.276  1.00  0.00     0.169 HD
HETATM   14  O   UNL     1       4.838  31.287  56.658  1.00  0.00    -0.267 OA
BRANCH  12  15
HETATM   15  C   UNL     1       7.129  29.858  57.905  1.00  0.00     0.035 A 
HETATM   16  C   UNL     1       6.527  28.629  57.621  1.00  0.00     0.039 A 
HETATM   17  C   UNL     1       7.292  27.527  57.194  1.00  0.00    -0.028 A 
HETATM   18  C   UNL     1       8.677  27.680  57.056  1.00  0.00     0.010 A 
HETATM   19  C   UNL     1       9.286  28.902  57.333  1.00  0.00     0.003 A 
HETATM   20  C   UNL     1       8.513  29.987  57.746  1.00  0.00     0.029 A 
BRANCH  17  21
HETATM   21  C   UNL     1       6.600  26.225  56.849  1.00  0.00     0.147 C 
HETATM   22  C   UNL     1       6.996  25.744  55.458  1.00  0.00     0.044 C 
BRANCH  21  23
HETATM   23  O   UNL     1       6.940  25.219  57.802  1.00  0.00    -0.391 OA
HETATM   24  H   UNL     1       7.215  24.436  57.298  1.00  0.00     0.210 HD
ENDBRANCH  21  23
ENDBRANCH  17  21
ENDBRANCH  12  15
ENDBRANCH   1  11
BRANCH   4  25
HETATM   25  C   UNL     1       4.236  35.622  61.861  1.00  0.00     0.409 C 
HETATM   26  F   UNL     1       5.559  35.414  61.738  1.00  0.00    -0.169 F 
HETATM   27  F   UNL     1       3.966  36.841  61.341  1.00  0.00    -0.169 F 
HETATM   28  F   UNL     1       3.969  35.718  63.192  1.00  0.00    -0.169 F 
ENDBRANCH   4  25
BRANCH   6  29
HETATM   29  C   UNL     1       5.419  32.591  62.966  1.00  0.00    -0.035 A 
HETATM   30  C   UNL     1       6.676  32.349  62.376  1.00  0.00     0.009 A 
HETATM   31  C   UNL     1       7.861  32.622  63.062  1.00  0.00     0.001 A 
HETATM   32  C   UNL     1       7.817  33.155  64.345  1.00  0.00     0.000 A 
HETATM   33  C   UNL     1       6.588  33.421  64.941  1.00  0.00     0.001 A 
HETATM   34  C   UNL     1       5.401  33.146  64.257  1.00  0.00     0.009 A 
ENDBRANCH   6  29
TORSDOF 6
ENDMDL
MODEL 9
REMARK VINA RESULT:      -8.3      4.719      9.643
REMARK  6 active torsions:
REMARK  status: ('A' for Active; 'I' for Inactive)
REMARK    1  A    between atoms: C_2  and  O_3 
REMARK    2  A    between atoms: C_2  and  C_4 
REMARK    3  A    between atoms: C_6  and  N_7 
REMARK       I    between atoms: N_7  and  C_8 
REMARK    4  A    between atoms: C_8  and  C_9 
REMARK    5  A    between atoms: C_12  and  C_13 
REMARK    6  A    between atoms: C_18  and  C_19 
ROOT
HETATM    1  C   UNL     1       5.023  32.514  58.643  1.00  0.00     0.096 A 
HETATM    2  C   UNL     1       4.550  32.650  59.935  1.00  0.00     0.138 A 
HETATM    3  N   UNL     1       4.095  33.943  60.031  1.00  0.00    -0.240 N 
HETATM    4  C   UNL     1       3.457  34.514  61.202  1.00  0.00     0.221 C 
HETATM    5  C   UNL     1       3.107  33.410  62.219  1.00  0.00     0.066 C 
HETATM    6  C   UNL     1       4.174  32.307  62.336  1.00  0.00     0.118 C 
HETATM    7  N   UNL     1       4.487  31.798  60.993  1.00  0.00    -0.365 N 
HETATM    8  N   UNL     1       4.234  34.652  58.900  1.00  0.00    -0.181 NA
HETATM    9  C   UNL     1       4.847  33.798  58.075  1.00  0.00     0.160 A 
HETATM   10  H   UNL     1       5.105  30.984  61.014  1.00  0.00     0.161 HD
ENDROOT
BRANCH   1  11
HETATM   11  C   UNL     1       5.568  31.341  57.983  1.00  0.00     0.261 C 
HETATM   12  N   UNL     1       4.652  30.717  57.157  1.00  0.00    -0.323 N 
HETATM   13  H   UNL     1       3.768  31.203  57.048  1.00  0.00     0.169 HD
HETATM   14  O   UNL     1       6.744  31.029  58.130  1.00  0.00    -0.267 OA
BRANCH  12  15
HETATM   15  C   UNL     1       4.856  29.592  56.336  1.00  0.00     0.035 A 
HETATM   16  C   UNL     1       5.066  28.301  56.825  1.00  0.00     0.039 A 
HETATM   17  C   UNL     1       5.269  27.217  55.950  1.00  0.00    -0.028 A 
HETATM   18  C   UNL     1       5.257  27.453  54.569  1.00  0.00     0.010 A 
HETATM   19  C   UNL     1       5.045  28.737  54.073  1.00  0.00     0.003 A 
HETATM   20  C   UNL     1       4.835  29.799  54.952  1.00  0.00     0.029 A 
BRANCH  17  21
HETATM   21  C   UNL     1       5.447  25.823  56.514  1.00  0.00     0.147 C 
HETATM   22  C   UNL     1       6.753  25.707  57.291  1.00  0.00     0.044 C 
BRANCH  21  23
HETATM   23  O   UNL     1       4.361  25.499  57.380  1.00  0.00    -0.391 OA
HETATM   24  H   UNL     1       4.237  26.259  57.972  1.00  0.00     0.210 HD
ENDBRANCH  21  23
ENDBRANCH  17  21
ENDBRANCH  12  15
ENDBRANCH   1  11
BRANCH   4  25
HETATM   25  C   UNL     1       4.296  35.636  61.778  1.00  0.00     0.409 C 
HETATM   26  F   UNL     1       5.622  35.415  61.721  1.00  0.00    -0.169 F 
HETATM   27  F   UNL     1       4.054  36.818  61.166  1.00  0.00    -0.169 F 
HETATM   28  F   UNL     1       3.980  35.823  63.088  1.00  0.00    -0.169 F 
ENDBRANCH   4  25
BRANCH   6  29
HETATM   29  C   UNL     1       5.401  32.685  63.151  1.00  0.00    -0.035 A 
HETATM   30  C   UNL     1       5.224  33.265  64.422  1.00  0.00     0.009 A 
HETATM   31  C   UNL     1       6.319  33.643  65.203  1.00  0.00     0.001 A 
HETATM   32  C   UNL     1       7.612  33.437  64.737  1.00  0.00     0.000 A 
HETATM   33  C   UNL     1       7.812  32.848  63.493  1.00  0.00     0.001 A 
HETATM   34  C   UNL     1       6.718  32.471  62.709  1.00  0.00     0.009 A 
ENDBRANCH   6  29
TORSDOF 6
ENDMDL
MODEL 10
REMARK VINA RESULT:      -8.3      4.054      6.709
REMARK  6 active torsions:
REMARK  status: ('A' for Active; 'I' for Inactive)
REMARK    1  A    between atoms: C_2  and  O_3 
REMARK    2  A    between atoms: C_2  and  C_4 
REMARK    3  A    between atoms: C_6  and  N_7 
REMARK       I    between atoms: N_7  and  C_8 
REMARK    4  A    between atoms: C_8  and  C_9 
REMARK    5  A    between atoms: C_12  and  C_13 
REMARK    6  A    between atoms: C_18  and  C_19 
ROOT
HETATM    1  C   UNL     1       5.353  27.546  52.412  1.00  0.00     0.096 A 
HETATM    2  C   UNL     1       4.523  28.067  51.437  1.00  0.00     0.138 A 
HETATM    3  N   UNL     1       4.607  27.201  50.373  1.00  0.00    -0.240 N 
HETATM    4  C   UNL     1       3.853  27.324  49.141  1.00  0.00     0.221 C 
HETATM    5  C   UNL     1       2.746  28.386  49.289  1.00  0.00     0.066 C 
HETATM    6  C   UNL     1       3.169  29.621  50.105  1.00  0.00     0.118 C 
HETATM    7  N   UNL     1       3.740  29.178  51.384  1.00  0.00    -0.365 N 
HETATM    8  N   UNL     1       5.426  26.160  50.586  1.00  0.00    -0.181 NA
HETATM    9  C   UNL     1       5.919  26.400  51.805  1.00  0.00     0.160 A 
HETATM   10  H   UNL     1       3.934  29.955  52.020  1.00  0.00     0.161 HD
ENDROOT
BRANCH   1  11
HETATM   11  C   UNL     1       5.604  28.027  53.759  1.00  0.00     0.261 C 
HETATM   12  N   UNL     1       6.914  27.838  54.160  1.00  0.00    -0.323 N 
HETATM   13  H   UNL     1       7.537  27.484  53.442  1.00  0.00     0.169 HD
HETATM   14  O   UNL     1       4.724  28.592  54.397  1.00  0.00    -0.267 OA
BRANCH  12  15
HETATM   15  C   UNL     1       7.509  28.225  55.375  1.00  0.00     0.035 A 
HETATM   16  C   UNL     1       8.650  29.026  55.461  1.00  0.00     0.039 A 
HETATM   17  C   UNL     1       9.199  29.375  56.709  1.00  0.00    -0.028 A 
HETATM   18  C   UNL     1       8.581  28.904  57.875  1.00  0.00     0.010 A 
HETATM   19  C   UNL     1       7.441  28.108  57.798  1.00  0.00     0.003 A 
HETATM   20  C   UNL     1       6.902  27.779  56.555  1.00  0.00     0.029 A 
BRANCH  17  21
HETATM   21  C   UNL     1      10.409  30.284  56.767  1.00  0.00     0.147 C 
HETATM   22  C   UNL     1      10.382  31.157  58.017  1.00  0.00     0.044 C 
BRANCH  21  23
HETATM   23  O   UNL     1      11.608  29.511  56.767  1.00  0.00    -0.391 OA
HETATM   24  H   UNL     1      11.798  29.288  57.693  1.00  0.00     0.210 HD
ENDBRANCH  21  23
ENDBRANCH  17  21
ENDBRANCH  12  15
ENDBRANCH   1  11
BRANCH   4  25
HETATM   25  C   UNL     1       4.779  27.561  47.966  1.00  0.00     0.409 C 
HETATM   26  F   UNL     1       5.856  28.312  48.257  1.00  0.00    -0.169 F 
HETATM   27  F   UNL     1       5.224  26.403  47.427  1.00  0.00    -0.169 F 
HETATM   28  F   UNL     1       4.106  28.199  46.970  1.00  0.00    -0.169 F 
ENDBRANCH   4  25
BRANCH   6  29
HETATM   29  C   UNL     1       4.041  30.616  49.356  1.00  0.00    -0.035 A 
HETATM   30  C   UNL     1       5.243  31.053  49.947  1.00  0.00     0.009 A 
HETATM   31  C   UNL     1       6.071  31.977  49.305  1.00  0.00     0.001 A 
HETATM   32  C   UNL     1       5.723  32.474  48.054  1.00  0.00     0.000 A 
HETATM   33  C   UNL     1       4.551  32.043  47.441  1.00  0.00     0.001 A 
HETATM   34  C   UNL     1       3.720  31.120  48.083  1.00  0.00     0.009 A 
ENDBRANCH   6  29
TORSDOF 6
ENDMDL
