MODEL 1
REMARK VINA RESULT:     -11.5      0.000      0.000
REMARK  9 active torsions:
REMARK  status: ('A' for Active; 'I' for Inactive)
REMARK    1  A    between atoms: C_2  and  O_3 
REMARK    2  A    between atoms: O_3  and  C_4 
REMARK    3  A    between atoms: C_4  and  C_5 
REMARK    4  A    between atoms: C_8  and  N_9 
REMARK       I    between atoms: N_9  and  C_10 
REMARK    5  A    between atoms: C_10  and  C_11 
REMARK    6  A    between atoms: C_13  and  N_14 
REMARK    7  A    between atoms: N_17  and  C_19 
REMARK    8  A    between atoms: C_19  and  C_20 
REMARK    9  A    between atoms: C_19  and  C_26 
ROOT
HETATM    1  C   UNL     1       9.155  30.711  60.798  1.00  0.00     0.164 C 
HETATM    2  N   UNL     1       8.454  29.678  60.016  1.00  0.00    -0.249 NA
HETATM    3  C   UNL     1       8.256  29.832  58.682  1.00  0.00     0.181 C 
HETATM    4  N   UNL     1       8.868  30.699  57.946  1.00  0.00    -0.185 NA
HETATM    5  C   UNL     1       9.746  31.528  58.602  1.00  0.00     0.247 C 
HETATM    6  O   UNL     1      10.776  31.947  58.087  1.00  0.00    -0.271 OA
HETATM    7  C   UNL     1       9.332  31.968  59.979  1.00  0.00     0.134 C 
HETATM    8  H   UNL     1       7.596  29.413  60.513  1.00  0.00     0.131 HD
ENDROOT
BRANCH   3   9
HETATM    9  N   UNL     1       7.297  28.982  58.177  1.00  0.00    -0.353 N 
HETATM   10  C   UNL     1       7.591  27.564  57.886  1.00  0.00     0.153 C 
HETATM   11  C   UNL     1       7.900  27.381  56.386  1.00  0.00     0.256 C 
HETATM   12  N   UNL     1       6.704  27.874  55.571  1.00  0.00    -0.056 N 
HETATM   13  H   UNL     1       5.865  27.423  55.941  1.00  0.00     0.281 HD
HETATM   14  C   UNL     1       6.499  29.369  55.850  1.00  0.00     0.256 C 
HETATM   15  C   UNL     1       6.206  29.552  57.355  1.00  0.00     0.153 C 
BRANCH  12  16
HETATM   16  C   UNL     1       6.715  27.502  54.092  1.00  0.00     0.254 C 
BRANCH  16  17
HETATM   17  C   UNL     1       7.011  26.023  53.860  1.00  0.00    -0.023 A 
HETATM   18  C   UNL     1       7.750  25.578  52.749  1.00  0.00     0.009 A 
HETATM   19  C   UNL     1       8.003  24.219  52.559  1.00  0.00     0.001 A 
HETATM   20  C   UNL     1       7.525  23.285  53.474  1.00  0.00     0.000 A 
HETATM   21  C   UNL     1       6.795  23.706  54.582  1.00  0.00     0.001 A 
HETATM   22  C   UNL     1       6.540  25.064  54.776  1.00  0.00     0.009 A 
ENDBRANCH  16  17
BRANCH  16  23
HETATM   23  C   UNL     1       5.528  28.056  53.280  1.00  0.00    -0.023 A 
HETATM   24  C   UNL     1       4.179  27.886  53.652  1.00  0.00     0.009 A 
HETATM   25  C   UNL     1       3.142  28.438  52.892  1.00  0.00     0.001 A 
HETATM   26  C   UNL     1       3.427  29.187  51.756  1.00  0.00     0.000 A 
HETATM   27  C   UNL     1       4.749  29.397  51.383  1.00  0.00     0.001 A 
HETATM   28  C   UNL     1       5.787  28.848  52.142  1.00  0.00     0.009 A 
ENDBRANCH  16  23
ENDBRANCH  12  16
ENDBRANCH   3   9
BRANCH   1  29
HETATM   29  C   UNL     1       8.302  30.967  62.062  1.00  0.00     0.240 C 
HETATM   30  N   UNL     1       7.694  32.206  62.125  1.00  0.00    -0.326 N 
HETATM   31  H   UNL     1       7.803  32.834  61.338  1.00  0.00     0.169 HD
HETATM   32  O   UNL     1       8.247  30.084  62.922  1.00  0.00    -0.271 OA
BRANCH  30  33
HETATM   33  C   UNL     1       6.934  32.716  63.206  1.00  0.00     0.034 A 
HETATM   34  C   UNL     1       5.538  32.717  63.244  1.00  0.00     0.030 A 
HETATM   35  C   UNL     1       4.853  33.216  64.358  1.00  0.00     0.020 A 
HETATM   36  C   UNL     1       5.553  33.727  65.455  1.00  0.00     0.039 A 
HETATM   37  C   UNL     1       6.951  33.736  65.420  1.00  0.00     0.020 A 
HETATM   38  C   UNL     1       7.634  33.233  64.303  1.00  0.00     0.030 A 
BRANCH  36  39
HETATM   39  C   UNL     1       4.763  34.226  66.613  1.00  0.00     0.293 C 
HETATM   40  O   UNL     1       3.738  34.876  66.491  1.00  0.00    -0.259 OA
BRANCH  39  41
HETATM   41  O   UNL     1       5.343  33.857  67.782  1.00  0.00    -0.318 OA
BRANCH  41  42
HETATM   42  C   UNL     1       5.729  34.938  68.646  1.00  0.00     0.174 C 
HETATM   43  C   UNL     1       7.206  34.849  68.975  1.00  0.00     0.034 C 
ENDBRANCH  41  42
ENDBRANCH  39  41
ENDBRANCH  36  39
ENDBRANCH  30  33
ENDBRANCH   1  29
TORSDOF 9
ENDMDL
MODEL 2
REMARK VINA RESULT:     -11.2      1.740      2.259
REMARK  9 active torsions:
REMARK  status: ('A' for Active; 'I' for Inactive)
REMARK    1  A    between atoms: C_2  and  O_3 
REMARK    2  A    between atoms: O_3  and  C_4 
REMARK    3  A    between atoms: C_4  and  C_5 
REMARK    4  A    between atoms: C_8  and  N_9 
REMARK       I    between atoms: N_9  and  C_10 
REMARK    5  A    between atoms: C_10  and  C_11 
REMARK    6  A    between atoms: C_13  and  N_14 
REMARK    7  A    between atoms: N_17  and  C_19 
REMARK    8  A    between atoms: C_19  and  C_20 
REMARK    9  A    between atoms: C_19  and  C_26 
ROOT
HETATM    1  C   UNL     1       9.163  30.530  59.627  1.00  0.00     0.164 C 
HETATM    2  N   UNL     1       8.429  29.365  59.104  1.00  0.00    -0.249 NA
HETATM    3  C   UNL     1       8.583  28.970  57.815  1.00  0.00     0.181 C 
HETATM    4  N   UNL     1       9.538  29.360  57.038  1.00  0.00    -0.185 NA
HETATM    5  C   UNL     1      10.418  30.267  57.579  1.00  0.00     0.247 C 
HETATM    6  O   UNL     1      11.608  30.294  57.288  1.00  0.00    -0.271 OA
HETATM    7  C   UNL     1       9.821  31.293  58.501  1.00  0.00     0.134 C 
HETATM    8  H   UNL     1       7.443  29.446  59.375  1.00  0.00     0.131 HD
ENDROOT
BRANCH   3   9
HETATM    9  N   UNL     1       7.588  28.119  57.388  1.00  0.00    -0.353 N 
HETATM   10  C   UNL     1       7.609  26.676  57.707  1.00  0.00     0.153 C 
HETATM   11  C   UNL     1       8.182  25.876  56.521  1.00  0.00     0.256 C 
HETATM   12  N   UNL     1       7.331  26.153  55.280  1.00  0.00    -0.056 N 
HETATM   13  H   UNL     1       6.352  25.997  55.530  1.00  0.00     0.281 HD
HETATM   14  C   UNL     1       7.414  27.649  54.949  1.00  0.00     0.256 C 
HETATM   15  C   UNL     1       6.856  28.449  56.145  1.00  0.00     0.153 C 
BRANCH  12  16
HETATM   16  C   UNL     1       7.573  25.227  54.094  1.00  0.00     0.254 C 
BRANCH  16  17
HETATM   17  C   UNL     1       7.851  23.788  54.517  1.00  0.00    -0.023 A 
HETATM   18  C   UNL     1       7.282  23.230  55.676  1.00  0.00     0.009 A 
HETATM   19  C   UNL     1       7.556  21.912  56.042  1.00  0.00     0.001 A 
HETATM   20  C   UNL     1       8.399  21.130  55.257  1.00  0.00     0.000 A 
HETATM   21  C   UNL     1       8.969  21.662  54.104  1.00  0.00     0.001 A 
HETATM   22  C   UNL     1       8.697  22.980  53.734  1.00  0.00     0.009 A 
ENDBRANCH  16  17
BRANCH  16  23
HETATM   23  C   UNL     1       6.558  25.375  52.944  1.00  0.00    -0.023 A 
HETATM   24  C   UNL     1       5.445  24.528  52.769  1.00  0.00     0.009 A 
HETATM   25  C   UNL     1       4.537  24.729  51.723  1.00  0.00     0.001 A 
HETATM   26  C   UNL     1       4.708  25.789  50.840  1.00  0.00     0.000 A 
HETATM   27  C   UNL     1       5.779  26.659  51.007  1.00  0.00     0.001 A 
HETATM   28  C   UNL     1       6.686  26.461  52.053  1.00  0.00     0.009 A 
ENDBRANCH  16  23
ENDBRANCH  12  16
ENDBRANCH   3   9
BRANCH   1  29
HETATM   29  C   UNL     1       8.133  31.401  60.383  1.00  0.00     0.240 C 
HETATM   30  N   UNL     1       8.203  31.338  61.761  1.00  0.00    -0.326 N 
HETATM   31  H   UNL     1       8.936  30.778  62.179  1.00  0.00     0.169 HD
HETATM   32  O   UNL     1       7.318  32.052  59.724  1.00  0.00    -0.271 OA
BRANCH  30  33
HETATM   33  C   UNL     1       7.327  31.969  62.677  1.00  0.00     0.034 A 
HETATM   34  C   UNL     1       5.940  31.793  62.677  1.00  0.00     0.030 A 
HETATM   35  C   UNL     1       5.139  32.430  63.631  1.00  0.00     0.020 A 
HETATM   36  C   UNL     1       5.708  33.259  64.601  1.00  0.00     0.039 A 
HETATM   37  C   UNL     1       7.094  33.447  64.602  1.00  0.00     0.020 A 
HETATM   38  C   UNL     1       7.895  32.804  63.648  1.00  0.00     0.030 A 
BRANCH  36  39
HETATM   39  C   UNL     1       4.799  33.893  65.595  1.00  0.00     0.293 C 
HETATM   40  O   UNL     1       3.718  34.375  65.299  1.00  0.00    -0.259 OA
BRANCH  39  41
HETATM   41  O   UNL     1       5.343  33.850  66.836  1.00  0.00    -0.318 OA
BRANCH  41  42
HETATM   42  C   UNL     1       5.363  35.100  67.543  1.00  0.00     0.174 C 
HETATM   43  C   UNL     1       6.318  35.026  68.719  1.00  0.00     0.034 C 
ENDBRANCH  41  42
ENDBRANCH  39  41
ENDBRANCH  36  39
ENDBRANCH  30  33
ENDBRANCH   1  29
TORSDOF 9
ENDMDL
MODEL 3
REMARK VINA RESULT:     -11.0      1.191      3.318
REMARK  9 active torsions:
REMARK  status: ('A' for Active; 'I' for Inactive)
REMARK    1  A    between atoms: C_2  and  O_3 
REMARK    2  A    between atoms: O_3  and  C_4 
REMARK    3  A    between atoms: C_4  and  C_5 
REMARK    4  A    between atoms: C_8  and  N_9 
REMARK       I    between atoms: N_9  and  C_10 
REMARK    5  A    between atoms: C_10  and  C_11 
REMARK    6  A    between atoms: C_13  and  N_14 
REMARK    7  A    between atoms: N_17  and  C_19 
REMARK    8  A    between atoms: C_19  and  C_20 
REMARK    9  A    between atoms: C_19  and  C_26 
ROOT
HETATM    1  C   UNL     1       9.448  30.680  59.547  1.00  0.00     0.164 C 
HETATM    2  N   UNL     1       8.483  29.601  59.275  1.00  0.00    -0.249 NA
HETATM    3  C   UNL     1       8.274  29.160  58.009  1.00  0.00     0.181 C 
HETATM    4  N   UNL     1       9.048  29.414  57.007  1.00  0.00    -0.185 NA
HETATM    5  C   UNL     1      10.129  30.219  57.275  1.00  0.00     0.247 C 
HETATM    6  O   UNL     1      11.209  30.095  56.708  1.00  0.00    -0.271 OA
HETATM    7  C   UNL     1       9.894  31.331  58.259  1.00  0.00     0.134 C 
HETATM    8  H   UNL     1       7.608  29.808  59.769  1.00  0.00     0.131 HD
ENDROOT
BRANCH   3   9
HETATM    9  N   UNL     1       7.115  28.427  57.876  1.00  0.00    -0.353 N 
HETATM   10  C   UNL     1       7.137  26.955  57.759  1.00  0.00     0.153 C 
HETATM   11  C   UNL     1       7.038  26.536  56.279  1.00  0.00     0.256 C 
HETATM   12  N   UNL     1       5.754  27.116  55.685  1.00  0.00    -0.056 N 
HETATM   13  H   UNL     1       4.980  26.863  56.303  1.00  0.00     0.281 HD
HETATM   14  C   UNL     1       5.825  28.648  55.759  1.00  0.00     0.256 C 
HETATM   15  C   UNL     1       5.941  29.064  57.240  1.00  0.00     0.153 C 
BRANCH  12  16
HETATM   16  C   UNL     1       5.349  26.566  54.322  1.00  0.00     0.254 C 
BRANCH  16  17
HETATM   17  C   UNL     1       4.944  27.662  53.341  1.00  0.00    -0.023 A 
HETATM   18  C   UNL     1       3.606  28.065  53.186  1.00  0.00     0.009 A 
HETATM   19  C   UNL     1       3.264  29.068  52.278  1.00  0.00     0.001 A 
HETATM   20  C   UNL     1       4.251  29.685  51.514  1.00  0.00     0.000 A 
HETATM   21  C   UNL     1       5.582  29.303  51.656  1.00  0.00     0.001 A 
HETATM   22  C   UNL     1       5.929  28.301  52.563  1.00  0.00     0.009 A 
ENDBRANCH  16  17
BRANCH  16  23
HETATM   23  C   UNL     1       6.308  25.507  53.745  1.00  0.00    -0.023 A 
HETATM   24  C   UNL     1       6.317  24.157  54.147  1.00  0.00     0.009 A 
HETATM   25  C   UNL     1       7.191  23.232  53.565  1.00  0.00     0.001 A 
HETATM   26  C   UNL     1       8.062  23.628  52.557  1.00  0.00     0.000 A 
HETATM   27  C   UNL     1       8.053  24.946  52.118  1.00  0.00     0.001 A 
HETATM   28  C   UNL     1       7.180  25.872  52.697  1.00  0.00     0.009 A 
ENDBRANCH  16  23
ENDBRANCH  12  16
ENDBRANCH   3   9
BRANCH   1  29
HETATM   29  C   UNL     1       8.738  31.686  60.481  1.00  0.00     0.240 C 
HETATM   30  N   UNL     1       8.236  31.154  61.653  1.00  0.00    -0.326 N 
HETATM   31  H   UNL     1       8.403  30.173  61.844  1.00  0.00     0.169 HD
HETATM   32  O   UNL     1       8.640  32.860  60.114  1.00  0.00    -0.271 OA
BRANCH  30  33
HETATM   33  C   UNL     1       7.476  31.840  62.631  1.00  0.00     0.034 A 
HETATM   34  C   UNL     1       8.034  32.646  63.628  1.00  0.00     0.030 A 
HETATM   35  C   UNL     1       7.217  33.314  64.546  1.00  0.00     0.020 A 
HETATM   36  C   UNL     1       5.826  33.188  64.489  1.00  0.00     0.039 A 
HETATM   37  C   UNL     1       5.262  32.377  63.499  1.00  0.00     0.020 A 
HETATM   38  C   UNL     1       6.082  31.711  62.577  1.00  0.00     0.030 A 
BRANCH  36  39
HETATM   39  C   UNL     1       5.017  33.940  65.486  1.00  0.00     0.293 C 
HETATM   40  O   UNL     1       3.797  33.946  65.488  1.00  0.00    -0.259 OA
BRANCH  39  41
HETATM   41  O   UNL     1       5.822  34.593  66.361  1.00  0.00    -0.318 OA
BRANCH  41  42
HETATM   42  C   UNL     1       5.542  34.357  67.750  1.00  0.00     0.174 C 
HETATM   43  C   UNL     1       6.733  34.747  68.602  1.00  0.00     0.034 C 
ENDBRANCH  41  42
ENDBRANCH  39  41
ENDBRANCH  36  39
ENDBRANCH  30  33
ENDBRANCH   1  29
TORSDOF 9
ENDMDL
MODEL 4
REMARK VINA RESULT:     -10.7      1.784      3.743
REMARK  9 active torsions:
REMARK  status: ('A' for Active; 'I' for Inactive)
REMARK    1  A    between atoms: C_2  and  O_3 
REMARK    2  A    between atoms: O_3  and  C_4 
REMARK    3  A    between atoms: C_4  and  C_5 
REMARK    4  A    between atoms: C_8  and  N_9 
REMARK       I    between atoms: N_9  and  C_10 
REMARK    5  A    between atoms: C_10  and  C_11 
REMARK    6  A    between atoms: C_13  and  N_14 
REMARK    7  A    between atoms: N_17  and  C_19 
REMARK    8  A    between atoms: C_19  and  C_20 
REMARK    9  A    between atoms: C_19  and  C_26 
ROOT
HETATM    1  C   UNL     1       9.181  30.330  59.106  1.00  0.00     0.164 C 
HETATM    2  N   UNL     1       8.400  29.087  58.978  1.00  0.00    -0.249 NA
HETATM    3  C   UNL     1       8.248  28.485  57.771  1.00  0.00     0.181 C 
HETATM    4  N   UNL     1       8.957  28.750  56.725  1.00  0.00    -0.185 NA
HETATM    5  C   UNL     1       9.897  29.741  56.874  1.00  0.00     0.247 C 
HETATM    6  O   UNL     1      10.974  29.730  56.290  1.00  0.00    -0.271 OA
HETATM    7  C   UNL     1       9.498  30.900  57.744  1.00  0.00     0.134 C 
HETATM    8  H   UNL     1       7.510  29.204  59.475  1.00  0.00     0.131 HD
ENDROOT
BRANCH   3   9
HETATM    9  N   UNL     1       7.221  27.566  57.752  1.00  0.00    -0.353 N 
HETATM   10  C   UNL     1       7.456  26.134  58.030  1.00  0.00     0.153 C 
HETATM   11  C   UNL     1       7.582  25.349  56.709  1.00  0.00     0.256 C 
HETATM   12  N   UNL     1       6.306  25.549  55.890  1.00  0.00    -0.056 N 
HETATM   13  H   UNL     1       5.509  25.338  56.494  1.00  0.00     0.281 HD
HETATM   14  C   UNL     1       6.160  27.042  55.562  1.00  0.00     0.256 C 
HETATM   15  C   UNL     1       6.051  27.827  56.886  1.00  0.00     0.153 C 
BRANCH  12  16
HETATM   16  C   UNL     1       6.136  24.618  54.695  1.00  0.00     0.254 C 
BRANCH  16  17
HETATM   17  C   UNL     1       5.947  25.373  53.383  1.00  0.00    -0.023 A 
HETATM   18  C   UNL     1       6.692  26.526  53.074  1.00  0.00     0.009 A 
HETATM   19  C   UNL     1       6.496  27.199  51.868  1.00  0.00     0.001 A 
HETATM   20  C   UNL     1       5.558  26.733  50.952  1.00  0.00     0.000 A 
HETATM   21  C   UNL     1       4.814  25.591  51.237  1.00  0.00     0.001 A 
HETATM   22  C   UNL     1       5.006  24.915  52.442  1.00  0.00     0.009 A 
ENDBRANCH  16  17
BRANCH  16  23
HETATM   23  C   UNL     1       7.150  23.460  54.631  1.00  0.00    -0.023 A 
HETATM   24  C   UNL     1       8.072  23.284  53.580  1.00  0.00     0.009 A 
HETATM   25  C   UNL     1       8.992  22.230  53.589  1.00  0.00     0.001 A 
HETATM   26  C   UNL     1       9.027  21.340  54.656  1.00  0.00     0.000 A 
HETATM   27  C   UNL     1       8.151  21.507  55.722  1.00  0.00     0.001 A 
HETATM   28  C   UNL     1       7.232  22.560  55.715  1.00  0.00     0.009 A 
ENDBRANCH  16  23
ENDBRANCH  12  16
ENDBRANCH   3   9
BRANCH   1  29
HETATM   29  C   UNL     1       8.330  31.304  59.952  1.00  0.00     0.240 C 
HETATM   30  N   UNL     1       8.223  30.988  61.292  1.00  0.00    -0.326 N 
HETATM   31  H   UNL     1       8.736  30.185  61.637  1.00  0.00     0.169 HD
HETATM   32  O   UNL     1       7.790  32.257  59.383  1.00  0.00    -0.271 OA
BRANCH  30  33
HETATM   33  C   UNL     1       7.440  31.666  62.256  1.00  0.00     0.034 A 
HETATM   34  C   UNL     1       6.045  31.598  62.315  1.00  0.00     0.030 A 
HETATM   35  C   UNL     1       5.338  32.276  63.314  1.00  0.00     0.020 A 
HETATM   36  C   UNL     1       6.011  33.039  64.272  1.00  0.00     0.039 A 
HETATM   37  C   UNL     1       7.407  33.118  64.214  1.00  0.00     0.020 A 
HETATM   38  C   UNL     1       8.113  32.435  63.214  1.00  0.00     0.030 A 
BRANCH  36  39
HETATM   39  C   UNL     1       5.199  33.721  65.316  1.00  0.00     0.293 C 
HETATM   40  O   UNL     1       3.979  33.737  65.307  1.00  0.00    -0.259 OA
BRANCH  39  41
HETATM   41  O   UNL     1       6.000  34.300  66.244  1.00  0.00    -0.318 OA
BRANCH  41  42
HETATM   42  C   UNL     1       5.492  34.292  67.588  1.00  0.00     0.174 C 
HETATM   43  C   UNL     1       6.530  34.840  68.547  1.00  0.00     0.034 C 
ENDBRANCH  41  42
ENDBRANCH  39  41
ENDBRANCH  36  39
ENDBRANCH  30  33
ENDBRANCH   1  29
TORSDOF 9
ENDMDL
MODEL 5
REMARK VINA RESULT:     -10.6      3.470     12.354
REMARK  9 active torsions:
REMARK  status: ('A' for Active; 'I' for Inactive)
REMARK    1  A    between atoms: C_2  and  O_3 
REMARK    2  A    between atoms: O_3  and  C_4 
REMARK    3  A    between atoms: C_4  and  C_5 
REMARK    4  A    between atoms: C_8  and  N_9 
REMARK       I    between atoms: N_9  and  C_10 
REMARK    5  A    between atoms: C_10  and  C_11 
REMARK    6  A    between atoms: C_13  and  N_14 
REMARK    7  A    between atoms: N_17  and  C_19 
REMARK    8  A    between atoms: C_19  and  C_20 
REMARK    9  A    between atoms: C_19  and  C_26 
ROOT
HETATM    1  C   UNL     1       7.792  30.223  57.866  1.00  0.00     0.164 C 
HETATM    2  N   UNL     1       6.988  30.716  58.998  1.00  0.00    -0.249 NA
HETATM    3  C   UNL     1       7.581  31.306  60.066  1.00  0.00     0.181 C 
HETATM    4  N   UNL     1       8.799  31.735  60.083  1.00  0.00    -0.185 NA
HETATM    5  C   UNL     1       9.523  31.529  58.933  1.00  0.00     0.247 C 
HETATM    6  O   UNL     1      10.380  32.310  58.537  1.00  0.00    -0.271 OA
HETATM    7  C   UNL     1       9.262  30.235  58.215  1.00  0.00     0.134 C 
HETATM    8  H   UNL     1       6.322  29.985  59.272  1.00  0.00     0.131 HD
ENDROOT
BRANCH   3   9
HETATM    9  N   UNL     1       6.759  31.380  61.169  1.00  0.00    -0.353 N 
HETATM   10  C   UNL     1       5.476  32.110  61.133  1.00  0.00     0.153 C 
HETATM   11  C   UNL     1       5.650  33.522  61.729  1.00  0.00     0.256 C 
HETATM   12  N   UNL     1       6.171  33.394  63.161  1.00  0.00    -0.056 N 
HETATM   13  H   UNL     1       5.564  32.740  63.659  1.00  0.00     0.281 HD
HETATM   14  C   UNL     1       7.542  32.703  63.127  1.00  0.00     0.256 C 
HETATM   15  C   UNL     1       7.368  31.297  62.515  1.00  0.00     0.153 C 
BRANCH  12  16
HETATM   16  C   UNL     1       6.124  34.668  63.996  1.00  0.00     0.254 C 
BRANCH  16  17
HETATM   17  C   UNL     1       5.270  35.760  63.358  1.00  0.00    -0.023 A 
HETATM   18  C   UNL     1       3.915  35.555  63.042  1.00  0.00     0.009 A 
HETATM   19  C   UNL     1       3.159  36.570  62.455  1.00  0.00     0.001 A 
HETATM   20  C   UNL     1       3.741  37.804  62.177  1.00  0.00     0.000 A 
HETATM   21  C   UNL     1       5.079  38.028  62.487  1.00  0.00     0.001 A 
HETATM   22  C   UNL     1       5.840  37.016  63.074  1.00  0.00     0.009 A 
ENDBRANCH  16  17
BRANCH  16  23
HETATM   23  C   UNL     1       5.865  34.444  65.499  1.00  0.00    -0.023 A 
HETATM   24  C   UNL     1       6.887  34.359  66.465  1.00  0.00     0.009 A 
HETATM   25  C   UNL     1       6.590  34.184  67.821  1.00  0.00     0.001 A 
HETATM   26  C   UNL     1       5.269  34.110  68.247  1.00  0.00     0.000 A 
HETATM   27  C   UNL     1       4.240  34.222  67.320  1.00  0.00     0.001 A 
HETATM   28  C   UNL     1       4.534  34.398  65.964  1.00  0.00     0.009 A 
ENDBRANCH  16  23
ENDBRANCH  12  16
ENDBRANCH   3   9
BRANCH   1  29
HETATM   29  C   UNL     1       7.289  28.796  57.552  1.00  0.00     0.240 C 
HETATM   30  N   UNL     1       8.256  27.909  57.120  1.00  0.00    -0.326 N 
HETATM   31  H   UNL     1       9.217  28.228  57.084  1.00  0.00     0.169 HD
HETATM   32  O   UNL     1       6.084  28.557  57.673  1.00  0.00    -0.271 OA
BRANCH  30  33
HETATM   33  C   UNL     1       8.044  26.577  56.691  1.00  0.00     0.034 A 
HETATM   34  C   UNL     1       7.343  26.233  55.531  1.00  0.00     0.030 A 
HETATM   35  C   UNL     1       7.194  24.894  55.156  1.00  0.00     0.020 A 
HETATM   36  C   UNL     1       7.741  23.870  55.935  1.00  0.00     0.039 A 
HETATM   37  C   UNL     1       8.437  24.206  57.101  1.00  0.00     0.020 A 
HETATM   38  C   UNL     1       8.587  25.549  57.473  1.00  0.00     0.030 A 
BRANCH  36  39
HETATM   39  C   UNL     1       7.560  22.468  55.469  1.00  0.00     0.293 C 
HETATM   40  O   UNL     1       7.520  21.513  56.226  1.00  0.00    -0.259 OA
BRANCH  39  41
HETATM   41  O   UNL     1       7.449  22.424  54.118  1.00  0.00    -0.318 OA
BRANCH  41  42
HETATM   42  C   UNL     1       8.593  21.901  53.424  1.00  0.00     0.174 C 
HETATM   43  C   UNL     1       8.265  20.555  52.807  1.00  0.00     0.034 C 
ENDBRANCH  41  42
ENDBRANCH  39  41
ENDBRANCH  36  39
ENDBRANCH  30  33
ENDBRANCH   1  29
TORSDOF 9
ENDMDL
MODEL 6
REMARK VINA RESULT:     -10.4      2.341      3.470
REMARK  9 active torsions:
REMARK  status: ('A' for Active; 'I' for Inactive)
REMARK    1  A    between atoms: C_2  and  O_3 
REMARK    2  A    between atoms: O_3  and  C_4 
REMARK    3  A    between atoms: C_4  and  C_5 
REMARK    4  A    between atoms: C_8  and  N_9 
REMARK       I    between atoms: N_9  and  C_10 
REMARK    5  A    between atoms: C_10  and  C_11 
REMARK    6  A    between atoms: C_13  and  N_14 
REMARK    7  A    between atoms: N_17  and  C_19 
REMARK    8  A    between atoms: C_19  and  C_20 
REMARK    9  A    between atoms: C_19  and  C_26 
ROOT
HETATM    1  C   UNL     1       5.831  31.538  58.031  1.00  0.00     0.164 C 
HETATM    2  N   UNL     1       6.448  30.242  57.702  1.00  0.00    -0.249 NA
HETATM    3  C   UNL     1       5.691  29.204  57.263  1.00  0.00     0.181 C 
HETATM    4  N   UNL     1       4.477  29.313  56.837  1.00  0.00    -0.185 NA
HETATM    5  C   UNL     1       3.937  30.575  56.880  1.00  0.00     0.247 C 
HETATM    6  O   UNL     1       3.135  30.985  56.049  1.00  0.00    -0.271 OA
HETATM    7  C   UNL     1       4.326  31.416  58.064  1.00  0.00     0.134 C 
HETATM    8  H   UNL     1       7.079  29.973  58.465  1.00  0.00     0.131 HD
ENDROOT
BRANCH   3   9
HETATM    9  N   UNL     1       6.338  27.991  57.345  1.00  0.00    -0.353 N 
HETATM   10  C   UNL     1       7.770  27.850  57.010  1.00  0.00     0.153 C 
HETATM   11  C   UNL     1       7.931  27.330  55.567  1.00  0.00     0.256 C 
HETATM   12  N   UNL     1       7.202  25.992  55.439  1.00  0.00    -0.056 N 
HETATM   13  H   UNL     1       7.518  25.388  56.200  1.00  0.00     0.281 HD
HETATM   14  C   UNL     1       5.708  26.216  55.717  1.00  0.00     0.256 C 
HETATM   15  C   UNL     1       5.551  26.753  57.155  1.00  0.00     0.153 C 
BRANCH  12  16
HETATM   16  C   UNL     1       7.498  25.197  54.173  1.00  0.00     0.254 C 
BRANCH  16  17
HETATM   17  C   UNL     1       7.737  23.716  54.451  1.00  0.00    -0.023 A 
HETATM   18  C   UNL     1       7.461  23.139  55.704  1.00  0.00     0.009 A 
HETATM   19  C   UNL     1       7.692  21.782  55.931  1.00  0.00     0.001 A 
HETATM   20  C   UNL     1       8.200  20.980  54.913  1.00  0.00     0.000 A 
HETATM   21  C   UNL     1       8.476  21.531  53.664  1.00  0.00     0.001 A 
HETATM   22  C   UNL     1       8.246  22.887  53.433  1.00  0.00     0.009 A 
ENDBRANCH  16  17
BRANCH  16  23
HETATM   23  C   UNL     1       6.549  25.486  52.994  1.00  0.00    -0.023 A 
HETATM   24  C   UNL     1       6.703  26.576  52.115  1.00  0.00     0.009 A 
HETATM   25  C   UNL     1       5.826  26.772  51.041  1.00  0.00     0.001 A 
HETATM   26  C   UNL     1       4.790  25.875  50.809  1.00  0.00     0.000 A 
HETATM   27  C   UNL     1       4.633  24.774  51.642  1.00  0.00     0.001 A 
HETATM   28  C   UNL     1       5.508  24.575  52.714  1.00  0.00     0.009 A 
ENDBRANCH  16  23
ENDBRANCH  12  16
ENDBRANCH   3   9
BRANCH   1  29
HETATM   29  C   UNL     1       6.401  31.966  59.403  1.00  0.00     0.240 C 
HETATM   30  N   UNL     1       5.496  31.964  60.447  1.00  0.00    -0.326 N 
HETATM   31  H   UNL     1       4.552  31.645  60.262  1.00  0.00     0.169 HD
HETATM   32  O   UNL     1       7.586  32.303  59.468  1.00  0.00    -0.271 OA
BRANCH  30  33
HETATM   33  C   UNL     1       5.742  32.391  61.774  1.00  0.00     0.034 A 
HETATM   34  C   UNL     1       6.992  32.323  62.396  1.00  0.00     0.030 A 
HETATM   35  C   UNL     1       7.166  32.787  63.704  1.00  0.00     0.020 A 
HETATM   36  C   UNL     1       6.091  33.326  64.418  1.00  0.00     0.039 A 
HETATM   37  C   UNL     1       4.836  33.389  63.805  1.00  0.00     0.020 A 
HETATM   38  C   UNL     1       4.665  32.926  62.493  1.00  0.00     0.030 A 
BRANCH  36  39
HETATM   39  C   UNL     1       6.350  33.816  65.800  1.00  0.00     0.293 C 
HETATM   40  O   UNL     1       7.457  34.143  66.195  1.00  0.00    -0.259 OA
BRANCH  39  41
HETATM   41  O   UNL     1       5.202  33.841  66.521  1.00  0.00    -0.318 OA
BRANCH  41  42
HETATM   42  C   UNL     1       4.976  35.041  67.277  1.00  0.00     0.174 C 
HETATM   43  C   UNL     1       4.268  36.076  66.425  1.00  0.00     0.034 C 
ENDBRANCH  41  42
ENDBRANCH  39  41
ENDBRANCH  36  39
ENDBRANCH  30  33
ENDBRANCH   1  29
TORSDOF 9
ENDMDL
MODEL 7
REMARK VINA RESULT:     -10.3      5.057      9.962
REMARK  9 active torsions:
REMARK  status: ('A' for Active; 'I' for Inactive)
REMARK    1  A    between atoms: C_2  and  O_3 
REMARK    2  A    between atoms: O_3  and  C_4 
REMARK    3  A    between atoms: C_4  and  C_5 
REMARK    4  A    between atoms: C_8  and  N_9 
REMARK       I    between atoms: N_9  and  C_10 
REMARK    5  A    between atoms: C_10  and  C_11 
REMARK    6  A    between atoms: C_13  and  N_14 
REMARK    7  A    between atoms: N_17  and  C_19 
REMARK    8  A    between atoms: C_19  and  C_20 
REMARK    9  A    between atoms: C_19  and  C_26 
ROOT
HETATM    1  C   UNL     1       4.134  30.885  56.444  1.00  0.00     0.164 C 
HETATM    2  N   UNL     1       4.463  29.511  56.861  1.00  0.00    -0.249 NA
HETATM    3  C   UNL     1       5.672  29.221  57.404  1.00  0.00     0.181 C 
HETATM    4  N   UNL     1       6.504  30.101  57.852  1.00  0.00    -0.185 NA
HETATM    5  C   UNL     1       6.117  31.413  57.721  1.00  0.00     0.247 C 
HETATM    6  O   UNL     1       6.411  32.279  58.537  1.00  0.00    -0.271 OA
HETATM    7  C   UNL     1       5.369  31.755  56.462  1.00  0.00     0.134 C 
HETATM    8  H   UNL     1       4.206  28.867  56.105  1.00  0.00     0.131 HD
ENDROOT
BRANCH   3   9
HETATM    9  N   UNL     1       5.955  27.873  57.404  1.00  0.00    -0.353 N 
HETATM   10  C   UNL     1       7.344  27.371  57.417  1.00  0.00     0.153 C 
HETATM   11  C   UNL     1       7.794  27.007  55.988  1.00  0.00     0.256 C 
HETATM   12  N   UNL     1       6.836  25.960  55.419  1.00  0.00    -0.056 N 
HETATM   13  H   UNL     1       6.759  25.202  56.100  1.00  0.00     0.281 HD
HETATM   14  C   UNL     1       5.427  26.566  55.352  1.00  0.00     0.256 C 
HETATM   15  C   UNL     1       4.986  26.944  56.781  1.00  0.00     0.153 C 
BRANCH  12  16
HETATM   16  C   UNL     1       7.293  25.275  54.136  1.00  0.00     0.254 C 
BRANCH  16  17
HETATM   17  C   UNL     1       7.617  23.798  54.341  1.00  0.00    -0.023 A 
HETATM   18  C   UNL     1       7.314  23.129  55.541  1.00  0.00     0.009 A 
HETATM   19  C   UNL     1       7.625  21.779  55.702  1.00  0.00     0.001 A 
HETATM   20  C   UNL     1       8.242  21.075  54.671  1.00  0.00     0.000 A 
HETATM   21  C   UNL     1       8.546  21.719  53.474  1.00  0.00     0.001 A 
HETATM   22  C   UNL     1       8.237  23.069  53.308  1.00  0.00     0.009 A 
ENDBRANCH  16  17
BRANCH  16  23
HETATM   23  C   UNL     1       6.424  25.577  52.900  1.00  0.00    -0.023 A 
HETATM   24  C   UNL     1       6.595  26.711  52.082  1.00  0.00     0.009 A 
HETATM   25  C   UNL     1       5.795  26.919  50.953  1.00  0.00     0.001 A 
HETATM   26  C   UNL     1       4.820  25.992  50.603  1.00  0.00     0.000 A 
HETATM   27  C   UNL     1       4.650  24.848  51.374  1.00  0.00     0.001 A 
HETATM   28  C   UNL     1       5.449  24.638  52.502  1.00  0.00     0.009 A 
ENDBRANCH  16  23
ENDBRANCH  12  16
ENDBRANCH   3   9
BRANCH   1  29
HETATM   29  C   UNL     1       3.525  30.786  55.026  1.00  0.00     0.240 C 
HETATM   30  N   UNL     1       4.249  30.034  54.122  1.00  0.00    -0.326 N 
HETATM   31  H   UNL     1       5.087  29.568  54.449  1.00  0.00     0.169 HD
HETATM   32  O   UNL     1       2.477  31.395  54.794  1.00  0.00    -0.271 OA
BRANCH  30  33
HETATM   33  C   UNL     1       3.954  29.857  52.749  1.00  0.00     0.034 A 
HETATM   34  C   UNL     1       4.644  30.496  51.715  1.00  0.00     0.030 A 
HETATM   35  C   UNL     1       4.313  30.252  50.377  1.00  0.00     0.020 A 
HETATM   36  C   UNL     1       3.282  29.368  50.047  1.00  0.00     0.039 A 
HETATM   37  C   UNL     1       2.582  28.731  51.077  1.00  0.00     0.020 A 
HETATM   38  C   UNL     1       2.918  28.974  52.417  1.00  0.00     0.030 A 
BRANCH  36  39
HETATM   39  C   UNL     1       2.994  29.142  48.605  1.00  0.00     0.293 C 
HETATM   40  O   UNL     1       3.286  29.943  47.733  1.00  0.00    -0.259 OA
BRANCH  39  41
HETATM   41  O   UNL     1       2.377  27.949  48.421  1.00  0.00    -0.318 OA
BRANCH  41  42
HETATM   42  C   UNL     1       2.757  27.235  47.233  1.00  0.00     0.174 C 
HETATM   43  C   UNL     1       3.006  25.774  47.553  1.00  0.00     0.034 C 
ENDBRANCH  41  42
ENDBRANCH  39  41
ENDBRANCH  36  39
ENDBRANCH  30  33
ENDBRANCH   1  29
TORSDOF 9
ENDMDL
MODEL 8
REMARK VINA RESULT:     -10.3      4.476     10.815
REMARK  9 active torsions:
REMARK  status: ('A' for Active; 'I' for Inactive)
REMARK    1  A    between atoms: C_2  and  O_3 
REMARK    2  A    between atoms: O_3  and  C_4 
REMARK    3  A    between atoms: C_4  and  C_5 
REMARK    4  A    between atoms: C_8  and  N_9 
REMARK       I    between atoms: N_9  and  C_10 
REMARK    5  A    between atoms: C_10  and  C_11 
REMARK    6  A    between atoms: C_13  and  N_14 
REMARK    7  A    between atoms: N_17  and  C_19 
REMARK    8  A    between atoms: C_19  and  C_20 
REMARK    9  A    between atoms: C_19  and  C_26 
ROOT
HETATM    1  C   UNL     1       4.058  28.877  53.824  1.00  0.00     0.164 C 
HETATM    2  N   UNL     1       3.860  29.580  55.104  1.00  0.00    -0.249 NA
HETATM    3  C   UNL     1       3.746  30.931  55.144  1.00  0.00     0.181 C 
HETATM    4  N   UNL     1       3.523  31.678  54.114  1.00  0.00    -0.185 NA
HETATM    5  C   UNL     1       3.436  31.026  52.908  1.00  0.00     0.247 C 
HETATM    6  O   UNL     1       2.696  31.395  52.003  1.00  0.00    -0.271 OA
HETATM    7  C   UNL     1       4.369  29.861  52.722  1.00  0.00     0.134 C 
HETATM    8  H   UNL     1       4.538  29.222  55.785  1.00  0.00     0.131 HD
ENDROOT
BRANCH   3   9
HETATM    9  N   UNL     1       3.928  31.452  56.406  1.00  0.00    -0.353 N 
HETATM   10  C   UNL     1       4.932  32.501  56.677  1.00  0.00     0.153 C 
HETATM   11  C   UNL     1       6.221  31.871  57.240  1.00  0.00     0.256 C 
HETATM   12  N   UNL     1       5.878  31.096  58.513  1.00  0.00    -0.056 N 
HETATM   13  H   UNL     1       5.346  31.718  59.126  1.00  0.00     0.281 HD
HETATM   14  C   UNL     1       4.897  29.970  58.156  1.00  0.00     0.256 C 
HETATM   15  C   UNL     1       3.614  30.603  57.576  1.00  0.00     0.153 C 
BRANCH  12  16
HETATM   16  C   UNL     1       7.068  30.655  59.359  1.00  0.00     0.254 C 
BRANCH  16  17
HETATM   17  C   UNL     1       8.318  30.394  58.525  1.00  0.00    -0.023 A 
HETATM   18  C   UNL     1       9.384  31.311  58.475  1.00  0.00     0.009 A 
HETATM   19  C   UNL     1      10.514  31.050  57.700  1.00  0.00     0.001 A 
HETATM   20  C   UNL     1      10.600  29.870  56.966  1.00  0.00     0.000 A 
HETATM   21  C   UNL     1       9.558  28.947  57.006  1.00  0.00     0.001 A 
HETATM   22  C   UNL     1       8.426  29.205  57.779  1.00  0.00     0.009 A 
ENDBRANCH  16  17
BRANCH  16  23
HETATM   23  C   UNL     1       7.304  31.497  60.627  1.00  0.00    -0.023 A 
HETATM   24  C   UNL     1       6.703  32.752  60.856  1.00  0.00     0.009 A 
HETATM   25  C   UNL     1       6.930  33.460  62.041  1.00  0.00     0.001 A 
HETATM   26  C   UNL     1       7.745  32.925  63.033  1.00  0.00     0.000 A 
HETATM   27  C   UNL     1       8.325  31.676  62.848  1.00  0.00     0.001 A 
HETATM   28  C   UNL     1       8.098  30.966  61.665  1.00  0.00     0.009 A 
ENDBRANCH  16  23
ENDBRANCH  12  16
ENDBRANCH   3   9
BRANCH   1  29
HETATM   29  C   UNL     1       5.214  27.875  54.041  1.00  0.00     0.240 C 
HETATM   30  N   UNL     1       4.830  26.576  54.308  1.00  0.00    -0.326 N 
HETATM   31  H   UNL     1       3.841  26.356  54.297  1.00  0.00     0.169 HD
HETATM   32  O   UNL     1       6.373  28.297  53.996  1.00  0.00    -0.271 OA
BRANCH  30  33
HETATM   33  C   UNL     1       5.686  25.493  54.624  1.00  0.00     0.034 A 
HETATM   34  C   UNL     1       6.317  24.694  53.668  1.00  0.00     0.030 A 
HETATM   35  C   UNL     1       7.172  23.655  54.055  1.00  0.00     0.020 A 
HETATM   36  C   UNL     1       7.409  23.394  55.407  1.00  0.00     0.039 A 
HETATM   37  C   UNL     1       6.774  24.185  56.370  1.00  0.00     0.020 A 
HETATM   38  C   UNL     1       5.921  25.227  55.979  1.00  0.00     0.030 A 
BRANCH  36  39
HETATM   39  C   UNL     1       8.341  22.285  55.749  1.00  0.00     0.293 C 
HETATM   40  O   UNL     1       8.465  21.841  56.878  1.00  0.00    -0.259 OA
BRANCH  39  41
HETATM   41  O   UNL     1       9.005  21.862  54.645  1.00  0.00    -0.318 OA
BRANCH  41  42
HETATM   42  C   UNL     1       8.789  20.487  54.286  1.00  0.00     0.174 C 
HETATM   43  C   UNL     1       8.217  20.392  52.885  1.00  0.00     0.034 C 
ENDBRANCH  41  42
ENDBRANCH  39  41
ENDBRANCH  36  39
ENDBRANCH  30  33
ENDBRANCH   1  29
TORSDOF 9
ENDMDL
MODEL 9
REMARK VINA RESULT:     -10.2      4.548     10.105
REMARK  9 active torsions:
REMARK  status: ('A' for Active; 'I' for Inactive)
REMARK    1  A    between atoms: C_2  and  O_3 
REMARK    2  A    between atoms: O_3  and  C_4 
REMARK    3  A    between atoms: C_4  and  C_5 
REMARK    4  A    between atoms: C_8  and  N_9 
REMARK       I    between atoms: N_9  and  C_10 
REMARK    5  A    between atoms: C_10  and  C_11 
REMARK    6  A    between atoms: C_13  and  N_14 
REMARK    7  A    between atoms: N_17  and  C_19 
REMARK    8  A    between atoms: C_19  and  C_20 
REMARK    9  A    between atoms: C_19  and  C_26 
ROOT
HETATM    1  C   UNL     1       5.271  30.119  57.032  1.00  0.00     0.164 C 
HETATM    2  N   UNL     1       6.001  28.843  57.125  1.00  0.00    -0.249 NA
HETATM    3  C   UNL     1       7.205  28.777  57.747  1.00  0.00     0.181 C 
HETATM    4  N   UNL     1       7.679  29.692  58.525  1.00  0.00    -0.185 NA
HETATM    5  C   UNL     1       6.898  30.811  58.680  1.00  0.00     0.247 C 
HETATM    6  O   UNL     1       6.847  31.448  59.726  1.00  0.00    -0.271 OA
HETATM    7  C   UNL     1       6.155  31.268  57.456  1.00  0.00     0.134 C 
HETATM    8  H   UNL     1       6.011  28.400  56.200  1.00  0.00     0.131 HD
ENDROOT
BRANCH   3   9
HETATM    9  N   UNL     1       7.909  27.632  57.442  1.00  0.00    -0.353 N 
HETATM   10  C   UNL     1       8.526  27.431  56.115  1.00  0.00     0.153 C 
HETATM   11  C   UNL     1       7.609  26.565  55.228  1.00  0.00     0.256 C 
HETATM   12  N   UNL     1       7.361  25.228  55.927  1.00  0.00    -0.056 N 
HETATM   13  H   UNL     1       8.268  24.840  56.195  1.00  0.00     0.281 HD
HETATM   14  C   UNL     1       6.645  25.495  57.259  1.00  0.00     0.256 C 
HETATM   15  C   UNL     1       7.557  26.375  58.139  1.00  0.00     0.153 C 
BRANCH  12  16
HETATM   16  C   UNL     1       6.720  24.143  55.070  1.00  0.00     0.254 C 
BRANCH  16  17
HETATM   17  C   UNL     1       6.333  24.642  53.681  1.00  0.00    -0.023 A 
HETATM   18  C   UNL     1       7.296  24.898  52.688  1.00  0.00     0.009 A 
HETATM   19  C   UNL     1       6.914  25.358  51.427  1.00  0.00     0.001 A 
HETATM   20  C   UNL     1       5.569  25.566  51.137  1.00  0.00     0.000 A 
HETATM   21  C   UNL     1       4.600  25.314  52.105  1.00  0.00     0.001 A 
HETATM   22  C   UNL     1       4.977  24.855  53.367  1.00  0.00     0.009 A 
ENDBRANCH  16  17
BRANCH  16  23
HETATM   23  C   UNL     1       7.458  22.790  55.086  1.00  0.00    -0.023 A 
HETATM   24  C   UNL     1       7.654  21.993  53.941  1.00  0.00     0.009 A 
HETATM   25  C   UNL     1       8.360  20.786  54.009  1.00  0.00     0.001 A 
HETATM   26  C   UNL     1       8.903  20.358  55.215  1.00  0.00     0.000 A 
HETATM   27  C   UNL     1       8.752  21.140  56.353  1.00  0.00     0.001 A 
HETATM   28  C   UNL     1       8.049  22.346  56.288  1.00  0.00     0.009 A 
ENDBRANCH  16  23
ENDBRANCH  12  16
ENDBRANCH   3   9
BRANCH   1  29
HETATM   29  C   UNL     1       4.811  30.262  55.563  1.00  0.00     0.240 C 
HETATM   30  N   UNL     1       4.987  29.141  54.776  1.00  0.00    -0.326 N 
HETATM   31  H   UNL     1       5.352  28.302  55.211  1.00  0.00     0.169 HD
HETATM   32  O   UNL     1       4.359  31.348  55.192  1.00  0.00    -0.271 OA
BRANCH  30  33
HETATM   33  C   UNL     1       4.727  29.038  53.388  1.00  0.00     0.034 A 
HETATM   34  C   UNL     1       5.722  29.053  52.406  1.00  0.00     0.030 A 
HETATM   35  C   UNL     1       5.392  28.921  51.053  1.00  0.00     0.020 A 
HETATM   36  C   UNL     1       4.060  28.776  50.654  1.00  0.00     0.039 A 
HETATM   37  C   UNL     1       3.059  28.769  51.631  1.00  0.00     0.020 A 
HETATM   38  C   UNL     1       3.393  28.897  52.986  1.00  0.00     0.030 A 
BRANCH  36  39
HETATM   39  C   UNL     1       3.782  28.624  49.200  1.00  0.00     0.293 C 
HETATM   40  O   UNL     1       4.137  29.438  48.364  1.00  0.00    -0.259 OA
BRANCH  39  41
HETATM   41  O   UNL     1       3.095  27.480  48.961  1.00  0.00    -0.318 OA
BRANCH  41  42
HETATM   42  C   UNL     1       3.578  26.690  47.862  1.00  0.00     0.174 C 
HETATM   43  C   UNL     1       3.153  25.244  48.026  1.00  0.00     0.034 C 
ENDBRANCH  41  42
ENDBRANCH  39  41
ENDBRANCH  36  39
ENDBRANCH  30  33
ENDBRANCH   1  29
TORSDOF 9
ENDMDL
MODEL 10
REMARK VINA RESULT:     -10.2      5.116      8.711
REMARK  9 active torsions:
REMARK  status: ('A' for Active; 'I' for Inactive)
REMARK    1  A    between atoms: C_2  and  O_3 
REMARK    2  A    between atoms: O_3  and  C_4 
REMARK    3  A    between atoms: C_4  and  C_5 
REMARK    4  A    between atoms: C_8  and  N_9 
REMARK       I    between atoms: N_9  and  C_10 
REMARK    5  A    between atoms: C_10  and  C_11 
REMARK    6  A    between atoms: C_13  and  N_14 
REMARK    7  A    between atoms: N_17  and  C_19 
REMARK    8  A    between atoms: C_19  and  C_20 
REMARK    9  A    between atoms: C_19  and  C_26 
ROOT
HETATM    1  C   UNL     1       7.047  30.089  56.909  1.00  0.00     0.164 C 
HETATM    2  N   UNL     1       6.205  29.951  55.708  1.00  0.00    -0.249 NA
HETATM    3  C   UNL     1       4.994  30.559  55.635  1.00  0.00     0.181 C 
HETATM    4  N   UNL     1       4.596  31.495  56.430  1.00  0.00    -0.185 NA
HETATM    5  C   UNL     1       5.472  31.848  57.428  1.00  0.00     0.247 C 
HETATM    6  O   UNL     1       5.570  32.992  57.855  1.00  0.00    -0.271 OA
HETATM    7  C   UNL     1       6.264  30.723  58.035  1.00  0.00     0.134 C 
HETATM    8  H   UNL     1       6.165  28.960  55.445  1.00  0.00     0.131 HD
ENDROOT
BRANCH   3   9
HETATM    9  N   UNL     1       4.195  30.054  54.633  1.00  0.00    -0.353 N 
HETATM   10  C   UNL     1       3.734  28.650  54.641  1.00  0.00     0.153 C 
HETATM   11  C   UNL     1       4.639  27.787  53.739  1.00  0.00     0.256 C 
HETATM   12  N   UNL     1       4.621  28.364  52.323  1.00  0.00    -0.056 N 
HETATM   13  H   UNL     1       3.645  28.481  52.044  1.00  0.00     0.281 HD
HETATM   14  C   UNL     1       5.187  29.791  52.365  1.00  0.00     0.256 C 
HETATM   15  C   UNL     1       4.290  30.649  53.282  1.00  0.00     0.153 C 
BRANCH  12  16
HETATM   16  C   UNL     1       5.223  27.475  51.240  1.00  0.00     0.254 C 
BRANCH  16  17
HETATM   17  C   UNL     1       5.854  26.206  51.804  1.00  0.00    -0.023 A 
HETATM   18  C   UNL     1       7.245  26.075  51.966  1.00  0.00     0.009 A 
HETATM   19  C   UNL     1       7.795  24.901  52.481  1.00  0.00     0.001 A 
HETATM   20  C   UNL     1       6.968  23.842  52.844  1.00  0.00     0.000 A 
HETATM   21  C   UNL     1       5.588  23.954  52.695  1.00  0.00     0.001 A 
HETATM   22  C   UNL     1       5.033  25.126  52.181  1.00  0.00     0.009 A 
ENDBRANCH  16  17
BRANCH  16  23
HETATM   23  C   UNL     1       4.317  27.253  50.013  1.00  0.00    -0.023 A 
HETATM   24  C   UNL     1       4.522  26.231  49.065  1.00  0.00     0.009 A 
HETATM   25  C   UNL     1       3.648  26.057  47.986  1.00  0.00     0.001 A 
HETATM   26  C   UNL     1       2.542  26.886  47.838  1.00  0.00     0.000 A 
HETATM   27  C   UNL     1       2.298  27.883  48.775  1.00  0.00     0.001 A 
HETATM   28  C   UNL     1       3.169  28.057  49.855  1.00  0.00     0.009 A 
ENDBRANCH  16  23
ENDBRANCH  12  16
ENDBRANCH   3   9
BRANCH   1  29
HETATM   29  C   UNL     1       7.531  28.668  57.278  1.00  0.00     0.240 C 
HETATM   30  N   UNL     1       7.369  27.713  56.293  1.00  0.00    -0.326 N 
HETATM   31  H   UNL     1       6.996  28.006  55.398  1.00  0.00     0.169 HD
HETATM   32  O   UNL     1       7.989  28.478  58.408  1.00  0.00    -0.271 OA
BRANCH  30  33
HETATM   33  C   UNL     1       7.651  26.330  56.408  1.00  0.00     0.034 A 
HETATM   34  C   UNL     1       8.904  25.817  56.753  1.00  0.00     0.030 A 
HETATM   35  C   UNL     1       9.104  24.437  56.871  1.00  0.00     0.020 A 
HETATM   36  C   UNL     1       8.054  23.542  56.643  1.00  0.00     0.039 A 
HETATM   37  C   UNL     1       6.799  24.049  56.289  1.00  0.00     0.020 A 
HETATM   38  C   UNL     1       6.601  25.432  56.175  1.00  0.00     0.030 A 
BRANCH  36  39
HETATM   39  C   UNL     1       8.331  22.089  56.803  1.00  0.00     0.293 C 
HETATM   40  O   UNL     1       8.168  21.490  57.853  1.00  0.00    -0.259 OA
BRANCH  39  41
HETATM   41  O   UNL     1       8.776  21.556  55.638  1.00  0.00    -0.318 OA
BRANCH  41  42
HETATM   42  C   UNL     1       7.858  20.671  54.975  1.00  0.00     0.174 C 
HETATM   43  C   UNL     1       8.262  20.481  53.526  1.00  0.00     0.034 C 
ENDBRANCH  41  42
ENDBRANCH  39  41
ENDBRANCH  36  39
ENDBRANCH  30  33
ENDBRANCH   1  29
TORSDOF 9
ENDMDL
