MODEL 1
REMARK VINA RESULT:      -9.7      0.000      0.000
REMARK  3 active torsions:
REMARK  status: ('A' for Active; 'I' for Inactive)
REMARK    1  A    between atoms: O_2  and  C_3 
REMARK    2  A    between atoms: C_9  and  C_10 
REMARK       I    between atoms: C_10  and  N_11 
REMARK    3  A    between atoms: N_11  and  C_12 
ROOT
HETATM    1  C   UNL     1       5.631  34.668  67.614  1.00  0.00     0.068 A 
HETATM    2  C   UNL     1       6.668  34.213  66.798  1.00  0.00     0.044 A 
HETATM    3  C   UNL     1       6.406  33.739  65.506  1.00  0.00    -0.043 A 
HETATM    4  C   UNL     1       5.071  33.687  65.043  1.00  0.00    -0.001 A 
HETATM    5  C   UNL     1       4.877  33.226  63.679  1.00  0.00     0.069 A 
HETATM    6  C   UNL     1       5.897  33.046  62.770  1.00  0.00     0.007 A 
HETATM    7  C   UNL     1       5.270  32.661  61.560  1.00  0.00     0.153 A 
HETATM    8  N   UNL     1       3.927  32.578  61.722  1.00  0.00    -0.168 NA
HETATM    9  N   UNL     1       3.730  32.913  63.017  1.00  0.00    -0.276 N 
HETATM   10  H   UNL     1       2.782  32.914  63.376  1.00  0.00     0.189 HD
HETATM   11  C   UNL     1       7.315  33.324  63.121  1.00  0.00     0.048 C 
HETATM   12  C   UNL     1       7.544  33.201  64.645  1.00  0.00     0.044 C 
HETATM   13  C   UNL     1       4.033  34.119  65.870  1.00  0.00     0.017 A 
HETATM   14  C   UNL     1       4.314  34.609  67.152  1.00  0.00     0.037 A 
ENDROOT
BRANCH   7  15
HETATM   15  C   UNL     1       5.911  32.421  60.250  1.00  0.00     0.277 C 
HETATM   16  N   UNL     1       6.986  31.560  60.361  1.00  0.00    -0.319 N 
HETATM   17  H   UNL     1       7.080  31.174  61.298  1.00  0.00     0.169 HD
HETATM   18  O   UNL     1       5.454  32.899  59.220  1.00  0.00    -0.266 OA
BRANCH  16  19
HETATM   19  C   UNL     1       7.809  31.053  59.338  1.00  0.00     0.074 A 
HETATM   20  C   UNL     1       7.409  30.147  58.347  1.00  0.00     0.144 A 
HETATM   21  F   UNL     1       6.135  29.756  58.218  1.00  0.00    -0.204 F 
HETATM   22  C   UNL     1       8.310  29.668  57.397  1.00  0.00     0.068 A 
HETATM   23  C   UNL     1       9.628  30.106  57.419  1.00  0.00     0.037 A 
HETATM   24 CL   UNL     1      10.748  29.512  56.257  1.00  0.00    -0.084 Cl
HETATM   25  C   UNL     1      10.045  31.031  58.373  1.00  0.00     0.026 A 
HETATM   26  C   UNL     1       9.134  31.511  59.321  1.00  0.00     0.034 A 
ENDBRANCH  16  19
ENDBRANCH   7  15
BRANCH   1  27
HETATM   27  O   UNL     1       6.029  35.129  68.839  1.00  0.00    -0.356 OA
HETATM   28  C   UNL     1       7.414  35.019  69.144  1.00  0.00     0.210 C 
ENDBRANCH   1  27
TORSDOF 3
ENDMDL
MODEL 2
REMARK VINA RESULT:      -9.4      5.855     11.529
REMARK  3 active torsions:
REMARK  status: ('A' for Active; 'I' for Inactive)
REMARK    1  A    between atoms: O_2  and  C_3 
REMARK    2  A    between atoms: C_9  and  C_10 
REMARK       I    between atoms: C_10  and  N_11 
REMARK    3  A    between atoms: N_11  and  C_12 
ROOT
HETATM    1  C   UNL     1       7.938  22.298  53.533  1.00  0.00     0.068 A 
HETATM    2  C   UNL     1       7.862  22.628  54.888  1.00  0.00     0.044 A 
HETATM    3  C   UNL     1       7.683  23.958  55.291  1.00  0.00    -0.043 A 
HETATM    4  C   UNL     1       7.617  24.977  54.312  1.00  0.00    -0.001 A 
HETATM    5  C   UNL     1       7.387  26.326  54.798  1.00  0.00     0.069 A 
HETATM    6  C   UNL     1       7.028  26.633  56.092  1.00  0.00     0.007 A 
HETATM    7  C   UNL     1       6.840  28.036  56.118  1.00  0.00     0.153 A 
HETATM    8  N   UNL     1       7.099  28.575  54.902  1.00  0.00    -0.168 NA
HETATM    9  N   UNL     1       7.439  27.514  54.136  1.00  0.00    -0.276 N 
HETATM   10  H   UNL     1       7.686  27.679  53.167  1.00  0.00     0.189 HD
HETATM   11  C   UNL     1       6.837  25.576  57.122  1.00  0.00     0.048 C 
HETATM   12  C   UNL     1       7.653  24.309  56.774  1.00  0.00     0.044 C 
HETATM   13  C   UNL     1       7.717  24.646  52.959  1.00  0.00     0.017 A 
HETATM   14  C   UNL     1       7.876  23.309  52.573  1.00  0.00     0.037 A 
ENDROOT
BRANCH   7  15
HETATM   15  C   UNL     1       6.374  28.862  57.252  1.00  0.00     0.277 C 
HETATM   16  N   UNL     1       7.369  29.708  57.705  1.00  0.00    -0.319 N 
HETATM   17  H   UNL     1       8.201  29.680  57.121  1.00  0.00     0.169 HD
HETATM   18  O   UNL     1       5.218  28.807  57.646  1.00  0.00    -0.266 OA
BRANCH  16  19
HETATM   19  C   UNL     1       7.294  30.675  58.724  1.00  0.00     0.074 A 
HETATM   20  C   UNL     1       8.222  30.835  59.763  1.00  0.00     0.144 A 
HETATM   21  F   UNL     1       9.357  30.127  59.813  1.00  0.00    -0.204 F 
HETATM   22  C   UNL     1       8.041  31.800  60.753  1.00  0.00     0.068 A 
HETATM   23  C   UNL     1       6.929  32.631  60.708  1.00  0.00     0.037 A 
HETATM   24 CL   UNL     1       6.693  33.815  61.932  1.00  0.00    -0.084 Cl
HETATM   25  C   UNL     1       6.009  32.515  59.669  1.00  0.00     0.026 A 
HETATM   26  C   UNL     1       6.198  31.548  58.675  1.00  0.00     0.034 A 
ENDBRANCH  16  19
ENDBRANCH   7  15
BRANCH   1  27
HETATM   27  O   UNL     1       8.084  20.961  53.280  1.00  0.00    -0.356 OA
HETATM   28  C   UNL     1       8.674  20.177  54.309  1.00  0.00     0.210 C 
ENDBRANCH   1  27
TORSDOF 3
ENDMDL
MODEL 3
REMARK VINA RESULT:      -9.4      5.741      8.542
REMARK  3 active torsions:
REMARK  status: ('A' for Active; 'I' for Inactive)
REMARK    1  A    between atoms: O_2  and  C_3 
REMARK    2  A    between atoms: C_9  and  C_10 
REMARK       I    between atoms: C_10  and  N_11 
REMARK    3  A    between atoms: N_11  and  C_12 
ROOT
HETATM    1  C   UNL     1       8.093  31.925  59.466  1.00  0.00     0.068 A 
HETATM    2  C   UNL     1       8.710  30.764  58.997  1.00  0.00     0.044 A 
HETATM    3  C   UNL     1       7.998  29.836  58.226  1.00  0.00    -0.043 A 
HETATM    4  C   UNL     1       6.628  30.065  57.957  1.00  0.00    -0.001 A 
HETATM    5  C   UNL     1       5.962  29.084  57.116  1.00  0.00     0.069 A 
HETATM    6  C   UNL     1       6.615  28.095  56.415  1.00  0.00     0.007 A 
HETATM    7  C   UNL     1       5.611  27.416  55.683  1.00  0.00     0.153 A 
HETATM    8  N   UNL     1       4.391  27.943  55.943  1.00  0.00    -0.168 NA
HETATM    9  N   UNL     1       4.642  28.938  56.823  1.00  0.00    -0.276 N 
HETATM   10  H   UNL     1       3.860  29.482  57.172  1.00  0.00     0.189 HD
HETATM   11  C   UNL     1       8.095  27.952  56.458  1.00  0.00     0.048 C 
HETATM   12  C   UNL     1       8.672  28.550  57.763  1.00  0.00     0.044 C 
HETATM   13  C   UNL     1       6.006  31.214  58.449  1.00  0.00     0.017 A 
HETATM   14  C   UNL     1       6.740  32.142  59.201  1.00  0.00     0.037 A 
ENDROOT
BRANCH   7  15
HETATM   15  C   UNL     1       5.793  26.317  54.710  1.00  0.00     0.277 C 
HETATM   16  N   UNL     1       6.811  25.464  55.092  1.00  0.00    -0.319 N 
HETATM   17  H   UNL     1       7.181  25.688  56.013  1.00  0.00     0.169 HD
HETATM   18  O   UNL     1       5.053  26.195  53.743  1.00  0.00    -0.266 OA
BRANCH  16  19
HETATM   19  C   UNL     1       7.244  24.284  54.460  1.00  0.00     0.074 A 
HETATM   20  C   UNL     1       7.694  24.188  53.136  1.00  0.00     0.144 A 
HETATM   21  F   UNL     1       7.860  25.270  52.366  1.00  0.00    -0.204 F 
HETATM   22  C   UNL     1       8.065  22.963  52.584  1.00  0.00     0.068 A 
HETATM   23  C   UNL     1       8.004  21.813  53.361  1.00  0.00     0.037 A 
HETATM   24 CL   UNL     1       8.450  20.297  52.683  1.00  0.00    -0.084 Cl
HETATM   25  C   UNL     1       7.592  21.884  54.689  1.00  0.00     0.026 A 
HETATM   26  C   UNL     1       7.224  23.118  55.239  1.00  0.00     0.034 A 
ENDBRANCH  16  19
ENDBRANCH   7  15
BRANCH   1  27
HETATM   27  O   UNL     1       8.912  32.757  60.180  1.00  0.00    -0.356 OA
HETATM   28  C   UNL     1       9.775  32.144  61.130  1.00  0.00     0.210 C 
ENDBRANCH   1  27
TORSDOF 3
ENDMDL
MODEL 4
REMARK VINA RESULT:      -9.3      4.303     10.068
REMARK  3 active torsions:
REMARK  status: ('A' for Active; 'I' for Inactive)
REMARK    1  A    between atoms: O_2  and  C_3 
REMARK    2  A    between atoms: C_9  and  C_10 
REMARK       I    between atoms: C_10  and  N_11 
REMARK    3  A    between atoms: N_11  and  C_12 
ROOT
HETATM    1  C   UNL     1       5.581  26.866  53.760  1.00  0.00     0.068 A 
HETATM    2  C   UNL     1       4.933  27.560  54.784  1.00  0.00     0.044 A 
HETATM    3  C   UNL     1       5.668  28.222  55.776  1.00  0.00    -0.043 A 
HETATM    4  C   UNL     1       7.080  28.152  55.756  1.00  0.00    -0.001 A 
HETATM    5  C   UNL     1       7.779  28.897  56.789  1.00  0.00     0.069 A 
HETATM    6  C   UNL     1       7.177  29.810  57.628  1.00  0.00     0.007 A 
HETATM    7  C   UNL     1       8.217  30.348  58.423  1.00  0.00     0.153 A 
HETATM    8  N   UNL     1       9.404  29.773  58.111  1.00  0.00    -0.168 NA
HETATM    9  N   UNL     1       9.096  28.893  57.131  1.00  0.00    -0.276 N 
HETATM   10  H   UNL     1       9.842  28.331  56.736  1.00  0.00     0.189 HD
HETATM   11  C   UNL     1       5.724  30.118  57.534  1.00  0.00     0.048 C 
HETATM   12  C   UNL     1       4.945  28.934  56.914  1.00  0.00     0.044 C 
HETATM   13  C   UNL     1       7.726  27.436  54.746  1.00  0.00     0.017 A 
HETATM   14  C   UNL     1       6.976  26.797  53.750  1.00  0.00     0.037 A 
ENDROOT
BRANCH   7  15
HETATM   15  C   UNL     1       8.117  31.425  59.431  1.00  0.00     0.277 C 
HETATM   16  N   UNL     1       7.494  30.985  60.583  1.00  0.00    -0.319 N 
HETATM   17  H   UNL     1       7.307  29.985  60.567  1.00  0.00     0.169 HD
HETATM   18  O   UNL     1       8.609  32.528  59.235  1.00  0.00    -0.266 OA
BRANCH  16  19
HETATM   19  C   UNL     1       7.262  31.694  61.776  1.00  0.00     0.074 A 
HETATM   20  C   UNL     1       8.254  32.194  62.630  1.00  0.00     0.144 A 
HETATM   21  F   UNL     1       9.554  32.134  62.316  1.00  0.00    -0.204 F 
HETATM   22  C   UNL     1       7.926  32.851  63.815  1.00  0.00     0.068 A 
HETATM   23  C   UNL     1       6.591  33.029  64.155  1.00  0.00     0.037 A 
HETATM   24 CL   UNL     1       6.178  33.828  65.621  1.00  0.00    -0.084 Cl
HETATM   25  C   UNL     1       5.584  32.571  63.308  1.00  0.00     0.026 A 
HETATM   26  C   UNL     1       5.920  31.916  62.118  1.00  0.00     0.034 A 
ENDBRANCH  16  19
ENDBRANCH   7  15
BRANCH   1  27
HETATM   27  O   UNL     1       4.745  26.291  52.843  1.00  0.00    -0.356 OA
HETATM   28  C   UNL     1       5.291  26.027  51.557  1.00  0.00     0.210 C 
ENDBRANCH   1  27
TORSDOF 3
ENDMDL
MODEL 5
REMARK VINA RESULT:      -9.3      2.901      4.444
REMARK  3 active torsions:
REMARK  status: ('A' for Active; 'I' for Inactive)
REMARK    1  A    between atoms: O_2  and  C_3 
REMARK    2  A    between atoms: C_9  and  C_10 
REMARK       I    between atoms: C_10  and  N_11 
REMARK    3  A    between atoms: N_11  and  C_12 
ROOT
HETATM    1  C   UNL     1       6.004  34.191  64.510  1.00  0.00     0.068 A 
HETATM    2  C   UNL     1       5.590  34.131  63.178  1.00  0.00     0.044 A 
HETATM    3  C   UNL     1       6.282  33.345  62.248  1.00  0.00    -0.043 A 
HETATM    4  C   UNL     1       7.435  32.636  62.660  1.00  0.00    -0.001 A 
HETATM    5  C   UNL     1       8.077  31.807  61.655  1.00  0.00     0.069 A 
HETATM    6  C   UNL     1       7.527  31.512  60.426  1.00  0.00     0.007 A 
HETATM    7  C   UNL     1       8.440  30.631  59.797  1.00  0.00     0.153 A 
HETATM    8  N   UNL     1       9.519  30.415  60.588  1.00  0.00    -0.168 NA
HETATM    9  N   UNL     1       9.270  31.152  61.694  1.00  0.00    -0.276 N 
HETATM   10  H   UNL     1       9.957  31.151  62.439  1.00  0.00     0.189 HD
HETATM   11  C   UNL     1       6.191  32.028  60.024  1.00  0.00     0.048 C 
HETATM   12  C   UNL     1       5.846  33.329  60.787  1.00  0.00     0.044 C 
HETATM   13  C   UNL     1       7.862  32.718  63.987  1.00  0.00     0.017 A 
HETATM   14  C   UNL     1       7.146  33.493  64.908  1.00  0.00     0.037 A 
ENDROOT
BRANCH   7  15
HETATM   15  C   UNL     1       8.286  29.956  58.491  1.00  0.00     0.277 C 
HETATM   16  N   UNL     1       7.399  28.900  58.567  1.00  0.00    -0.319 N 
HETATM   17  H   UNL     1       6.942  28.840  59.474  1.00  0.00     0.169 HD
HETATM   18  O   UNL     1       8.849  30.375  57.488  1.00  0.00    -0.266 OA
BRANCH  16  19
HETATM   19  C   UNL     1       6.954  28.057  57.533  1.00  0.00     0.074 A 
HETATM   20  C   UNL     1       7.733  27.094  56.877  1.00  0.00     0.144 A 
HETATM   21  F   UNL     1       8.981  26.808  57.268  1.00  0.00    -0.204 F 
HETATM   22  C   UNL     1       7.214  26.331  55.831  1.00  0.00     0.068 A 
HETATM   23  C   UNL     1       5.895  26.514  55.437  1.00  0.00     0.037 A 
HETATM   24 CL   UNL     1       5.251  25.585  54.141  1.00  0.00    -0.084 Cl
HETATM   25  C   UNL     1       5.089  27.441  56.093  1.00  0.00     0.026 A 
HETATM   26  C   UNL     1       5.614  28.201  57.144  1.00  0.00     0.034 A 
ENDBRANCH  16  19
ENDBRANCH   7  15
BRANCH   1  27
HETATM   27  O   UNL     1       5.222  34.973  65.315  1.00  0.00    -0.356 OA
HETATM   28  C   UNL     1       4.533  34.314  66.370  1.00  0.00     0.210 C 
ENDBRANCH   1  27
TORSDOF 3
ENDMDL
MODEL 6
REMARK VINA RESULT:      -9.2      6.626     11.733
REMARK  3 active torsions:
REMARK  status: ('A' for Active; 'I' for Inactive)
REMARK    1  A    between atoms: O_2  and  C_3 
REMARK    2  A    between atoms: C_9  and  C_10 
REMARK       I    between atoms: C_10  and  N_11 
REMARK    3  A    between atoms: N_11  and  C_12 
ROOT
HETATM    1  C   UNL     1       8.189  21.213  54.775  1.00  0.00     0.068 A 
HETATM    2  C   UNL     1       7.680  22.314  54.084  1.00  0.00     0.044 A 
HETATM    3  C   UNL     1       7.535  23.554  54.721  1.00  0.00    -0.043 A 
HETATM    4  C   UNL     1       7.875  23.675  56.089  1.00  0.00    -0.001 A 
HETATM    5  C   UNL     1       7.741  24.998  56.673  1.00  0.00     0.069 A 
HETATM    6  C   UNL     1       7.516  26.147  55.946  1.00  0.00     0.007 A 
HETATM    7  C   UNL     1       7.522  27.205  56.887  1.00  0.00     0.153 A 
HETATM    8  N   UNL     1       7.713  26.730  58.141  1.00  0.00    -0.168 NA
HETATM    9  N   UNL     1       7.827  25.393  57.973  1.00  0.00    -0.276 N 
HETATM   10  H   UNL     1       7.972  24.814  58.792  1.00  0.00     0.189 HD
HETATM   11  C   UNL     1       7.395  26.123  54.463  1.00  0.00     0.048 C 
HETATM   12  C   UNL     1       6.931  24.733  53.967  1.00  0.00     0.044 C 
HETATM   13  C   UNL     1       8.360  22.566  56.784  1.00  0.00     0.017 A 
HETATM   14  C   UNL     1       8.518  21.339  56.126  1.00  0.00     0.037 A 
ENDROOT
BRANCH   7  15
HETATM   15  C   UNL     1       7.401  28.653  56.614  1.00  0.00     0.277 C 
HETATM   16  N   UNL     1       6.213  29.164  57.101  1.00  0.00    -0.319 N 
HETATM   17  H   UNL     1       5.687  28.479  57.639  1.00  0.00     0.169 HD
HETATM   18  O   UNL     1       8.309  29.279  56.083  1.00  0.00    -0.266 OA
BRANCH  16  19
HETATM   19  C   UNL     1       5.763  30.497  57.083  1.00  0.00     0.074 A 
HETATM   20  C   UNL     1       5.167  31.139  55.989  1.00  0.00     0.144 A 
HETATM   21  F   UNL     1       4.864  30.483  54.862  1.00  0.00    -0.204 F 
HETATM   22  C   UNL     1       4.790  32.480  56.054  1.00  0.00     0.068 A 
HETATM   23  C   UNL     1       4.993  33.195  57.228  1.00  0.00     0.037 A 
HETATM   24 CL   UNL     1       4.540  34.852  57.312  1.00  0.00    -0.084 Cl
HETATM   25  C   UNL     1       5.553  32.572  58.341  1.00  0.00     0.026 A 
HETATM   26  C   UNL     1       5.925  31.224  58.271  1.00  0.00     0.034 A 
ENDBRANCH  16  19
ENDBRANCH   7  15
BRANCH   1  27
HETATM   27  O   UNL     1       8.304  20.074  54.026  1.00  0.00    -0.356 OA
HETATM   28  C   UNL     1       8.450  20.244  52.622  1.00  0.00     0.210 C 
ENDBRANCH   1  27
TORSDOF 3
ENDMDL
MODEL 7
REMARK VINA RESULT:      -9.1      4.192      9.690
REMARK  3 active torsions:
REMARK  status: ('A' for Active; 'I' for Inactive)
REMARK    1  A    between atoms: O_2  and  C_3 
REMARK    2  A    between atoms: C_9  and  C_10 
REMARK       I    between atoms: C_10  and  N_11 
REMARK    3  A    between atoms: N_11  and  C_12 
ROOT
HETATM    1  C   UNL     1       6.132  25.852  54.567  1.00  0.00     0.068 A 
HETATM    2  C   UNL     1       7.181  26.203  55.419  1.00  0.00     0.044 A 
HETATM    3  C   UNL     1       7.194  27.448  56.062  1.00  0.00    -0.043 A 
HETATM    4  C   UNL     1       6.151  28.369  55.812  1.00  0.00    -0.001 A 
HETATM    5  C   UNL     1       6.206  29.622  56.545  1.00  0.00     0.069 A 
HETATM    6  C   UNL     1       7.066  29.870  57.592  1.00  0.00     0.007 A 
HETATM    7  C   UNL     1       6.743  31.168  58.057  1.00  0.00     0.153 A 
HETATM    8  N   UNL     1       5.749  31.709  57.312  1.00  0.00    -0.168 NA
HETATM    9  N   UNL     1       5.461  30.752  56.401  1.00  0.00    -0.276 N 
HETATM   10  H   UNL     1       4.735  30.939  55.719  1.00  0.00     0.189 HD
HETATM   11  C   UNL     1       8.029  28.843  58.073  1.00  0.00     0.048 C 
HETATM   12  C   UNL     1       8.371  27.835  56.950  1.00  0.00     0.044 C 
HETATM   13  C   UNL     1       5.116  28.025  54.940  1.00  0.00     0.017 A 
HETATM   14  C   UNL     1       5.108  26.768  54.321  1.00  0.00     0.037 A 
ENDROOT
BRANCH   7  15
HETATM   15  C   UNL     1       7.321  31.879  59.217  1.00  0.00     0.277 C 
HETATM   16  N   UNL     1       6.509  31.777  60.330  1.00  0.00    -0.319 N 
HETATM   17  H   UNL     1       5.718  31.155  60.180  1.00  0.00     0.169 HD
HETATM   18  O   UNL     1       8.420  32.413  59.153  1.00  0.00    -0.266 OA
BRANCH  16  19
HETATM   19  C   UNL     1       6.740  32.271  61.627  1.00  0.00     0.074 A 
HETATM   20  C   UNL     1       7.778  31.868  62.478  1.00  0.00     0.144 A 
HETATM   21  F   UNL     1       8.739  31.029  62.073  1.00  0.00    -0.204 F 
HETATM   22  C   UNL     1       7.901  32.387  63.767  1.00  0.00     0.068 A 
HETATM   23  C   UNL     1       6.989  33.332  64.217  1.00  0.00     0.037 A 
HETATM   24 CL   UNL     1       7.128  33.968  65.809  1.00  0.00    -0.084 Cl
HETATM   25  C   UNL     1       5.967  33.774  63.381  1.00  0.00     0.026 A 
HETATM   26  C   UNL     1       5.850  33.253  62.087  1.00  0.00     0.034 A 
ENDBRANCH  16  19
ENDBRANCH   7  15
BRANCH   1  27
HETATM   27  O   UNL     1       6.230  24.598  54.030  1.00  0.00    -0.356 OA
HETATM   28  C   UNL     1       7.238  23.749  54.565  1.00  0.00     0.210 C 
ENDBRANCH   1  27
TORSDOF 3
ENDMDL
MODEL 8
REMARK VINA RESULT:      -9.0     11.704     13.412
REMARK  3 active torsions:
REMARK  status: ('A' for Active; 'I' for Inactive)
REMARK    1  A    between atoms: O_2  and  C_3 
REMARK    2  A    between atoms: C_9  and  C_10 
REMARK       I    between atoms: C_10  and  N_11 
REMARK    3  A    between atoms: N_11  and  C_12 
ROOT
HETATM    1  C   UNL     1       8.651  22.256  55.632  1.00  0.00     0.068 A 
HETATM    2  C   UNL     1       8.514  22.529  54.270  1.00  0.00     0.044 A 
HETATM    3  C   UNL     1       7.720  23.596  53.830  1.00  0.00    -0.043 A 
HETATM    4  C   UNL     1       7.021  24.378  54.778  1.00  0.00    -0.001 A 
HETATM    5  C   UNL     1       6.252  25.494  54.255  1.00  0.00     0.069 A 
HETATM    6  C   UNL     1       6.331  25.949  52.958  1.00  0.00     0.007 A 
HETATM    7  C   UNL     1       5.480  27.079  52.893  1.00  0.00     0.153 A 
HETATM    8  N   UNL     1       4.879  27.294  54.088  1.00  0.00    -0.168 NA
HETATM    9  N   UNL     1       5.359  26.309  54.880  1.00  0.00    -0.276 N 
HETATM   10  H   UNL     1       5.038  26.264  55.841  1.00  0.00     0.189 HD
HETATM   11  C   UNL     1       7.242  25.321  51.963  1.00  0.00     0.048 C 
HETATM   12  C   UNL     1       7.542  23.850  52.337  1.00  0.00     0.044 C 
HETATM   13  C   UNL     1       7.139  24.088  56.139  1.00  0.00     0.017 A 
HETATM   14  C   UNL     1       7.954  23.030  56.563  1.00  0.00     0.037 A 
ENDROOT
BRANCH   7  15
HETATM   15  C   UNL     1       5.266  27.981  51.741  1.00  0.00     0.277 C 
HETATM   16  N   UNL     1       4.268  27.513  50.908  1.00  0.00    -0.319 N 
HETATM   17  H   UNL     1       3.799  26.693  51.286  1.00  0.00     0.169 HD
HETATM   18  O   UNL     1       5.881  29.034  51.635  1.00  0.00    -0.266 OA
BRANCH  16  19
HETATM   19  C   UNL     1       3.745  28.114  49.749  1.00  0.00     0.074 A 
HETATM   20  C   UNL     1       4.163  27.853  48.437  1.00  0.00     0.144 A 
HETATM   21  F   UNL     1       5.053  26.893  48.157  1.00  0.00    -0.204 F 
HETATM   22  C   UNL     1       3.611  28.531  47.352  1.00  0.00     0.068 A 
HETATM   23  C   UNL     1       2.615  29.476  47.567  1.00  0.00     0.037 A 
HETATM   24 CL   UNL     1       1.937  30.325  46.234  1.00  0.00    -0.084 Cl
HETATM   25  C   UNL     1       2.157  29.732  48.857  1.00  0.00     0.026 A 
HETATM   26  C   UNL     1       2.713  29.044  49.942  1.00  0.00     0.034 A 
ENDBRANCH  16  19
ENDBRANCH   7  15
BRANCH   1  27
HETATM   27  O   UNL     1       9.477  21.206  55.923  1.00  0.00    -0.356 OA
HETATM   28  C   UNL     1       8.928  19.902  55.781  1.00  0.00     0.210 C 
ENDBRANCH   1  27
TORSDOF 3
ENDMDL
MODEL 9
REMARK VINA RESULT:      -8.9      3.147      4.593
REMARK  3 active torsions:
REMARK  status: ('A' for Active; 'I' for Inactive)
REMARK    1  A    between atoms: O_2  and  C_3 
REMARK    2  A    between atoms: C_9  and  C_10 
REMARK       I    between atoms: C_10  and  N_11 
REMARK    3  A    between atoms: N_11  and  C_12 
ROOT
HETATM    1  C   UNL     1       7.279  33.735  64.043  1.00  0.00     0.068 A 
HETATM    2  C   UNL     1       8.011  32.595  63.706  1.00  0.00     0.044 A 
HETATM    3  C   UNL     1       7.820  31.961  62.471  1.00  0.00    -0.043 A 
HETATM    4  C   UNL     1       6.847  32.463  61.577  1.00  0.00    -0.001 A 
HETATM    5  C   UNL     1       6.732  31.784  60.298  1.00  0.00     0.069 A 
HETATM    6  C   UNL     1       7.630  30.846  59.836  1.00  0.00     0.007 A 
HETATM    7  C   UNL     1       7.186  30.495  58.538  1.00  0.00     0.153 A 
HETATM    8  N   UNL     1       6.049  31.163  58.224  1.00  0.00    -0.168 NA
HETATM    9  N   UNL     1       5.799  31.919  59.317  1.00  0.00    -0.276 N 
HETATM   10  H   UNL     1       4.977  32.512  59.315  1.00  0.00     0.189 HD
HETATM   11  C   UNL     1       8.825  30.450  60.628  1.00  0.00     0.048 C 
HETATM   12  C   UNL     1       8.592  30.689  62.139  1.00  0.00     0.044 C 
HETATM   13  C   UNL     1       6.098  33.589  61.927  1.00  0.00     0.017 A 
HETATM   14  C   UNL     1       6.317  34.223  63.157  1.00  0.00     0.037 A 
ENDROOT
BRANCH   7  15
HETATM   15  C   UNL     1       7.841  29.583  57.577  1.00  0.00     0.277 C 
HETATM   16  N   UNL     1       7.062  28.471  57.320  1.00  0.00    -0.319 N 
HETATM   17  H   UNL     1       6.146  28.529  57.757  1.00  0.00     0.169 HD
HETATM   18  O   UNL     1       8.910  29.869  57.056  1.00  0.00    -0.266 OA
BRANCH  16  19
HETATM   19  C   UNL     1       7.318  27.413  56.429  1.00  0.00     0.074 A 
HETATM   20  C   UNL     1       7.221  27.485  55.032  1.00  0.00     0.144 A 
HETATM   21  F   UNL     1       6.977  28.638  54.399  1.00  0.00    -0.204 F 
HETATM   22  C   UNL     1       7.455  26.368  54.231  1.00  0.00     0.068 A 
HETATM   23  C   UNL     1       7.804  25.160  54.822  1.00  0.00     0.037 A 
HETATM   24 CL   UNL     1       8.083  23.775  53.842  1.00  0.00    -0.084 Cl
HETATM   25  C   UNL     1       7.939  25.069  56.205  1.00  0.00     0.026 A 
HETATM   26  C   UNL     1       7.707  26.195  57.004  1.00  0.00     0.034 A 
ENDBRANCH  16  19
ENDBRANCH   7  15
BRANCH   1  27
HETATM   27  O   UNL     1       7.586  34.269  65.265  1.00  0.00    -0.356 OA
HETATM   28  C   UNL     1       6.675  34.004  66.325  1.00  0.00     0.210 C 
ENDBRANCH   1  27
TORSDOF 3
ENDMDL
MODEL 10
REMARK VINA RESULT:      -8.8      7.257     12.065
REMARK  3 active torsions:
REMARK  status: ('A' for Active; 'I' for Inactive)
REMARK    1  A    between atoms: O_2  and  C_3 
REMARK    2  A    between atoms: C_9  and  C_10 
REMARK       I    between atoms: C_10  and  N_11 
REMARK    3  A    between atoms: N_11  and  C_12 
ROOT
HETATM    1  C   UNL     1       8.006  21.480  54.361  1.00  0.00     0.068 A 
HETATM    2  C   UNL     1       7.623  22.299  55.425  1.00  0.00     0.044 A 
HETATM    3  C   UNL     1       7.215  23.621  55.200  1.00  0.00    -0.043 A 
HETATM    4  C   UNL     1       7.228  24.135  53.882  1.00  0.00    -0.001 A 
HETATM    5  C   UNL     1       6.752  25.498  53.716  1.00  0.00     0.069 A 
HETATM    6  C   UNL     1       6.109  26.219  54.699  1.00  0.00     0.007 A 
HETATM    7  C   UNL     1       5.759  27.455  54.103  1.00  0.00     0.153 A 
HETATM    8  N   UNL     1       6.191  27.506  52.820  1.00  0.00    -0.168 NA
HETATM    9  N   UNL     1       6.798  26.313  52.628  1.00  0.00    -0.276 N 
HETATM   10  H   UNL     1       7.213  26.123  51.722  1.00  0.00     0.189 HD
HETATM   11  C   UNL     1       5.839  25.641  56.043  1.00  0.00     0.048 C 
HETATM   12  C   UNL     1       6.848  24.518  56.376  1.00  0.00     0.044 C 
HETATM   13  C   UNL     1       7.635  23.322  52.823  1.00  0.00     0.017 A 
HETATM   14  C   UNL     1       8.021  21.997  53.064  1.00  0.00     0.037 A 
ENDROOT
BRANCH   7  15
HETATM   15  C   UNL     1       4.983  28.559  54.707  1.00  0.00     0.277 C 
HETATM   16  N   UNL     1       5.810  29.494  55.299  1.00  0.00    -0.319 N 
HETATM   17  H   UNL     1       6.795  29.307  55.128  1.00  0.00     0.169 HD
HETATM   18  O   UNL     1       3.766  28.615  54.599  1.00  0.00    -0.266 OA
BRANCH  16  19
HETATM   19  C   UNL     1       5.453  30.703  55.926  1.00  0.00     0.074 A 
HETATM   20  C   UNL     1       4.801  31.778  55.307  1.00  0.00     0.144 A 
HETATM   21  F   UNL     1       4.346  31.701  54.050  1.00  0.00    -0.204 F 
HETATM   22  C   UNL     1       4.525  32.955  56.002  1.00  0.00     0.068 A 
HETATM   23  C   UNL     1       4.889  33.065  57.338  1.00  0.00     0.037 A 
HETATM   24 CL   UNL     1       4.562  34.517  58.198  1.00  0.00    -0.084 Cl
HETATM   25  C   UNL     1       5.509  32.000  57.986  1.00  0.00     0.026 A 
HETATM   26  C   UNL     1       5.780  30.819  57.284  1.00  0.00     0.034 A 
ENDBRANCH  16  19
ENDBRANCH   7  15
BRANCH   1  27
HETATM   27  O   UNL     1       8.353  20.206  54.720  1.00  0.00    -0.356 OA
HETATM   28  C   UNL     1       9.121  20.063  55.908  1.00  0.00     0.210 C 
ENDBRANCH   1  27
TORSDOF 3
ENDMDL
