MODEL 1
REMARK VINA RESULT:     -10.6      0.000      0.000
REMARK  7 active torsions:
REMARK  status: ('A' for Active; 'I' for Inactive)
REMARK    1  A    between atoms: C_2  and  C_3 
REMARK    2  A    between atoms: C_7  and  N_8 
REMARK    3  A    between atoms: C_10  and  C_11 
REMARK    4  A    between atoms: C_17  and  N_18 
REMARK       I    between atoms: N_18  and  C_19 
REMARK    5  A    between atoms: C_19  and  C_20 
REMARK    6  A    between atoms: C_20  and  O_21 
REMARK    7  A    between atoms: O_21  and  C_22 
ROOT
HETATM    1  N   UNL     1       5.840  25.601  52.979  1.00  0.00    -0.044 N 
HETATM    2  N   UNL     1       5.951  25.617  51.616  1.00  0.00    -0.148 NA
HETATM    3  C   UNL     1       5.180  26.639  51.231  1.00  0.00     0.115 A 
HETATM    4  C   UNL     1       4.583  27.297  52.324  1.00  0.00     0.087 A 
HETATM    5  C   UNL     1       4.966  26.583  53.435  1.00  0.00     0.152 A 
ENDROOT
BRANCH   5   6
HETATM    6  N   UNL     1       4.608  26.963  54.719  1.00  0.00    -0.309 N 
HETATM    7  C   UNL     1       5.120  28.087  55.449  1.00  0.00     0.247 C 
HETATM    8  O   UNL     1       4.425  28.451  56.388  1.00  0.00    -0.271 OA
HETATM    9  H   UNL     1       3.956  26.388  55.239  1.00  0.00     0.170 HD
BRANCH   7  10
HETATM   10  C   UNL     1       6.518  28.609  55.176  1.00  0.00     0.278 C 
BRANCH  10  11
HETATM   11  O   UNL     1       7.376  28.048  56.167  1.00  0.00    -0.342 OA
BRANCH  11  12
HETATM   12  C   UNL     1       8.079  28.930  56.941  1.00  0.00     0.070 A 
HETATM   13  C   UNL     1       7.303  29.675  57.833  1.00  0.00     0.049 A 
HETATM   14  C   UNL     1       7.888  30.622  58.693  1.00  0.00    -0.023 A 
HETATM   15  C   UNL     1       9.286  30.816  58.653  1.00  0.00    -0.026 A 
HETATM   16  C   UNL     1       7.116  31.381  59.588  1.00  0.00     0.012 A 
HETATM   17  C   UNL     1      10.056  30.058  57.759  1.00  0.00     0.015 A 
HETATM   18  C   UNL     1       9.875  31.760  59.510  1.00  0.00     0.012 A 
HETATM   19  C   UNL     1       9.459  29.120  56.909  1.00  0.00     0.037 A 
HETATM   20  C   UNL     1       9.094  32.506  60.394  1.00  0.00     0.001 A 
HETATM   21  C   UNL     1       7.716  32.316  60.432  1.00  0.00     0.001 A 
ENDBRANCH  11  12
ENDBRANCH  10  11
ENDBRANCH   7  10
ENDBRANCH   5   6
BRANCH   1  22
HETATM   22  C   UNL     1       6.652  24.714  53.709  1.00  0.00     0.732 A 
HETATM   23  N   UNL     1       6.872  23.554  53.028  1.00  0.00    -0.152 N 
HETATM   24  C   UNL     1       7.681  22.581  53.518  1.00  0.00     0.268 A 
HETATM   25  H   UNL     1       6.495  23.437  52.092  1.00  0.00     0.188 HD
HETATM   26  C   UNL     1       8.200  22.819  54.895  1.00  0.00     0.035 A 
HETATM   27  O   UNL     1       7.959  21.584  52.866  1.00  0.00    -0.267 OA
HETATM   28  C   UNL     1       7.887  23.995  55.483  1.00  0.00     0.061 A 
HETATM   29  N   UNL     1       7.127  24.980  54.881  1.00  0.00    -0.067 NA
HETATM   30  C   UNL     1       8.346  24.367  56.871  1.00  0.00     0.072 C 
BRANCH  26  31
HETATM   31  C   UNL     1       8.987  21.684  55.500  1.00  0.00     0.042 C 
HETATM   32  C   UNL     1       8.094  20.686  56.221  1.00  0.00     0.010 C 
ENDBRANCH  26  31
ENDBRANCH   1  22
BRANCH   3  33
HETATM   33  C   UNL     1       4.992  27.015  49.801  1.00  0.00     0.105 A 
HETATM   34  O   UNL     1       5.524  28.136  49.225  1.00  0.00    -0.320 OA
HETATM   35  C   UNL     1       5.119  28.154  47.930  1.00  0.00     0.142 A 
HETATM   36  C   UNL     1       4.347  27.052  47.651  1.00  0.00     0.027 A 
HETATM   37  C   UNL     1       4.262  26.318  48.858  1.00  0.00     0.041 A 
ENDBRANCH   3  33
TORSDOF 7
ENDMDL
MODEL 2
REMARK VINA RESULT:     -10.6      2.408      6.738
REMARK  7 active torsions:
REMARK  status: ('A' for Active; 'I' for Inactive)
REMARK    1  A    between atoms: C_2  and  C_3 
REMARK    2  A    between atoms: C_7  and  N_8 
REMARK    3  A    between atoms: C_10  and  C_11 
REMARK    4  A    between atoms: C_17  and  N_18 
REMARK       I    between atoms: N_18  and  C_19 
REMARK    5  A    between atoms: C_19  and  C_20 
REMARK    6  A    between atoms: C_20  and  O_21 
REMARK    7  A    between atoms: O_21  and  C_22 
ROOT
HETATM    1  N   UNL     1       5.702  28.586  52.095  1.00  0.00    -0.044 N 
HETATM    2  N   UNL     1       5.940  29.799  51.512  1.00  0.00    -0.148 NA
HETATM    3  C   UNL     1       5.369  29.706  50.306  1.00  0.00     0.115 A 
HETATM    4  C   UNL     1       4.750  28.458  50.104  1.00  0.00     0.087 A 
HETATM    5  C   UNL     1       5.024  27.727  51.236  1.00  0.00     0.152 A 
ENDROOT
BRANCH   5   6
HETATM    6  N   UNL     1       4.531  26.446  51.428  1.00  0.00    -0.309 N 
HETATM    7  C   UNL     1       5.270  25.310  51.900  1.00  0.00     0.247 C 
HETATM    8  O   UNL     1       4.586  24.395  52.339  1.00  0.00    -0.271 OA
HETATM    9  H   UNL     1       3.569  26.245  51.179  1.00  0.00     0.170 HD
BRANCH   7  10
HETATM   10  C   UNL     1       6.764  25.208  51.653  1.00  0.00     0.278 C 
BRANCH  10  11
HETATM   11  O   UNL     1       7.415  25.584  52.865  1.00  0.00    -0.342 OA
BRANCH  11  12
HETATM   12  C   UNL     1       7.608  24.596  53.791  1.00  0.00     0.070 A 
HETATM   13  C   UNL     1       7.961  23.353  53.257  1.00  0.00     0.049 A 
HETATM   14  C   UNL     1       8.190  22.242  54.088  1.00  0.00    -0.023 A 
HETATM   15  C   UNL     1       8.065  22.391  55.486  1.00  0.00    -0.026 A 
HETATM   16  C   UNL     1       8.539  20.987  53.561  1.00  0.00     0.012 A 
HETATM   17  C   UNL     1       7.716  23.644  56.012  1.00  0.00     0.015 A 
HETATM   18  C   UNL     1       8.293  21.284  56.321  1.00  0.00     0.012 A 
HETATM   19  C   UNL     1       7.490  24.740  55.172  1.00  0.00     0.037 A 
HETATM   20  C   UNL     1       8.639  20.045  55.782  1.00  0.00     0.001 A 
HETATM   21  C   UNL     1       8.762  19.896  54.403  1.00  0.00     0.001 A 
ENDBRANCH  11  12
ENDBRANCH  10  11
ENDBRANCH   7  10
ENDBRANCH   5   6
BRANCH   1  22
HETATM   22  C   UNL     1       6.061  28.407  53.444  1.00  0.00     0.732 A 
HETATM   23  N   UNL     1       7.384  28.664  53.652  1.00  0.00    -0.152 N 
HETATM   24  C   UNL     1       7.933  28.615  54.893  1.00  0.00     0.268 A 
HETATM   25  H   UNL     1       7.965  28.984  52.883  1.00  0.00     0.188 HD
HETATM   26  C   UNL     1       7.024  28.140  55.974  1.00  0.00     0.035 A 
HETATM   27  O   UNL     1       9.094  28.942  55.097  1.00  0.00    -0.267 OA
HETATM   28  C   UNL     1       5.740  27.884  55.638  1.00  0.00     0.061 A 
HETATM   29  N   UNL     1       5.229  28.044  54.363  1.00  0.00    -0.067 NA
HETATM   30  C   UNL     1       4.712  27.399  56.630  1.00  0.00     0.072 C 
BRANCH  26  31
HETATM   31  C   UNL     1       7.661  27.953  57.327  1.00  0.00     0.042 C 
HETATM   32  C   UNL     1       7.623  29.224  58.160  1.00  0.00     0.010 C 
ENDBRANCH  26  31
ENDBRANCH   1  22
BRANCH   3  33
HETATM   33  C   UNL     1       5.401  30.814  49.310  1.00  0.00     0.105 A 
HETATM   34  O   UNL     1       4.695  30.814  48.138  1.00  0.00    -0.320 OA
HETATM   35  C   UNL     1       4.996  31.967  47.487  1.00  0.00     0.142 A 
HETATM   36  C   UNL     1       5.871  32.725  48.227  1.00  0.00     0.027 A 
HETATM   37  C   UNL     1       6.136  31.981  49.402  1.00  0.00     0.041 A 
ENDBRANCH   3  33
TORSDOF 7
ENDMDL
MODEL 3
REMARK VINA RESULT:     -10.3      2.824      7.767
REMARK  7 active torsions:
REMARK  status: ('A' for Active; 'I' for Inactive)
REMARK    1  A    between atoms: C_2  and  C_3 
REMARK    2  A    between atoms: C_7  and  N_8 
REMARK    3  A    between atoms: C_10  and  C_11 
REMARK    4  A    between atoms: C_17  and  N_18 
REMARK       I    between atoms: N_18  and  C_19 
REMARK    5  A    between atoms: C_19  and  C_20 
REMARK    6  A    between atoms: C_20  and  O_21 
REMARK    7  A    between atoms: O_21  and  C_22 
ROOT
HETATM    1  N   UNL     1       4.553  28.960  54.598  1.00  0.00    -0.044 N 
HETATM    2  N   UNL     1       4.677  30.322  54.611  1.00  0.00    -0.148 NA
HETATM    3  C   UNL     1       4.605  30.650  55.905  1.00  0.00     0.115 A 
HETATM    4  C   UNL     1       4.454  29.522  56.734  1.00  0.00     0.087 A 
HETATM    5  C   UNL     1       4.361  28.450  55.878  1.00  0.00     0.152 A 
ENDROOT
BRANCH   5   6
HETATM    6  N   UNL     1       4.251  27.145  56.333  1.00  0.00    -0.309 N 
HETATM    7  C   UNL     1       5.266  26.392  57.013  1.00  0.00     0.247 C 
HETATM    8  O   UNL     1       4.857  25.424  57.640  1.00  0.00    -0.271 OA
HETATM    9  H   UNL     1       3.400  26.628  56.148  1.00  0.00     0.170 HD
BRANCH   7  10
HETATM   10  C   UNL     1       6.734  26.683  56.764  1.00  0.00     0.278 C 
BRANCH  10  11
HETATM   11  O   UNL     1       7.078  26.073  55.522  1.00  0.00    -0.342 OA
BRANCH  11  12
HETATM   12  C   UNL     1       7.522  24.780  55.574  1.00  0.00     0.070 A 
HETATM   13  C   UNL     1       7.447  24.085  54.363  1.00  0.00     0.049 A 
HETATM   14  C   UNL     1       7.867  22.747  54.264  1.00  0.00    -0.023 A 
HETATM   15  C   UNL     1       8.378  22.100  55.410  1.00  0.00    -0.026 A 
HETATM   16  C   UNL     1       7.789  22.038  53.054  1.00  0.00     0.012 A 
HETATM   17  C   UNL     1       8.454  22.808  56.618  1.00  0.00     0.015 A 
HETATM   18  C   UNL     1       8.799  20.763  55.317  1.00  0.00     0.012 A 
HETATM   19  C   UNL     1       8.032  24.139  56.701  1.00  0.00     0.037 A 
HETATM   20  C   UNL     1       8.716  20.072  54.107  1.00  0.00     0.001 A 
HETATM   21  C   UNL     1       8.211  20.710  52.977  1.00  0.00     0.001 A 
ENDBRANCH  11  12
ENDBRANCH  10  11
ENDBRANCH   7  10
ENDBRANCH   5   6
BRANCH   1  22
HETATM   22  C   UNL     1       4.728  28.281  53.378  1.00  0.00     0.732 A 
HETATM   23  N   UNL     1       4.818  29.145  52.328  1.00  0.00    -0.152 N 
HETATM   24  C   UNL     1       5.052  28.710  51.064  1.00  0.00     0.268 A 
HETATM   25  H   UNL     1       4.796  30.148  52.492  1.00  0.00     0.188 HD
HETATM   26  C   UNL     1       5.073  27.230  50.894  1.00  0.00     0.035 A 
HETATM   27  O   UNL     1       5.232  29.488  50.136  1.00  0.00    -0.267 OA
HETATM   28  C   UNL     1       4.940  26.474  52.007  1.00  0.00     0.061 A 
HETATM   29  N   UNL     1       4.794  26.995  53.279  1.00  0.00    -0.067 NA
HETATM   30  C   UNL     1       4.944  24.966  51.981  1.00  0.00     0.072 C 
BRANCH  26  31
HETATM   31  C   UNL     1       5.196  26.738  49.474  1.00  0.00     0.042 C 
HETATM   32  C   UNL     1       3.839  26.527  48.820  1.00  0.00     0.010 C 
ENDBRANCH  26  31
ENDBRANCH   1  22
BRANCH   3  33
HETATM   33  C   UNL     1       4.680  32.059  56.386  1.00  0.00     0.105 A 
HETATM   34  O   UNL     1       4.644  33.154  55.567  1.00  0.00    -0.320 OA
HETATM   35  C   UNL     1       4.762  34.252  56.356  1.00  0.00     0.142 A 
HETATM   36  C   UNL     1       4.854  33.887  57.678  1.00  0.00     0.027 A 
HETATM   37  C   UNL     1       4.805  32.473  57.699  1.00  0.00     0.041 A 
ENDBRANCH   3  33
TORSDOF 7
ENDMDL
MODEL 4
REMARK VINA RESULT:     -10.3      3.336      9.754
REMARK  7 active torsions:
REMARK  status: ('A' for Active; 'I' for Inactive)
REMARK    1  A    between atoms: C_2  and  C_3 
REMARK    2  A    between atoms: C_7  and  N_8 
REMARK    3  A    between atoms: C_10  and  C_11 
REMARK    4  A    between atoms: C_17  and  N_18 
REMARK       I    between atoms: N_18  and  C_19 
REMARK    5  A    between atoms: C_19  and  C_20 
REMARK    6  A    between atoms: C_20  and  O_21 
REMARK    7  A    between atoms: O_21  and  C_22 
ROOT
HETATM    1  N   UNL     1       6.380  30.483  57.092  1.00  0.00    -0.044 N 
HETATM    2  N   UNL     1       6.468  30.858  58.404  1.00  0.00    -0.148 NA
HETATM    3  C   UNL     1       7.687  30.462  58.782  1.00  0.00     0.115 A 
HETATM    4  C   UNL     1       8.399  29.850  57.732  1.00  0.00     0.087 A 
HETATM    5  C   UNL     1       7.525  29.816  56.671  1.00  0.00     0.152 A 
ENDROOT
BRANCH   5   6
HETATM    6  N   UNL     1       7.890  29.323  55.428  1.00  0.00    -0.309 N 
HETATM    7  C   UNL     1       7.507  28.059  54.866  1.00  0.00     0.247 C 
HETATM    8  O   UNL     1       7.623  27.979  53.650  1.00  0.00    -0.271 OA
HETATM    9  H   UNL     1       8.524  29.863  54.850  1.00  0.00     0.170 HD
BRANCH   7  10
HETATM   10  C   UNL     1       7.197  26.880  55.768  1.00  0.00     0.278 C 
BRANCH  10  11
HETATM   11  O   UNL     1       6.266  26.053  55.072  1.00  0.00    -0.342 OA
BRANCH  11  12
HETATM   12  C   UNL     1       6.756  24.893  54.536  1.00  0.00     0.070 A 
HETATM   13  C   UNL     1       7.051  23.895  55.468  1.00  0.00     0.049 A 
HETATM   14  C   UNL     1       7.563  22.649  55.064  1.00  0.00    -0.023 A 
HETATM   15  C   UNL     1       7.775  22.406  53.690  1.00  0.00    -0.026 A 
HETATM   16  C   UNL     1       7.869  21.642  55.994  1.00  0.00     0.012 A 
HETATM   17  C   UNL     1       7.470  23.412  52.762  1.00  0.00     0.015 A 
HETATM   18  C   UNL     1       8.286  21.162  53.281  1.00  0.00     0.012 A 
HETATM   19  C   UNL     1       6.962  24.647  53.180  1.00  0.00     0.037 A 
HETATM   20  C   UNL     1       8.585  20.172  54.217  1.00  0.00     0.001 A 
HETATM   21  C   UNL     1       8.377  20.412  55.573  1.00  0.00     0.001 A 
ENDBRANCH  11  12
ENDBRANCH  10  11
ENDBRANCH   7  10
ENDBRANCH   5   6
BRANCH   1  22
HETATM   22  C   UNL     1       5.253  30.886  56.352  1.00  0.00     0.732 A 
HETATM   23  N   UNL     1       4.519  31.821  57.019  1.00  0.00    -0.152 N 
HETATM   24  C   UNL     1       3.423  32.397  56.463  1.00  0.00     0.268 A 
HETATM   25  H   UNL     1       4.837  32.168  57.919  1.00  0.00     0.188 HD
HETATM   26  C   UNL     1       3.013  31.843  55.142  1.00  0.00     0.035 A 
HETATM   27  O   UNL     1       2.821  33.308  57.017  1.00  0.00    -0.267 OA
HETATM   28  C   UNL     1       3.804  30.893  54.594  1.00  0.00     0.061 A 
HETATM   29  N   UNL     1       4.961  30.418  55.184  1.00  0.00    -0.067 NA
HETATM   30  C   UNL     1       3.509  30.247  53.263  1.00  0.00     0.072 C 
BRANCH  26  31
HETATM   31  C   UNL     1       1.721  32.380  54.581  1.00  0.00     0.042 C 
HETATM   32  C   UNL     1       1.950  33.531  53.613  1.00  0.00     0.010 C 
ENDBRANCH  26  31
ENDBRANCH   1  22
BRANCH   3  33
HETATM   33  C   UNL     1       8.207  30.658  60.166  1.00  0.00     0.105 A 
HETATM   34  O   UNL     1       9.291  30.000  60.679  1.00  0.00    -0.320 OA
HETATM   35  C   UNL     1       9.444  30.416  61.962  1.00  0.00     0.142 A 
HETATM   36  C   UNL     1       8.487  31.348  62.284  1.00  0.00     0.027 A 
HETATM   37  C   UNL     1       7.686  31.503  61.126  1.00  0.00     0.041 A 
ENDBRANCH   3  33
TORSDOF 7
ENDMDL
MODEL 5
REMARK VINA RESULT:     -10.3      1.298      5.455
REMARK  7 active torsions:
REMARK  status: ('A' for Active; 'I' for Inactive)
REMARK    1  A    between atoms: C_2  and  C_3 
REMARK    2  A    between atoms: C_7  and  N_8 
REMARK    3  A    between atoms: C_10  and  C_11 
REMARK    4  A    between atoms: C_17  and  N_18 
REMARK       I    between atoms: N_18  and  C_19 
REMARK    5  A    between atoms: C_19  and  C_20 
REMARK    6  A    between atoms: C_20  and  O_21 
REMARK    7  A    between atoms: O_21  and  C_22 
ROOT
HETATM    1  N   UNL     1       5.808  25.779  52.544  1.00  0.00    -0.044 N 
HETATM    2  N   UNL     1       6.589  24.670  52.368  1.00  0.00    -0.148 NA
HETATM    3  C   UNL     1       6.656  24.114  53.582  1.00  0.00     0.115 A 
HETATM    4  C   UNL     1       5.918  24.835  54.540  1.00  0.00     0.087 A 
HETATM    5  C   UNL     1       5.429  25.934  53.874  1.00  0.00     0.152 A 
ENDROOT
BRANCH   5   6
HETATM    6  N   UNL     1       4.603  26.864  54.485  1.00  0.00    -0.309 N 
HETATM    7  C   UNL     1       4.900  28.249  54.713  1.00  0.00     0.247 C 
HETATM    8  O   UNL     1       3.925  28.958  54.922  1.00  0.00    -0.271 OA
HETATM    9  H   UNL     1       3.710  26.561  54.857  1.00  0.00     0.170 HD
BRANCH   7  10
HETATM   10  C   UNL     1       6.336  28.707  54.889  1.00  0.00     0.278 C 
BRANCH  10  11
HETATM   11  O   UNL     1       6.804  28.156  56.118  1.00  0.00    -0.342 OA
BRANCH  11  12
HETATM   12  C   UNL     1       7.611  28.954  56.881  1.00  0.00     0.070 A 
HETATM   13  C   UNL     1       6.933  29.809  57.755  1.00  0.00     0.049 A 
HETATM   14  C   UNL     1       7.631  30.689  58.602  1.00  0.00    -0.023 A 
HETATM   15  C   UNL     1       9.042  30.701  58.568  1.00  0.00    -0.026 A 
HETATM   16  C   UNL     1       6.958  31.556  59.478  1.00  0.00     0.012 A 
HETATM   17  C   UNL     1       9.713  29.836  57.692  1.00  0.00     0.015 A 
HETATM   18  C   UNL     1       9.744  31.578  59.412  1.00  0.00     0.012 A 
HETATM   19  C   UNL     1       9.005  28.966  56.855  1.00  0.00     0.037 A 
HETATM   20  C   UNL     1       9.061  32.433  60.278  1.00  0.00     0.001 A 
HETATM   21  C   UNL     1       7.669  32.422  60.311  1.00  0.00     0.001 A 
ENDBRANCH  11  12
ENDBRANCH  10  11
ENDBRANCH   7  10
ENDBRANCH   5   6
BRANCH   1  22
HETATM   22  C   UNL     1       5.427  26.519  51.410  1.00  0.00     0.732 A 
HETATM   23  N   UNL     1       4.742  25.753  50.515  1.00  0.00    -0.152 N 
HETATM   24  C   UNL     1       4.223  26.279  49.376  1.00  0.00     0.268 A 
HETATM   25  H   UNL     1       4.533  24.783  50.732  1.00  0.00     0.188 HD
HETATM   26  C   UNL     1       4.565  27.707  49.120  1.00  0.00     0.035 A 
HETATM   27  O   UNL     1       3.523  25.618  48.620  1.00  0.00    -0.267 OA
HETATM   28  C   UNL     1       5.279  28.354  50.068  1.00  0.00     0.061 A 
HETATM   29  N   UNL     1       5.699  27.772  51.250  1.00  0.00    -0.067 NA
HETATM   30  C   UNL     1       5.695  29.799  49.940  1.00  0.00     0.072 C 
BRANCH  26  31
HETATM   31  C   UNL     1       4.109  28.260  47.794  1.00  0.00     0.042 C 
HETATM   32  C   UNL     1       2.762  28.959  47.897  1.00  0.00     0.010 C 
ENDBRANCH  26  31
ENDBRANCH   1  22
BRANCH   3  33
HETATM   33  C   UNL     1       7.433  22.872  53.860  1.00  0.00     0.105 A 
HETATM   34  O   UNL     1       7.870  22.502  55.102  1.00  0.00    -0.320 OA
HETATM   35  C   UNL     1       8.556  21.340  54.957  1.00  0.00     0.142 A 
HETATM   36  C   UNL     1       8.554  20.940  53.643  1.00  0.00     0.027 A 
HETATM   37  C   UNL     1       7.832  21.929  52.933  1.00  0.00     0.041 A 
ENDBRANCH   3  33
TORSDOF 7
ENDMDL
MODEL 6
REMARK VINA RESULT:     -10.2      3.449      8.545
REMARK  7 active torsions:
REMARK  status: ('A' for Active; 'I' for Inactive)
REMARK    1  A    between atoms: C_2  and  C_3 
REMARK    2  A    between atoms: C_7  and  N_8 
REMARK    3  A    between atoms: C_10  and  C_11 
REMARK    4  A    between atoms: C_17  and  N_18 
REMARK       I    between atoms: N_18  and  C_19 
REMARK    5  A    between atoms: C_19  and  C_20 
REMARK    6  A    between atoms: C_20  and  O_21 
REMARK    7  A    between atoms: O_21  and  C_22 
ROOT
HETATM    1  N   UNL     1       5.894  30.576  57.190  1.00  0.00    -0.044 N 
HETATM    2  N   UNL     1       5.301  31.394  56.268  1.00  0.00    -0.148 NA
HETATM    3  C   UNL     1       4.741  30.555  55.391  1.00  0.00     0.115 A 
HETATM    4  C   UNL     1       4.947  29.205  55.737  1.00  0.00     0.087 A 
HETATM    5  C   UNL     1       5.740  29.233  56.860  1.00  0.00     0.152 A 
ENDROOT
BRANCH   5   6
HETATM    6  N   UNL     1       6.119  28.080  57.528  1.00  0.00    -0.309 N 
HETATM    7  C   UNL     1       7.202  27.207  57.178  1.00  0.00     0.247 C 
HETATM    8  O   UNL     1       7.588  26.476  58.079  1.00  0.00    -0.271 OA
HETATM    9  H   UNL     1       5.571  27.769  58.323  1.00  0.00     0.170 HD
BRANCH   7  10
HETATM   10  C   UNL     1       7.653  27.084  55.734  1.00  0.00     0.278 C 
BRANCH  10  11
HETATM   11  O   UNL     1       6.662  26.320  55.050  1.00  0.00    -0.342 OA
BRANCH  11  12
HETATM   12  C   UNL     1       7.083  25.164  54.452  1.00  0.00     0.070 A 
HETATM   13  C   UNL     1       7.159  24.057  55.302  1.00  0.00     0.049 A 
HETATM   14  C   UNL     1       7.577  22.801  54.828  1.00  0.00    -0.023 A 
HETATM   15  C   UNL     1       7.920  22.659  53.466  1.00  0.00    -0.026 A 
HETATM   16  C   UNL     1       7.664  21.685  55.677  1.00  0.00     0.012 A 
HETATM   17  C   UNL     1       7.834  23.774  52.620  1.00  0.00     0.015 A 
HETATM   18  C   UNL     1       8.338  21.406  52.988  1.00  0.00     0.012 A 
HETATM   19  C   UNL     1       7.417  25.018  53.107  1.00  0.00     0.037 A 
HETATM   20  C   UNL     1       8.418  20.307  53.843  1.00  0.00     0.001 A 
HETATM   21  C   UNL     1       8.081  20.447  55.187  1.00  0.00     0.001 A 
ENDBRANCH  11  12
ENDBRANCH  10  11
ENDBRANCH   7  10
ENDBRANCH   5   6
BRANCH   1  22
HETATM   22  C   UNL     1       6.462  31.159  58.338  1.00  0.00     0.732 A 
HETATM   23  N   UNL     1       5.507  31.644  59.182  1.00  0.00    -0.152 N 
HETATM   24  C   UNL     1       5.828  32.191  60.382  1.00  0.00     0.268 A 
HETATM   25  H   UNL     1       4.524  31.522  58.959  1.00  0.00     0.188 HD
HETATM   26  C   UNL     1       7.287  32.338  60.645  1.00  0.00     0.035 A 
HETATM   27  O   UNL     1       4.970  32.536  61.184  1.00  0.00    -0.267 OA
HETATM   28  C   UNL     1       8.139  31.848  59.717  1.00  0.00     0.061 A 
HETATM   29  N   UNL     1       7.734  31.219  58.554  1.00  0.00    -0.067 NA
HETATM   30  C   UNL     1       9.639  31.927  59.855  1.00  0.00     0.072 C 
BRANCH  26  31
HETATM   31  C   UNL     1       7.651  33.068  61.913  1.00  0.00     0.042 C 
HETATM   32  C   UNL     1       7.976  32.114  63.052  1.00  0.00     0.010 C 
ENDBRANCH  26  31
ENDBRANCH   1  22
BRANCH   3  33
HETATM   33  C   UNL     1       3.990  31.023  54.191  1.00  0.00     0.105 A 
HETATM   34  O   UNL     1       3.197  32.137  54.168  1.00  0.00    -0.320 OA
HETATM   35  C   UNL     1       2.663  32.226  52.923  1.00  0.00     0.142 A 
HETATM   36  C   UNL     1       3.113  31.197  52.131  1.00  0.00     0.027 A 
HETATM   37  C   UNL     1       3.967  30.418  52.949  1.00  0.00     0.041 A 
ENDBRANCH   3  33
TORSDOF 7
ENDMDL
MODEL 7
REMARK VINA RESULT:     -10.1      2.377      8.565
REMARK  7 active torsions:
REMARK  status: ('A' for Active; 'I' for Inactive)
REMARK    1  A    between atoms: C_2  and  C_3 
REMARK    2  A    between atoms: C_7  and  N_8 
REMARK    3  A    between atoms: C_10  and  C_11 
REMARK    4  A    between atoms: C_17  and  N_18 
REMARK       I    between atoms: N_18  and  C_19 
REMARK    5  A    between atoms: C_19  and  C_20 
REMARK    6  A    between atoms: C_20  and  O_21 
REMARK    7  A    between atoms: O_21  and  C_22 
ROOT
HETATM    1  N   UNL     1       4.745  28.792  53.235  1.00  0.00    -0.044 N 
HETATM    2  N   UNL     1       5.288  29.694  54.107  1.00  0.00    -0.148 NA
HETATM    3  C   UNL     1       5.498  28.990  55.225  1.00  0.00     0.115 A 
HETATM    4  C   UNL     1       5.115  27.642  55.086  1.00  0.00     0.087 A 
HETATM    5  C   UNL     1       4.577  27.543  53.825  1.00  0.00     0.152 A 
ENDROOT
BRANCH   5   6
HETATM    6  N   UNL     1       4.128  26.340  53.303  1.00  0.00    -0.309 N 
HETATM    7  C   UNL     1       4.921  25.359  52.619  1.00  0.00     0.247 C 
HETATM    8  O   UNL     1       4.428  24.240  52.570  1.00  0.00    -0.271 OA
HETATM    9  H   UNL     1       3.141  26.118  53.355  1.00  0.00     0.170 HD
BRANCH   7  10
HETATM   10  C   UNL     1       6.159  25.775  51.846  1.00  0.00     0.278 C 
BRANCH  10  11
HETATM   11  O   UNL     1       7.215  25.917  52.794  1.00  0.00    -0.342 OA
BRANCH  11  12
HETATM   12  C   UNL     1       7.476  24.835  53.590  1.00  0.00     0.070 A 
HETATM   13  C   UNL     1       7.781  23.659  52.899  1.00  0.00     0.049 A 
HETATM   14  C   UNL     1       8.070  22.465  53.585  1.00  0.00    -0.023 A 
HETATM   15  C   UNL     1       8.056  22.463  54.997  1.00  0.00    -0.026 A 
HETATM   16  C   UNL     1       8.371  21.277  52.900  1.00  0.00     0.012 A 
HETATM   17  C   UNL     1       7.754  23.650  55.680  1.00  0.00     0.015 A 
HETATM   18  C   UNL     1       8.344  21.273  55.686  1.00  0.00     0.012 A 
HETATM   19  C   UNL     1       7.468  24.829  54.984  1.00  0.00     0.037 A 
HETATM   20  C   UNL     1       8.642  20.101  54.991  1.00  0.00     0.001 A 
HETATM   21  C   UNL     1       8.654  20.102  53.599  1.00  0.00     0.001 A 
ENDBRANCH  11  12
ENDBRANCH  10  11
ENDBRANCH   7  10
ENDBRANCH   5   6
BRANCH   1  22
HETATM   22  C   UNL     1       4.533  29.191  51.902  1.00  0.00     0.732 A 
HETATM   23  N   UNL     1       5.527  30.010  51.456  1.00  0.00    -0.152 N 
HETATM   24  C   UNL     1       5.557  30.463  50.177  1.00  0.00     0.268 A 
HETATM   25  H   UNL     1       6.315  30.226  52.060  1.00  0.00     0.188 HD
HETATM   26  C   UNL     1       4.372  30.108  49.347  1.00  0.00     0.035 A 
HETATM   27  O   UNL     1       6.499  31.116  49.747  1.00  0.00    -0.267 OA
HETATM   28  C   UNL     1       3.434  29.316  49.911  1.00  0.00     0.061 A 
HETATM   29  N   UNL     1       3.516  28.817  51.198  1.00  0.00    -0.067 NA
HETATM   30  C   UNL     1       2.185  28.878  49.186  1.00  0.00     0.072 C 
BRANCH  26  31
HETATM   31  C   UNL     1       4.333  30.721  47.970  1.00  0.00     0.042 C 
HETATM   32  C   UNL     1       3.641  32.075  47.964  1.00  0.00     0.010 C 
ENDBRANCH  26  31
ENDBRANCH   1  22
BRANCH   3  33
HETATM   33  C   UNL     1       6.073  29.592  56.462  1.00  0.00     0.105 A 
HETATM   34  O   UNL     1       5.682  30.793  56.986  1.00  0.00    -0.320 OA
HETATM   35  C   UNL     1       6.441  31.018  58.088  1.00  0.00     0.142 A 
HETATM   36  C   UNL     1       7.306  29.972  58.299  1.00  0.00     0.027 A 
HETATM   37  C   UNL     1       7.072  29.052  57.249  1.00  0.00     0.041 A 
ENDBRANCH   3  33
TORSDOF 7
ENDMDL
MODEL 8
REMARK VINA RESULT:      -9.8      3.276      6.852
REMARK  7 active torsions:
REMARK  status: ('A' for Active; 'I' for Inactive)
REMARK    1  A    between atoms: C_2  and  C_3 
REMARK    2  A    between atoms: C_7  and  N_8 
REMARK    3  A    between atoms: C_10  and  C_11 
REMARK    4  A    between atoms: C_17  and  N_18 
REMARK       I    between atoms: N_18  and  C_19 
REMARK    5  A    between atoms: C_19  and  C_20 
REMARK    6  A    between atoms: C_20  and  O_21 
REMARK    7  A    between atoms: O_21  and  C_22 
ROOT
HETATM    1  N   UNL     1       7.257  28.424  57.175  1.00  0.00    -0.044 N 
HETATM    2  N   UNL     1       8.128  28.648  58.205  1.00  0.00    -0.148 NA
HETATM    3  C   UNL     1       7.869  29.901  58.592  1.00  0.00     0.115 A 
HETATM    4  C   UNL     1       6.833  30.488  57.841  1.00  0.00     0.087 A 
HETATM    5  C   UNL     1       6.491  29.551  56.895  1.00  0.00     0.152 A 
ENDROOT
BRANCH   5   6
HETATM    6  N   UNL     1       5.460  29.752  55.991  1.00  0.00    -0.309 N 
HETATM    7  C   UNL     1       4.281  30.543  56.204  1.00  0.00     0.247 C 
HETATM    8  O   UNL     1       3.697  30.883  55.184  1.00  0.00    -0.271 OA
HETATM    9  H   UNL     1       5.487  29.275  55.097  1.00  0.00     0.170 HD
BRANCH   7  10
HETATM   10  C   UNL     1       3.725  30.731  57.603  1.00  0.00     0.278 C 
BRANCH  10  11
HETATM   11  O   UNL     1       3.176  32.045  57.662  1.00  0.00    -0.342 OA
BRANCH  11  12
HETATM   12  C   UNL     1       3.627  32.854  58.670  1.00  0.00     0.070 A 
HETATM   13  C   UNL     1       4.531  32.249  59.548  1.00  0.00     0.049 A 
HETATM   14  C   UNL     1       5.078  32.957  60.633  1.00  0.00    -0.023 A 
HETATM   15  C   UNL     1       4.709  34.305  60.830  1.00  0.00    -0.026 A 
HETATM   16  C   UNL     1       5.982  32.355  61.524  1.00  0.00     0.012 A 
HETATM   17  C   UNL     1       3.807  34.905  59.940  1.00  0.00     0.015 A 
HETATM   18  C   UNL     1       5.253  35.017  61.912  1.00  0.00     0.012 A 
HETATM   19  C   UNL     1       3.270  34.187  58.866  1.00  0.00     0.037 A 
HETATM   20  C   UNL     1       6.150  34.405  62.789  1.00  0.00     0.001 A 
HETATM   21  C   UNL     1       6.514  33.075  62.595  1.00  0.00     0.001 A 
ENDBRANCH  11  12
ENDBRANCH  10  11
ENDBRANCH   7  10
ENDBRANCH   5   6
BRANCH   1  22
HETATM   22  C   UNL     1       7.180  27.128  56.630  1.00  0.00     0.732 A 
HETATM   23  N   UNL     1       8.099  26.291  57.189  1.00  0.00    -0.152 N 
HETATM   24  C   UNL     1       8.160  24.976  56.857  1.00  0.00     0.268 A 
HETATM   25  H   UNL     1       8.703  26.625  57.934  1.00  0.00     0.188 HD
HETATM   26  C   UNL     1       7.247  24.553  55.758  1.00  0.00     0.035 A 
HETATM   27  O   UNL     1       8.916  24.201  57.428  1.00  0.00    -0.267 OA
HETATM   28  C   UNL     1       6.402  25.483  55.260  1.00  0.00     0.061 A 
HETATM   29  N   UNL     1       6.336  26.788  55.713  1.00  0.00    -0.067 NA
HETATM   30  C   UNL     1       5.424  25.193  54.148  1.00  0.00     0.072 C 
BRANCH  26  31
HETATM   31  C   UNL     1       7.404  23.129  55.291  1.00  0.00     0.042 C 
HETATM   32  C   UNL     1       8.361  23.013  54.114  1.00  0.00     0.010 C 
ENDBRANCH  26  31
ENDBRANCH   1  22
BRANCH   3  33
HETATM   33  C   UNL     1       8.610  30.575  59.697  1.00  0.00     0.105 A 
HETATM   34  O   UNL     1       8.805  30.028  60.935  1.00  0.00    -0.320 OA
HETATM   35  C   UNL     1       9.493  30.938  61.673  1.00  0.00     0.142 A 
HETATM   36  C   UNL     1       9.763  32.058  60.925  1.00  0.00     0.027 A 
HETATM   37  C   UNL     1       9.192  31.827  59.650  1.00  0.00     0.041 A 
ENDBRANCH   3  33
TORSDOF 7
ENDMDL
MODEL 9
REMARK VINA RESULT:      -9.7      1.984      8.674
REMARK  7 active torsions:
REMARK  status: ('A' for Active; 'I' for Inactive)
REMARK    1  A    between atoms: C_2  and  C_3 
REMARK    2  A    between atoms: C_7  and  N_8 
REMARK    3  A    between atoms: C_10  and  C_11 
REMARK    4  A    between atoms: C_17  and  N_18 
REMARK       I    between atoms: N_18  and  C_19 
REMARK    5  A    between atoms: C_19  and  C_20 
REMARK    6  A    between atoms: C_20  and  O_21 
REMARK    7  A    between atoms: O_21  and  C_22 
ROOT
HETATM    1  N   UNL     1       7.288  26.784  56.572  1.00  0.00    -0.044 N 
HETATM    2  N   UNL     1       8.120  25.705  56.682  1.00  0.00    -0.148 NA
HETATM    3  C   UNL     1       7.506  24.739  55.991  1.00  0.00     0.115 A 
HETATM    4  C   UNL     1       6.296  25.179  55.420  1.00  0.00     0.087 A 
HETATM    5  C   UNL     1       6.138  26.475  55.852  1.00  0.00     0.152 A 
ENDROOT
BRANCH   5   6
HETATM    6  N   UNL     1       5.072  27.265  55.451  1.00  0.00    -0.309 N 
HETATM    7  C   UNL     1       4.889  27.857  54.156  1.00  0.00     0.247 C 
HETATM    8  O   UNL     1       3.741  28.195  53.901  1.00  0.00    -0.271 OA
HETATM    9  H   UNL     1       4.354  27.504  56.125  1.00  0.00     0.170 HD
BRANCH   7  10
HETATM   10  C   UNL     1       6.089  28.214  53.299  1.00  0.00     0.278 C 
BRANCH  10  11
HETATM   11  O   UNL     1       6.200  27.206  52.295  1.00  0.00    -0.342 OA
BRANCH  11  12
HETATM   12  C   UNL     1       5.526  27.428  51.125  1.00  0.00     0.070 A 
HETATM   13  C   UNL     1       4.954  26.288  50.553  1.00  0.00     0.049 A 
HETATM   14  C   UNL     1       4.231  26.362  49.349  1.00  0.00    -0.023 A 
HETATM   15  C   UNL     1       4.080  27.613  48.713  1.00  0.00    -0.026 A 
HETATM   16  C   UNL     1       3.658  25.221  48.763  1.00  0.00     0.012 A 
HETATM   17  C   UNL     1       4.653  28.751  49.298  1.00  0.00     0.015 A 
HETATM   18  C   UNL     1       3.359  27.691  47.510  1.00  0.00     0.012 A 
HETATM   19  C   UNL     1       5.370  28.662  50.496  1.00  0.00     0.037 A 
HETATM   20  C   UNL     1       2.795  26.549  46.941  1.00  0.00     0.001 A 
HETATM   21  C   UNL     1       2.945  25.315  47.567  1.00  0.00     0.001 A 
ENDBRANCH  11  12
ENDBRANCH  10  11
ENDBRANCH   7  10
ENDBRANCH   5   6
BRANCH   1  22
HETATM   22  C   UNL     1       7.721  28.022  57.083  1.00  0.00     0.732 A 
HETATM   23  N   UNL     1       9.077  28.145  57.023  1.00  0.00    -0.152 N 
HETATM   24  C   UNL     1       9.707  29.286  57.404  1.00  0.00     0.268 A 
HETATM   25  H   UNL     1       9.636  27.406  56.606  1.00  0.00     0.188 HD
HETATM   26  C   UNL     1       8.828  30.328  58.006  1.00  0.00     0.035 A 
HETATM   27  O   UNL     1      10.913  29.436  57.258  1.00  0.00    -0.267 OA
HETATM   28  C   UNL     1       7.501  30.077  58.041  1.00  0.00     0.061 A 
HETATM   29  N   UNL     1       6.920  28.922  57.548  1.00  0.00    -0.067 NA
HETATM   30  C   UNL     1       6.497  31.043  58.620  1.00  0.00     0.072 C 
BRANCH  26  31
HETATM   31  C   UNL     1       9.536  31.540  58.556  1.00  0.00     0.042 C 
HETATM   32  C   UNL     1       9.521  31.573  60.076  1.00  0.00     0.010 C 
ENDBRANCH  26  31
ENDBRANCH   1  22
BRANCH   3  33
HETATM   33  C   UNL     1       8.062  23.363  55.858  1.00  0.00     0.105 A 
HETATM   34  O   UNL     1       7.695  22.306  56.645  1.00  0.00    -0.320 OA
HETATM   35  C   UNL     1       8.426  21.234  56.248  1.00  0.00     0.142 A 
HETATM   36  C   UNL     1       9.248  21.574  55.200  1.00  0.00     0.027 A 
HETATM   37  C   UNL     1       9.017  22.948  54.949  1.00  0.00     0.041 A 
ENDBRANCH   3  33
TORSDOF 7
ENDMDL
MODEL 10
REMARK VINA RESULT:      -9.6      3.364      8.040
REMARK  7 active torsions:
REMARK  status: ('A' for Active; 'I' for Inactive)
REMARK    1  A    between atoms: C_2  and  C_3 
REMARK    2  A    between atoms: C_7  and  N_8 
REMARK    3  A    between atoms: C_10  and  C_11 
REMARK    4  A    between atoms: C_17  and  N_18 
REMARK       I    between atoms: N_18  and  C_19 
REMARK    5  A    between atoms: C_19  and  C_20 
REMARK    6  A    between atoms: C_20  and  O_21 
REMARK    7  A    between atoms: O_21  and  C_22 
ROOT
HETATM    1  N   UNL     1       4.190  29.853  53.445  1.00  0.00    -0.044 N 
HETATM    2  N   UNL     1       4.299  31.215  53.433  1.00  0.00    -0.148 NA
HETATM    3  C   UNL     1       4.389  31.553  54.724  1.00  0.00     0.115 A 
HETATM    4  C   UNL     1       4.358  30.430  55.572  1.00  0.00     0.087 A 
HETATM    5  C   UNL     1       4.168  29.350  54.742  1.00  0.00     0.152 A 
ENDROOT
BRANCH   5   6
HETATM    6  N   UNL     1       4.133  28.048  55.217  1.00  0.00    -0.309 N 
HETATM    7  C   UNL     1       5.262  27.249  55.599  1.00  0.00     0.247 C 
HETATM    8  O   UNL     1       4.999  26.295  56.318  1.00  0.00    -0.271 OA
HETATM    9  H   UNL     1       3.242  27.568  55.272  1.00  0.00     0.170 HD
BRANCH   7  10
HETATM   10  C   UNL     1       6.618  27.481  54.960  1.00  0.00     0.278 C 
BRANCH  10  11
HETATM   11  O   UNL     1       7.497  26.480  55.469  1.00  0.00    -0.342 OA
BRANCH  11  12
HETATM   12  C   UNL     1       7.618  25.335  54.730  1.00  0.00     0.070 A 
HETATM   13  C   UNL     1       7.666  24.156  55.479  1.00  0.00     0.049 A 
HETATM   14  C   UNL     1       7.789  22.901  54.856  1.00  0.00    -0.023 A 
HETATM   15  C   UNL     1       7.860  22.837  53.448  1.00  0.00    -0.026 A 
HETATM   16  C   UNL     1       7.845  21.711  55.601  1.00  0.00     0.012 A 
HETATM   17  C   UNL     1       7.805  24.025  52.706  1.00  0.00     0.015 A 
HETATM   18  C   UNL     1       7.984  21.586  52.821  1.00  0.00     0.012 A 
HETATM   19  C   UNL     1       7.683  25.266  53.340  1.00  0.00     0.037 A 
HETATM   20  C   UNL     1       8.037  20.413  53.575  1.00  0.00     0.001 A 
HETATM   21  C   UNL     1       7.969  20.476  54.964  1.00  0.00     0.001 A 
ENDBRANCH  11  12
ENDBRANCH  10  11
ENDBRANCH   7  10
ENDBRANCH   5   6
BRANCH   1  22
HETATM   22  C   UNL     1       4.215  29.166  52.217  1.00  0.00     0.732 A 
HETATM   23  N   UNL     1       3.698  29.920  51.206  1.00  0.00    -0.152 N 
HETATM   24  C   UNL     1       3.682  29.479  49.923  1.00  0.00     0.268 A 
HETATM   25  H   UNL     1       3.392  30.871  51.389  1.00  0.00     0.188 HD
HETATM   26  C   UNL     1       4.147  28.076  49.727  1.00  0.00     0.035 A 
HETATM   27  O   UNL     1       3.311  30.192  49.000  1.00  0.00    -0.267 OA
HETATM   28  C   UNL     1       4.607  27.416  50.812  1.00  0.00     0.061 A 
HETATM   29  N   UNL     1       4.676  27.967  52.079  1.00  0.00    -0.067 NA
HETATM   30  C   UNL     1       5.109  25.994  50.757  1.00  0.00     0.072 C 
BRANCH  26  31
HETATM   31  C   UNL     1       4.005  27.532  48.328  1.00  0.00     0.042 C 
HETATM   32  C   UNL     1       5.267  27.732  47.503  1.00  0.00     0.010 C 
ENDBRANCH  26  31
ENDBRANCH   1  22
BRANCH   3  33
HETATM   33  C   UNL     1       4.509  32.967  55.183  1.00  0.00     0.105 A 
HETATM   34  O   UNL     1       4.063  33.422  56.393  1.00  0.00    -0.320 OA
HETATM   35  C   UNL     1       4.320  34.754  56.442  1.00  0.00     0.142 A 
HETATM   36  C   UNL     1       4.945  35.166  55.290  1.00  0.00     0.027 A 
HETATM   37  C   UNL     1       5.065  34.015  54.475  1.00  0.00     0.041 A 
ENDBRANCH   3  33
TORSDOF 7
ENDMDL
