MODEL 1
REMARK VINA RESULT:     -10.0      0.000      0.000
REMARK  5 active torsions:
REMARK  status: ('A' for Active; 'I' for Inactive)
REMARK    1  A    between atoms: O_2  and  C_3 
REMARK    2  A    between atoms: C_5  and  C_6 
REMARK       I    between atoms: C_6  and  N_7 
REMARK    3  A    between atoms: N_7  and  C_8 
REMARK    4  A    between atoms: C_8  and  C_9 
REMARK       I    between atoms: C_9  and  N_10 
REMARK    5  A    between atoms: N_10  and  N_11 
ROOT
HETATM    1  C   UNL     1       7.223  28.604  57.518  1.00  0.00     0.255 C 
HETATM    2  N   UNL     1       6.496  27.918  56.558  1.00  0.00    -0.245 N 
HETATM    3  O   UNL     1       8.092  28.099  58.231  1.00  0.00    -0.270 OA
HETATM    4  H   UNL     1       5.888  28.428  55.909  1.00  0.00     0.192 HD
ENDROOT
BRANCH   1   5
HETATM    5  C   UNL     1       6.972  30.110  57.547  1.00  0.00     0.227 C 
BRANCH   5   6
HETATM    6  N   UNL     1       6.764  30.675  58.872  1.00  0.00    -0.348 N 
HETATM    7  C   UNL     1       7.675  31.534  59.443  1.00  0.00     0.252 C 
HETATM    8  O   UNL     1       8.620  31.989  58.808  1.00  0.00    -0.268 OA
HETATM    9  H   UNL     1       5.889  30.472  59.334  1.00  0.00     0.163 HD
BRANCH   7  10
HETATM   10  C   UNL     1       7.464  31.899  60.873  1.00  0.00     0.034 A 
HETATM   11  C   UNL     1       6.179  32.285  61.277  1.00  0.00     0.053 A 
HETATM   12  C   UNL     1       5.941  32.714  62.586  1.00  0.00     0.069 A 
HETATM   13  C   UNL     1       6.989  32.727  63.507  1.00  0.00     0.037 A 
HETATM   14  C   UNL     1       8.273  32.341  63.114  1.00  0.00     0.004 A 
HETATM   15  C   UNL     1       8.515  31.939  61.799  1.00  0.00     0.017 A 
BRANCH  12  16
HETATM   16  O   UNL     1       4.650  33.086  62.848  1.00  0.00    -0.356 OA
HETATM   17  C   UNL     1       4.430  33.783  64.068  1.00  0.00     0.210 C 
ENDBRANCH  12  16
ENDBRANCH   7  10
ENDBRANCH   5   6
ENDBRANCH   1   5
BRANCH   2  18
HETATM   18  N   UNL     1       6.726  26.585  56.381  1.00  0.00    -0.166 NA
HETATM   19  C   UNL     1       7.058  26.183  55.199  1.00  0.00     0.157 A 
HETATM   20  C   UNL     1       7.204  26.985  53.906  1.00  0.00     0.277 A 
HETATM   21  C   UNL     1       7.375  24.802  54.851  1.00  0.00     0.028 A 
HETATM   22  O   UNL     1       6.980  28.171  53.789  1.00  0.00    -0.266 OA
HETATM   23  N   UNL     1       7.603  26.074  52.949  1.00  0.00    -0.321 N 
HETATM   24  C   UNL     1       7.700  24.797  53.496  1.00  0.00     0.048 A 
HETATM   25  H   UNL     1       7.778  26.325  51.987  1.00  0.00     0.169 HD
HETATM   26  C   UNL     1       8.054  23.630  52.853  1.00  0.00     0.032 A 
HETATM   27  C   UNL     1       8.074  22.455  53.617  1.00  0.00     0.021 A 
HETATM   28  C   UNL     1       7.742  22.477  54.988  1.00  0.00     0.012 A 
HETATM   29 BR   UNL     1       7.780  20.864  55.976  1.00  0.00    -0.051 Br
HETATM   30  C   UNL     1       7.387  23.663  55.630  1.00  0.00     0.035 A 
ENDBRANCH   2  18
TORSDOF 5
ENDMDL
MODEL 2
REMARK VINA RESULT:      -9.7      1.778      2.711
REMARK  5 active torsions:
REMARK  status: ('A' for Active; 'I' for Inactive)
REMARK    1  A    between atoms: O_2  and  C_3 
REMARK    2  A    between atoms: C_5  and  C_6 
REMARK       I    between atoms: C_6  and  N_7 
REMARK    3  A    between atoms: N_7  and  C_8 
REMARK    4  A    between atoms: C_8  and  C_9 
REMARK       I    between atoms: C_9  and  N_10 
REMARK    5  A    between atoms: N_10  and  N_11 
ROOT
HETATM    1  C   UNL     1       5.787  28.560  55.965  1.00  0.00     0.255 C 
HETATM    2  N   UNL     1       7.083  28.125  55.739  1.00  0.00    -0.245 N 
HETATM    3  O   UNL     1       4.778  27.875  55.790  1.00  0.00    -0.270 OA
HETATM    4  H   UNL     1       7.879  28.700  56.034  1.00  0.00     0.192 HD
ENDROOT
BRANCH   1   5
HETATM    5  C   UNL     1       5.685  29.946  56.600  1.00  0.00     0.227 C 
BRANCH   5   6
HETATM    6  N   UNL     1       6.316  30.074  57.905  1.00  0.00    -0.348 N 
HETATM    7  C   UNL     1       6.553  31.303  58.476  1.00  0.00     0.252 C 
HETATM    8  O   UNL     1       6.106  32.337  57.993  1.00  0.00    -0.268 OA
HETATM    9  H   UNL     1       6.510  29.223  58.415  1.00  0.00     0.163 HD
BRANCH   7  10
HETATM   10  C   UNL     1       7.376  31.329  59.719  1.00  0.00     0.034 A 
HETATM   11  C   UNL     1       7.047  32.260  60.713  1.00  0.00     0.053 A 
HETATM   12  C   UNL     1       7.832  32.383  61.863  1.00  0.00     0.069 A 
HETATM   13  C   UNL     1       8.936  31.548  62.036  1.00  0.00     0.037 A 
HETATM   14  C   UNL     1       9.270  30.616  61.051  1.00  0.00     0.004 A 
HETATM   15  C   UNL     1       8.501  30.512  59.890  1.00  0.00     0.017 A 
BRANCH  12  16
HETATM   16  O   UNL     1       7.418  33.343  62.747  1.00  0.00    -0.356 OA
HETATM   17  C   UNL     1       7.409  32.974  64.121  1.00  0.00     0.210 C 
ENDBRANCH  12  16
ENDBRANCH   7  10
ENDBRANCH   5   6
ENDBRANCH   1   5
BRANCH   2  18
HETATM   18  N   UNL     1       7.284  26.859  55.273  1.00  0.00    -0.166 NA
HETATM   19  C   UNL     1       7.624  25.950  56.125  1.00  0.00     0.157 A 
HETATM   20  C   UNL     1       7.886  26.076  57.626  1.00  0.00     0.277 A 
HETATM   21  C   UNL     1       7.838  24.545  55.798  1.00  0.00     0.028 A 
HETATM   22  O   UNL     1       7.846  27.110  58.259  1.00  0.00    -0.266 OA
HETATM   23  N   UNL     1       8.189  24.801  58.056  1.00  0.00    -0.321 N 
HETATM   24  C   UNL     1       8.168  23.904  56.991  1.00  0.00     0.048 A 
HETATM   25  H   UNL     1       8.409  24.580  59.017  1.00  0.00     0.169 HD
HETATM   26  C   UNL     1       8.430  22.551  57.024  1.00  0.00     0.032 A 
HETATM   27  C   UNL     1       8.353  21.851  55.811  1.00  0.00     0.021 A 
HETATM   28  C   UNL     1       8.019  22.515  54.612  1.00  0.00     0.012 A 
HETATM   29 BR   UNL     1       7.931  21.527  53.001  1.00  0.00    -0.051 Br
HETATM   30  C   UNL     1       7.753  23.883  54.590  1.00  0.00     0.035 A 
ENDBRANCH   2  18
TORSDOF 5
ENDMDL
MODEL 3
REMARK VINA RESULT:      -9.2      2.798      3.365
REMARK  5 active torsions:
REMARK  status: ('A' for Active; 'I' for Inactive)
REMARK    1  A    between atoms: O_2  and  C_3 
REMARK    2  A    between atoms: C_5  and  C_6 
REMARK       I    between atoms: C_6  and  N_7 
REMARK    3  A    between atoms: N_7  and  C_8 
REMARK    4  A    between atoms: C_8  and  C_9 
REMARK       I    between atoms: C_9  and  N_10 
REMARK    5  A    between atoms: N_10  and  N_11 
ROOT
HETATM    1  C   UNL     1       9.668  29.400  56.176  1.00  0.00     0.255 C 
HETATM    2  N   UNL     1       8.471  28.711  56.295  1.00  0.00    -0.245 N 
HETATM    3  O   UNL     1      10.145  29.794  55.111  1.00  0.00    -0.270 OA
HETATM    4  H   UNL     1       8.068  28.534  57.221  1.00  0.00     0.192 HD
ENDROOT
BRANCH   1   5
HETATM    5  C   UNL     1      10.317  29.778  57.506  1.00  0.00     0.227 C 
BRANCH   5   6
HETATM    6  N   UNL     1       9.392  30.217  58.540  1.00  0.00    -0.348 N 
HETATM    7  C   UNL     1       9.472  31.473  59.095  1.00  0.00     0.252 C 
HETATM    8  O   UNL     1      10.215  32.335  58.640  1.00  0.00    -0.268 OA
HETATM    9  H   UNL     1       8.639  29.591  58.789  1.00  0.00     0.163 HD
BRANCH   7  10
HETATM   10  C   UNL     1       8.607  31.752  60.278  1.00  0.00     0.034 A 
HETATM   11  C   UNL     1       7.247  32.007  60.060  1.00  0.00     0.053 A 
HETATM   12  C   UNL     1       6.406  32.353  61.122  1.00  0.00     0.069 A 
HETATM   13  C   UNL     1       6.922  32.413  62.417  1.00  0.00     0.037 A 
HETATM   14  C   UNL     1       8.277  32.158  62.644  1.00  0.00     0.004 A 
HETATM   15  C   UNL     1       9.121  31.840  61.578  1.00  0.00     0.017 A 
BRANCH  12  16
HETATM   16  O   UNL     1       5.106  32.599  60.775  1.00  0.00    -0.356 OA
HETATM   17  C   UNL     1       4.785  32.467  59.395  1.00  0.00     0.210 C 
ENDBRANCH  12  16
ENDBRANCH   7  10
ENDBRANCH   5   6
ENDBRANCH   1   5
BRANCH   2  18
HETATM   18  N   UNL     1       7.760  28.419  55.168  1.00  0.00    -0.166 NA
HETATM   19  C   UNL     1       7.348  27.205  55.013  1.00  0.00     0.157 A 
HETATM   20  C   UNL     1       7.568  25.983  55.906  1.00  0.00     0.277 A 
HETATM   21  C   UNL     1       6.545  26.739  53.888  1.00  0.00     0.028 A 
HETATM   22  O   UNL     1       8.229  25.969  56.922  1.00  0.00    -0.266 OA
HETATM   23  N   UNL     1       6.891  24.950  55.291  1.00  0.00    -0.321 N 
HETATM   24  C   UNL     1       6.297  25.385  54.109  1.00  0.00     0.048 A 
HETATM   25  H   UNL     1       6.862  24.011  55.661  1.00  0.00     0.169 HD
HETATM   26  C   UNL     1       5.552  24.643  53.218  1.00  0.00     0.032 A 
HETATM   27  C   UNL     1       5.058  25.305  52.084  1.00  0.00     0.021 A 
HETATM   28  C   UNL     1       5.319  26.675  51.875  1.00  0.00     0.012 A 
HETATM   29 BR   UNL     1       4.633  27.522  50.328  1.00  0.00    -0.051 Br
HETATM   30  C   UNL     1       6.071  27.418  52.784  1.00  0.00     0.035 A 
ENDBRANCH   2  18
TORSDOF 5
ENDMDL
MODEL 4
REMARK VINA RESULT:      -9.1      3.612      9.714
REMARK  5 active torsions:
REMARK  status: ('A' for Active; 'I' for Inactive)
REMARK    1  A    between atoms: O_2  and  C_3 
REMARK    2  A    between atoms: C_5  and  C_6 
REMARK       I    between atoms: C_6  and  N_7 
REMARK    3  A    between atoms: N_7  and  C_8 
REMARK    4  A    between atoms: C_8  and  C_9 
REMARK       I    between atoms: C_9  and  N_10 
REMARK    5  A    between atoms: N_10  and  N_11 
ROOT
HETATM    1  C   UNL     1       5.800  28.440  56.077  1.00  0.00     0.255 C 
HETATM    2  N   UNL     1       6.397  29.689  56.148  1.00  0.00    -0.245 N 
HETATM    3  O   UNL     1       5.244  27.876  57.021  1.00  0.00    -0.270 OA
HETATM    4  H   UNL     1       6.719  30.156  55.294  1.00  0.00     0.192 HD
ENDROOT
BRANCH   1   5
HETATM    5  C   UNL     1       5.748  27.841  54.674  1.00  0.00     0.227 C 
BRANCH   5   6
HETATM    6  N   UNL     1       6.507  26.612  54.499  1.00  0.00    -0.348 N 
HETATM    7  C   UNL     1       5.932  25.474  53.983  1.00  0.00     0.252 C 
HETATM    8  O   UNL     1       4.805  25.481  53.499  1.00  0.00    -0.268 OA
HETATM    9  H   UNL     1       7.496  26.641  54.703  1.00  0.00     0.163 HD
BRANCH   7  10
HETATM   10  C   UNL     1       6.740  24.221  54.029  1.00  0.00     0.034 A 
HETATM   11  C   UNL     1       7.072  23.690  55.282  1.00  0.00     0.053 A 
HETATM   12  C   UNL     1       7.894  22.564  55.385  1.00  0.00     0.069 A 
HETATM   13  C   UNL     1       8.361  21.945  54.226  1.00  0.00     0.037 A 
HETATM   14  C   UNL     1       8.034  22.466  52.972  1.00  0.00     0.004 A 
HETATM   15  C   UNL     1       7.235  23.607  52.871  1.00  0.00     0.017 A 
BRANCH  12  16
HETATM   16  O   UNL     1       8.162  22.158  56.664  1.00  0.00    -0.356 OA
HETATM   17  C   UNL     1       8.628  20.823  56.817  1.00  0.00     0.210 C 
ENDBRANCH  12  16
ENDBRANCH   7  10
ENDBRANCH   5   6
ENDBRANCH   1   5
BRANCH   2  18
HETATM   18  N   UNL     1       6.399  30.354  57.339  1.00  0.00    -0.166 NA
HETATM   19  C   UNL     1       7.526  30.476  57.960  1.00  0.00     0.157 A 
HETATM   20  C   UNL     1       8.907  29.941  57.578  1.00  0.00     0.277 A 
HETATM   21  C   UNL     1       7.707  31.190  59.218  1.00  0.00     0.028 A 
HETATM   22  O   UNL     1       9.148  29.256  56.608  1.00  0.00    -0.266 OA
HETATM   23  N   UNL     1       9.759  30.379  58.571  1.00  0.00    -0.321 N 
HETATM   24  C   UNL     1       9.062  31.105  59.534  1.00  0.00     0.048 A 
HETATM   25  H   UNL     1      10.748  30.173  58.581  1.00  0.00     0.169 HD
HETATM   26  C   UNL     1       9.565  31.688  60.677  1.00  0.00     0.032 A 
HETATM   27  C   UNL     1       8.659  32.367  61.505  1.00  0.00     0.021 A 
HETATM   28  C   UNL     1       7.291  32.443  61.172  1.00  0.00     0.012 A 
HETATM   29 BR   UNL     1       6.108  33.368  62.324  1.00  0.00    -0.051 Br
HETATM   30  C   UNL     1       6.792  31.852  60.012  1.00  0.00     0.035 A 
ENDBRANCH   2  18
TORSDOF 5
ENDMDL
MODEL 5
REMARK VINA RESULT:      -9.1      2.664      3.229
REMARK  5 active torsions:
REMARK  status: ('A' for Active; 'I' for Inactive)
REMARK    1  A    between atoms: O_2  and  C_3 
REMARK    2  A    between atoms: C_5  and  C_6 
REMARK       I    between atoms: C_6  and  N_7 
REMARK    3  A    between atoms: N_7  and  C_8 
REMARK    4  A    between atoms: C_8  and  C_9 
REMARK       I    between atoms: C_9  and  N_10 
REMARK    5  A    between atoms: N_10  and  N_11 
ROOT
HETATM    1  C   UNL     1       7.789  29.859  58.218  1.00  0.00     0.255 C 
HETATM    2  N   UNL     1       8.410  28.969  57.357  1.00  0.00    -0.245 N 
HETATM    3  O   UNL     1       6.694  30.385  58.010  1.00  0.00    -0.270 OA
HETATM    4  H   UNL     1       9.252  28.466  57.654  1.00  0.00     0.192 HD
ENDROOT
BRANCH   1   5
HETATM    5  C   UNL     1       8.502  30.051  59.554  1.00  0.00     0.227 C 
BRANCH   5   6
HETATM    6  N   UNL     1       7.769  30.835  60.537  1.00  0.00    -0.348 N 
HETATM    7  C   UNL     1       8.401  31.423  61.609  1.00  0.00     0.252 C 
HETATM    8  O   UNL     1       9.623  31.450  61.705  1.00  0.00    -0.268 OA
HETATM    9  H   UNL     1       6.787  30.997  60.367  1.00  0.00     0.163 HD
BRANCH   7  10
HETATM   10  C   UNL     1       7.535  32.037  62.657  1.00  0.00     0.034 A 
HETATM   11  C   UNL     1       6.145  31.945  62.507  1.00  0.00     0.053 A 
HETATM   12  C   UNL     1       5.286  32.571  63.415  1.00  0.00     0.069 A 
HETATM   13  C   UNL     1       5.821  33.267  64.500  1.00  0.00     0.037 A 
HETATM   14  C   UNL     1       7.205  33.363  64.658  1.00  0.00     0.004 A 
HETATM   15  C   UNL     1       8.062  32.760  63.735  1.00  0.00     0.017 A 
BRANCH  12  16
HETATM   16  O   UNL     1       3.953  32.425  63.146  1.00  0.00    -0.356 OA
HETATM   17  C   UNL     1       3.526  32.809  61.844  1.00  0.00     0.210 C 
ENDBRANCH  12  16
ENDBRANCH   7  10
ENDBRANCH   5   6
ENDBRANCH   1   5
BRANCH   2  18
HETATM   18  N   UNL     1       7.798  28.649  56.181  1.00  0.00    -0.166 NA
HETATM   19  C   UNL     1       7.366  27.440  56.035  1.00  0.00     0.157 A 
HETATM   20  C   UNL     1       7.468  26.251  56.992  1.00  0.00     0.277 A 
HETATM   21  C   UNL     1       6.657  26.948  54.860  1.00  0.00     0.028 A 
HETATM   22  O   UNL     1       8.032  26.263  58.065  1.00  0.00    -0.266 OA
HETATM   23  N   UNL     1       6.821  25.211  56.357  1.00  0.00    -0.321 N 
HETATM   24  C   UNL     1       6.350  25.611  55.110  1.00  0.00     0.048 A 
HETATM   25  H   UNL     1       6.730  24.289  56.760  1.00  0.00     0.169 HD
HETATM   26  C   UNL     1       5.669  24.851  54.183  1.00  0.00     0.032 A 
HETATM   27  C   UNL     1       5.301  25.477  52.983  1.00  0.00     0.021 A 
HETATM   28  C   UNL     1       5.620  26.831  52.745  1.00  0.00     0.012 A 
HETATM   29 BR   UNL     1       5.104  27.629  51.109  1.00  0.00    -0.051 Br
HETATM   30  C   UNL     1       6.307  27.591  53.690  1.00  0.00     0.035 A 
ENDBRANCH   2  18
TORSDOF 5
ENDMDL
MODEL 6
REMARK VINA RESULT:      -9.0      1.751      1.969
REMARK  5 active torsions:
REMARK  status: ('A' for Active; 'I' for Inactive)
REMARK    1  A    between atoms: O_2  and  C_3 
REMARK    2  A    between atoms: C_5  and  C_6 
REMARK       I    between atoms: C_6  and  N_7 
REMARK    3  A    between atoms: N_7  and  C_8 
REMARK    4  A    between atoms: C_8  and  C_9 
REMARK       I    between atoms: C_9  and  N_10 
REMARK    5  A    between atoms: N_10  and  N_11 
ROOT
HETATM    1  C   UNL     1       6.347  29.868  57.591  1.00  0.00     0.255 C 
HETATM    2  N   UNL     1       5.710  29.267  56.517  1.00  0.00    -0.245 N 
HETATM    3  O   UNL     1       7.299  29.379  58.202  1.00  0.00    -0.270 OA
HETATM    4  H   UNL     1       5.018  29.789  55.970  1.00  0.00     0.192 HD
ENDROOT
BRANCH   1   5
HETATM    5  C   UNL     1       5.873  31.287  57.896  1.00  0.00     0.227 C 
BRANCH   5   6
HETATM    6  N   UNL     1       5.896  31.655  59.303  1.00  0.00    -0.348 N 
HETATM    7  C   UNL     1       7.020  32.184  59.894  1.00  0.00     0.252 C 
HETATM    8  O   UNL     1       8.000  32.518  59.237  1.00  0.00    -0.268 OA
HETATM    9  H   UNL     1       5.032  31.577  59.821  1.00  0.00     0.163 HD
BRANCH   7  10
HETATM   10  C   UNL     1       7.000  32.343  61.377  1.00  0.00     0.034 A 
HETATM   11  C   UNL     1       5.767  32.559  62.005  1.00  0.00     0.053 A 
HETATM   12  C   UNL     1       5.697  32.795  63.381  1.00  0.00     0.069 A 
HETATM   13  C   UNL     1       6.868  32.783  64.141  1.00  0.00     0.037 A 
HETATM   14  C   UNL     1       8.102  32.567  63.524  1.00  0.00     0.004 A 
HETATM   15  C   UNL     1       8.172  32.359  62.144  1.00  0.00     0.017 A 
BRANCH  12  16
HETATM   16  O   UNL     1       4.438  33.012  63.869  1.00  0.00    -0.356 OA
HETATM   17  C   UNL     1       3.600  33.862  63.094  1.00  0.00     0.210 C 
ENDBRANCH  12  16
ENDBRANCH   7  10
ENDBRANCH   5   6
ENDBRANCH   1   5
BRANCH   2  18
HETATM   18  N   UNL     1       6.135  28.040  56.098  1.00  0.00    -0.166 NA
HETATM   19  C   UNL     1       5.540  27.511  55.080  1.00  0.00     0.157 A 
HETATM   20  C   UNL     1       4.364  28.043  54.260  1.00  0.00     0.277 A 
HETATM   21  C   UNL     1       5.896  26.229  54.484  1.00  0.00     0.028 A 
HETATM   22  O   UNL     1       3.765  29.073  54.481  1.00  0.00    -0.266 OA
HETATM   23  N   UNL     1       4.145  27.100  53.276  1.00  0.00    -0.321 N 
HETATM   24  C   UNL     1       5.034  26.037  53.406  1.00  0.00     0.048 A 
HETATM   25  H   UNL     1       3.419  27.188  52.579  1.00  0.00     0.169 HD
HETATM   26  C   UNL     1       5.114  24.905  52.623  1.00  0.00     0.032 A 
HETATM   27  C   UNL     1       6.095  23.960  52.956  1.00  0.00     0.021 A 
HETATM   28  C   UNL     1       6.960  24.170  54.051  1.00  0.00     0.012 A 
HETATM   29 BR   UNL     1       8.266  22.864  54.462  1.00  0.00    -0.051 Br
HETATM   30  C   UNL     1       6.872  25.319  54.836  1.00  0.00     0.035 A 
ENDBRANCH   2  18
TORSDOF 5
ENDMDL
MODEL 7
REMARK VINA RESULT:      -9.0      4.006     10.201
REMARK  5 active torsions:
REMARK  status: ('A' for Active; 'I' for Inactive)
REMARK    1  A    between atoms: O_2  and  C_3 
REMARK    2  A    between atoms: C_5  and  C_6 
REMARK       I    between atoms: C_6  and  N_7 
REMARK    3  A    between atoms: N_7  and  C_8 
REMARK    4  A    between atoms: C_8  and  C_9 
REMARK       I    between atoms: C_9  and  N_10 
REMARK    5  A    between atoms: N_10  and  N_11 
ROOT
HETATM    1  C   UNL     1       9.454  31.265  58.536  1.00  0.00     0.255 C 
HETATM    2  N   UNL     1       8.261  30.966  59.174  1.00  0.00    -0.245 N 
HETATM    3  O   UNL     1      10.015  32.362  58.579  1.00  0.00    -0.270 OA
HETATM    4  H   UNL     1       7.923  29.998  59.208  1.00  0.00     0.192 HD
ENDROOT
BRANCH   1   5
HETATM    5  C   UNL     1      10.130  30.073  57.863  1.00  0.00     0.227 C 
BRANCH   5   6
HETATM    6  N   UNL     1       9.352  29.435  56.811  1.00  0.00    -0.348 N 
HETATM    7  C   UNL     1       8.478  28.407  57.080  1.00  0.00     0.252 C 
HETATM    8  O   UNL     1       8.192  28.085  58.228  1.00  0.00    -0.268 OA
HETATM    9  H   UNL     1       9.421  29.822  55.880  1.00  0.00     0.163 HD
BRANCH   7  10
HETATM   10  C   UNL     1       7.880  27.698  55.912  1.00  0.00     0.034 A 
HETATM   11  C   UNL     1       7.464  26.372  56.083  1.00  0.00     0.053 A 
HETATM   12  C   UNL     1       6.971  25.633  55.003  1.00  0.00     0.069 A 
HETATM   13  C   UNL     1       6.864  26.236  53.749  1.00  0.00     0.037 A 
HETATM   14  C   UNL     1       7.275  27.559  53.570  1.00  0.00     0.004 A 
HETATM   15  C   UNL     1       7.792  28.286  54.644  1.00  0.00     0.017 A 
BRANCH  12  16
HETATM   16  O   UNL     1       6.620  24.344  55.296  1.00  0.00    -0.356 OA
HETATM   17  C   UNL     1       7.176  23.333  54.463  1.00  0.00     0.210 C 
ENDBRANCH  12  16
ENDBRANCH   7  10
ENDBRANCH   5   6
ENDBRANCH   1   5
BRANCH   2  18
HETATM   18  N   UNL     1       7.633  31.940  59.893  1.00  0.00    -0.166 NA
HETATM   19  C   UNL     1       7.787  31.936  61.176  1.00  0.00     0.157 A 
HETATM   20  C   UNL     1       8.561  30.955  62.057  1.00  0.00     0.277 A 
HETATM   21  C   UNL     1       7.218  32.926  62.082  1.00  0.00     0.028 A 
HETATM   22  O   UNL     1       9.140  29.966  61.662  1.00  0.00    -0.266 OA
HETATM   23  N   UNL     1       8.424  31.430  63.346  1.00  0.00    -0.321 N 
HETATM   24  C   UNL     1       7.636  32.578  63.366  1.00  0.00     0.048 A 
HETATM   25  H   UNL     1       8.836  30.976  64.148  1.00  0.00     0.169 HD
HETATM   26  C   UNL     1       7.265  33.326  64.463  1.00  0.00     0.032 A 
HETATM   27  C   UNL     1       6.454  34.447  64.234  1.00  0.00     0.021 A 
HETATM   28  C   UNL     1       6.039  34.785  62.928  1.00  0.00     0.012 A 
HETATM   29 BR   UNL     1       4.941  36.304  62.671  1.00  0.00    -0.051 Br
HETATM   30  C   UNL     1       6.421  34.023  61.825  1.00  0.00     0.035 A 
ENDBRANCH   2  18
TORSDOF 5
ENDMDL
MODEL 8
REMARK VINA RESULT:      -9.0      3.732      9.819
REMARK  5 active torsions:
REMARK  status: ('A' for Active; 'I' for Inactive)
REMARK    1  A    between atoms: O_2  and  C_3 
REMARK    2  A    between atoms: C_5  and  C_6 
REMARK       I    between atoms: C_6  and  N_7 
REMARK    3  A    between atoms: N_7  and  C_8 
REMARK    4  A    between atoms: C_8  and  C_9 
REMARK       I    between atoms: C_9  and  N_10 
REMARK    5  A    between atoms: N_10  and  N_11 
ROOT
HETATM    1  C   UNL     1       5.924  30.153  57.168  1.00  0.00     0.255 C 
HETATM    2  N   UNL     1       6.876  31.075  57.574  1.00  0.00    -0.245 N 
HETATM    3  O   UNL     1       4.844  29.969  57.731  1.00  0.00    -0.270 OA
HETATM    4  H   UNL     1       7.689  31.271  56.982  1.00  0.00     0.192 HD
ENDROOT
BRANCH   1   5
HETATM    5  C   UNL     1       6.244  29.450  55.851  1.00  0.00     0.227 C 
BRANCH   5   6
HETATM    6  N   UNL     1       7.010  28.220  55.979  1.00  0.00    -0.348 N 
HETATM    7  C   UNL     1       6.468  26.995  55.667  1.00  0.00     0.252 C 
HETATM    8  O   UNL     1       5.377  26.891  55.119  1.00  0.00    -0.268 OA
HETATM    9  H   UNL     1       7.984  28.301  56.238  1.00  0.00     0.163 HD
BRANCH   7  10
HETATM   10  C   UNL     1       7.269  25.786  56.018  1.00  0.00     0.034 A 
HETATM   11  C   UNL     1       7.049  24.610  55.290  1.00  0.00     0.053 A 
HETATM   12  C   UNL     1       7.712  23.426  55.627  1.00  0.00     0.069 A 
HETATM   13  C   UNL     1       8.626  23.427  56.681  1.00  0.00     0.037 A 
HETATM   14  C   UNL     1       8.853  24.595  57.412  1.00  0.00     0.004 A 
HETATM   15  C   UNL     1       8.169  25.770  57.091  1.00  0.00     0.017 A 
BRANCH  12  16
HETATM   16  O   UNL     1       7.394  22.343  54.854  1.00  0.00    -0.356 OA
HETATM   17  C   UNL     1       7.757  21.069  55.373  1.00  0.00     0.210 C 
ENDBRANCH  12  16
ENDBRANCH   7  10
ENDBRANCH   5   6
ENDBRANCH   1   5
BRANCH   2  18
HETATM   18  N   UNL     1       6.634  31.832  58.683  1.00  0.00    -0.166 NA
HETATM   19  C   UNL     1       7.283  31.545  59.763  1.00  0.00     0.157 A 
HETATM   20  C   UNL     1       8.292  30.425  60.020  1.00  0.00     0.277 A 
HETATM   21  C   UNL     1       7.170  32.277  61.018  1.00  0.00     0.028 A 
HETATM   22  O   UNL     1       8.616  29.577  59.216  1.00  0.00    -0.266 OA
HETATM   23  N   UNL     1       8.700  30.588  61.328  1.00  0.00    -0.321 N 
HETATM   24  C   UNL     1       8.043  31.666  61.917  1.00  0.00     0.048 A 
HETATM   25  H   UNL     1       9.372  29.983  61.776  1.00  0.00     0.169 HD
HETATM   26  C   UNL     1       8.175  32.129  63.208  1.00  0.00     0.032 A 
HETATM   27  C   UNL     1       7.397  33.235  63.578  1.00  0.00     0.021 A 
HETATM   28  C   UNL     1       6.517  33.842  62.657  1.00  0.00     0.012 A 
HETATM   29 BR   UNL     1       5.486  35.330  63.205  1.00  0.00    -0.051 Br
HETATM   30  C   UNL     1       6.393  33.368  61.352  1.00  0.00     0.035 A 
ENDBRANCH   2  18
TORSDOF 5
ENDMDL
MODEL 9
REMARK VINA RESULT:      -8.7      3.647      9.821
REMARK  5 active torsions:
REMARK  status: ('A' for Active; 'I' for Inactive)
REMARK    1  A    between atoms: O_2  and  C_3 
REMARK    2  A    between atoms: C_5  and  C_6 
REMARK       I    between atoms: C_6  and  N_7 
REMARK    3  A    between atoms: N_7  and  C_8 
REMARK    4  A    between atoms: C_8  and  C_9 
REMARK       I    between atoms: C_9  and  N_10 
REMARK    5  A    between atoms: N_10  and  N_11 
ROOT
HETATM    1  C   UNL     1       7.134  27.555  54.479  1.00  0.00     0.255 C 
HETATM    2  N   UNL     1       6.600  27.570  55.758  1.00  0.00    -0.245 N 
HETATM    3  O   UNL     1       8.048  28.286  54.094  1.00  0.00    -0.270 OA
HETATM    4  H   UNL     1       5.937  26.844  56.048  1.00  0.00     0.192 HD
ENDROOT
BRANCH   1   5
HETATM    5  C   UNL     1       6.596  26.444  53.581  1.00  0.00     0.227 C 
BRANCH   5   6
HETATM    6  N   UNL     1       6.971  25.095  53.978  1.00  0.00    -0.348 N 
HETATM    7  C   UNL     1       7.715  24.280  53.156  1.00  0.00     0.252 C 
HETATM    8  O   UNL     1       8.232  24.698  52.126  1.00  0.00    -0.268 OA
HETATM    9  H   UNL     1       6.728  24.799  54.913  1.00  0.00     0.163 HD
BRANCH   7  10
HETATM   10  C   UNL     1       7.877  22.857  53.573  1.00  0.00     0.034 A 
HETATM   11  C   UNL     1       8.007  22.577  54.939  1.00  0.00     0.053 A 
HETATM   12  C   UNL     1       8.241  21.271  55.381  1.00  0.00     0.069 A 
HETATM   13  C   UNL     1       8.315  20.233  54.452  1.00  0.00     0.037 A 
HETATM   14  C   UNL     1       8.186  20.503  53.087  1.00  0.00     0.004 A 
HETATM   15  C   UNL     1       7.979  21.812  52.646  1.00  0.00     0.017 A 
BRANCH  12  16
HETATM   16  O   UNL     1       8.371  21.133  56.736  1.00  0.00    -0.356 OA
HETATM   17  C   UNL     1       8.381  22.336  57.495  1.00  0.00     0.210 C 
ENDBRANCH  12  16
ENDBRANCH   7  10
ENDBRANCH   5   6
ENDBRANCH   1   5
BRANCH   2  18
HETATM   18  N   UNL     1       7.091  28.458  56.670  1.00  0.00    -0.166 NA
HETATM   19  C   UNL     1       6.298  29.385  57.095  1.00  0.00     0.157 A 
HETATM   20  C   UNL     1       4.852  29.683  56.698  1.00  0.00     0.277 A 
HETATM   21  C   UNL     1       6.653  30.386  58.095  1.00  0.00     0.028 A 
HETATM   22  O   UNL     1       4.220  29.084  55.854  1.00  0.00    -0.266 OA
HETATM   23  N   UNL     1       4.471  30.760  57.472  1.00  0.00    -0.321 N 
HETATM   24  C   UNL     1       5.521  31.177  58.286  1.00  0.00     0.048 A 
HETATM   25  H   UNL     1       3.553  31.179  57.422  1.00  0.00     0.169 HD
HETATM   26  C   UNL     1       5.528  32.225  59.182  1.00  0.00     0.032 A 
HETATM   27  C   UNL     1       6.716  32.459  59.889  1.00  0.00     0.021 A 
HETATM   28  C   UNL     1       7.852  31.649  59.684  1.00  0.00     0.012 A 
HETATM   29 BR   UNL     1       9.433  32.008  60.660  1.00  0.00    -0.051 Br
HETATM   30  C   UNL     1       7.835  30.590  58.777  1.00  0.00     0.035 A 
ENDBRANCH   2  18
TORSDOF 5
ENDMDL
MODEL 10
REMARK VINA RESULT:      -8.5      1.881      2.459
REMARK  5 active torsions:
REMARK  status: ('A' for Active; 'I' for Inactive)
REMARK    1  A    between atoms: O_2  and  C_3 
REMARK    2  A    between atoms: C_5  and  C_6 
REMARK       I    between atoms: C_6  and  N_7 
REMARK    3  A    between atoms: N_7  and  C_8 
REMARK    4  A    between atoms: C_8  and  C_9 
REMARK       I    between atoms: C_9  and  N_10 
REMARK    5  A    between atoms: N_10  and  N_11 
ROOT
HETATM    1  C   UNL     1       5.473  28.207  57.106  1.00  0.00     0.255 C 
HETATM    2  N   UNL     1       4.838  27.235  56.349  1.00  0.00    -0.245 N 
HETATM    3  O   UNL     1       6.578  28.072  57.635  1.00  0.00    -0.270 OA
HETATM    4  H   UNL     1       3.986  27.463  55.827  1.00  0.00     0.192 HD
ENDROOT
BRANCH   1   5
HETATM    5  C   UNL     1       4.758  29.556  57.134  1.00  0.00     0.227 C 
BRANCH   5   6
HETATM    6  N   UNL     1       5.088  30.406  58.268  1.00  0.00    -0.348 N 
HETATM    7  C   UNL     1       4.269  31.440  58.659  1.00  0.00     0.252 C 
HETATM    8  O   UNL     1       3.152  31.597  58.180  1.00  0.00    -0.268 OA
HETATM    9  H   UNL     1       5.909  30.166  58.807  1.00  0.00     0.163 HD
BRANCH   7  10
HETATM   10  C   UNL     1       4.794  32.366  59.704  1.00  0.00     0.034 A 
HETATM   11  C   UNL     1       6.088  32.150  60.194  1.00  0.00     0.053 A 
HETATM   12  C   UNL     1       6.601  32.936  61.230  1.00  0.00     0.069 A 
HETATM   13  C   UNL     1       5.825  33.969  61.758  1.00  0.00     0.037 A 
HETATM   14  C   UNL     1       4.533  34.193  61.275  1.00  0.00     0.004 A 
HETATM   15  C   UNL     1       4.013  33.388  60.259  1.00  0.00     0.017 A 
BRANCH  12  16
HETATM   16  O   UNL     1       7.867  32.610  61.633  1.00  0.00    -0.356 OA
HETATM   17  C   UNL     1       8.042  32.359  63.022  1.00  0.00     0.210 C 
ENDBRANCH  12  16
ENDBRANCH   7  10
ENDBRANCH   5   6
ENDBRANCH   1   5
BRANCH   2  18
HETATM   18  N   UNL     1       5.450  26.028  56.175  1.00  0.00    -0.166 NA
HETATM   19  C   UNL     1       5.947  25.766  55.012  1.00  0.00     0.157 A 
HETATM   20  C   UNL     1       5.927  26.609  53.736  1.00  0.00     0.277 A 
HETATM   21  C   UNL     1       6.664  24.543  54.673  1.00  0.00     0.028 A 
HETATM   22  O   UNL     1       5.380  27.684  53.616  1.00  0.00    -0.266 OA
HETATM   23  N   UNL     1       6.621  25.874  52.798  1.00  0.00    -0.321 N 
HETATM   24  C   UNL     1       7.050  24.664  53.338  1.00  0.00     0.048 A 
HETATM   25  H   UNL     1       6.770  26.188  51.849  1.00  0.00     0.169 HD
HETATM   26  C   UNL     1       7.758  23.663  52.708  1.00  0.00     0.032 A 
HETATM   27  C   UNL     1       8.071  22.523  53.463  1.00  0.00     0.021 A 
HETATM   28  C   UNL     1       7.673  22.416  54.812  1.00  0.00     0.012 A 
HETATM   29 BR   UNL     1       8.117  20.857  55.787  1.00  0.00    -0.051 Br
HETATM   30  C   UNL     1       6.959  23.435  55.441  1.00  0.00     0.035 A 
ENDBRANCH   2  18
TORSDOF 5
ENDMDL
