MODEL 1
REMARK VINA RESULT:      -9.6      0.000      0.000
REMARK  3 active torsions:
REMARK  status: ('A' for Active; 'I' for Inactive)
REMARK    1  A    between atoms: C_9  and  C_10 
REMARK       I    between atoms: C_10  and  N_11 
REMARK    2  A    between atoms: N_11  and  C_12 
REMARK    3  A    between atoms: C_20  and  N_21 
ROOT
HETATM    1  C   UNL     1       6.392  25.803  54.849  1.00  0.00     0.258 C 
HETATM    2  N   UNL     1       6.724  26.150  56.145  1.00  0.00    -0.305 N 
HETATM    3  O   UNL     1       5.658  26.409  54.080  1.00  0.00    -0.267 OA
HETATM    4  H   UNL     1       7.243  25.507  56.718  1.00  0.00     0.170 HD
ENDROOT
BRANCH   2   5
HETATM    5  C   UNL     1       6.339  27.323  56.772  1.00  0.00     0.163 A 
HETATM    6  N   UNL     1       5.092  27.626  57.130  1.00  0.00    -0.155 NA
HETATM    7  N   UNL     1       5.179  28.836  57.690  1.00  0.00    -0.275 N 
HETATM    8  H   UNL     1       4.327  29.259  58.045  1.00  0.00     0.189 HD
HETATM    9  C   UNL     1       6.443  29.359  57.700  1.00  0.00     0.064 A 
HETATM   10  C   UNL     1       7.238  28.384  57.104  1.00  0.00     0.042 A 
HETATM   11  C   UNL     1       6.937  30.580  58.172  1.00  0.00     0.034 A 
HETATM   12  C   UNL     1       8.618  28.627  56.960  1.00  0.00     0.053 A 
HETATM   13  C   UNL     1       9.133  29.853  57.424  1.00  0.00     0.103 A 
HETATM   14  C   UNL     1       8.308  30.815  58.021  1.00  0.00     0.038 A 
BRANCH  13  15
HETATM   15  N   UNL     1      10.569  30.126  57.270  1.00  0.00    -0.116 N 
HETATM   16  O   UNL     1      11.252  29.299  56.650  1.00  0.00    -0.532 OA
HETATM   17  O   UNL     1      11.011  31.169  57.774  1.00  0.00    -0.532 OA
ENDBRANCH  13  15
ENDBRANCH   2   5
BRANCH   1  18
HETATM   18  C   UNL     1       6.980  24.527  54.361  1.00  0.00     0.051 A 
HETATM   19  C   UNL     1       7.428  24.470  53.040  1.00  0.00     0.136 A 
HETATM   20  N   UNL     1       7.991  23.394  52.434  1.00  0.00    -0.233 NA
HETATM   21  C   UNL     1       8.109  22.333  53.255  1.00  0.00     0.206 A 
HETATM   22  O   UNL     1       8.647  21.137  52.887  1.00  0.00    -0.192 OA
HETATM   23  C   UNL     1       7.723  22.260  54.587  1.00  0.00     0.047 A 
HETATM   24  N   UNL     1       8.626  20.261  53.964  1.00  0.00    -0.130 NA
HETATM   25  C   UNL     1       8.075  20.945  54.976  1.00  0.00     0.073 A 
HETATM   26  C   UNL     1       7.895  20.301  56.298  1.00  0.00     0.074 C 
HETATM   27  C   UNL     1       7.140  23.396  55.176  1.00  0.00     0.036 A 
ENDBRANCH   1  18
TORSDOF 3
ENDMDL
MODEL 2
REMARK VINA RESULT:      -9.6      4.171      7.442
REMARK  3 active torsions:
REMARK  status: ('A' for Active; 'I' for Inactive)
REMARK    1  A    between atoms: C_9  and  C_10 
REMARK       I    between atoms: C_10  and  N_11 
REMARK    2  A    between atoms: N_11  and  C_12 
REMARK    3  A    between atoms: C_20  and  N_21 
ROOT
HETATM    1  C   UNL     1       5.494  25.651  52.785  1.00  0.00     0.258 C 
HETATM    2  N   UNL     1       6.738  25.912  53.327  1.00  0.00    -0.305 N 
HETATM    3  O   UNL     1       4.620  24.926  53.240  1.00  0.00    -0.267 OA
HETATM    4  H   UNL     1       7.416  26.433  52.797  1.00  0.00     0.170 HD
ENDROOT
BRANCH   2   5
HETATM    5  C   UNL     1       7.178  25.450  54.556  1.00  0.00     0.163 A 
HETATM    6  N   UNL     1       7.314  26.198  55.649  1.00  0.00    -0.155 NA
HETATM    7  N   UNL     1       7.762  25.358  56.588  1.00  0.00    -0.275 N 
HETATM    8  H   UNL     1       7.929  25.729  57.518  1.00  0.00     0.189 HD
HETATM    9  C   UNL     1       7.946  24.077  56.149  1.00  0.00     0.064 A 
HETATM   10  C   UNL     1       7.567  24.099  54.810  1.00  0.00     0.042 A 
HETATM   11  C   UNL     1       8.407  22.929  56.805  1.00  0.00     0.034 A 
HETATM   12  C   UNL     1       7.647  22.908  54.060  1.00  0.00     0.053 A 
HETATM   13  C   UNL     1       8.113  21.744  54.703  1.00  0.00     0.103 A 
HETATM   14  C   UNL     1       8.486  21.752  56.053  1.00  0.00     0.038 A 
BRANCH  13  15
HETATM   15  N   UNL     1       8.213  20.497  53.931  1.00  0.00    -0.116 N 
HETATM   16  O   UNL     1       7.612  20.436  52.850  1.00  0.00    -0.532 OA
HETATM   17  O   UNL     1       8.892  19.578  54.413  1.00  0.00    -0.532 OA
ENDBRANCH  13  15
ENDBRANCH   2   5
BRANCH   1  18
HETATM   18  C   UNL     1       5.215  26.315  51.483  1.00  0.00     0.051 A 
HETATM   19  C   UNL     1       5.670  27.622  51.298  1.00  0.00     0.136 A 
HETATM   20  N   UNL     1       5.507  28.373  50.179  1.00  0.00    -0.233 NA
HETATM   21  C   UNL     1       4.856  27.717  49.199  1.00  0.00     0.206 A 
HETATM   22  O   UNL     1       4.575  28.251  47.978  1.00  0.00    -0.192 OA
HETATM   23  C   UNL     1       4.368  26.418  49.244  1.00  0.00     0.047 A 
HETATM   24  N   UNL     1       3.902  27.317  47.201  1.00  0.00    -0.130 NA
HETATM   25  C   UNL     1       3.788  26.223  47.967  1.00  0.00     0.073 A 
HETATM   26  C   UNL     1       3.108  25.016  47.443  1.00  0.00     0.074 C 
HETATM   27  C   UNL     1       4.555  25.676  50.424  1.00  0.00     0.036 A 
ENDBRANCH   1  18
TORSDOF 3
ENDMDL
MODEL 3
REMARK VINA RESULT:      -9.6      5.232     10.731
REMARK  3 active torsions:
REMARK  status: ('A' for Active; 'I' for Inactive)
REMARK    1  A    between atoms: C_9  and  C_10 
REMARK       I    between atoms: C_10  and  N_11 
REMARK    2  A    between atoms: N_11  and  C_12 
REMARK    3  A    between atoms: C_20  and  N_21 
ROOT
HETATM    1  C   UNL     1       8.319  32.009  61.668  1.00  0.00     0.258 C 
HETATM    2  N   UNL     1       7.998  31.874  60.331  1.00  0.00    -0.305 N 
HETATM    3  O   UNL     1       9.397  31.781  62.203  1.00  0.00    -0.267 OA
HETATM    4  H   UNL     1       7.044  31.979  60.032  1.00  0.00     0.170 HD
ENDROOT
BRANCH   2   5
HETATM    5  C   UNL     1       8.896  31.533  59.333  1.00  0.00     0.163 A 
HETATM    6  N   UNL     1       9.926  32.281  58.942  1.00  0.00    -0.155 NA
HETATM    7  N   UNL     1      10.511  31.579  57.967  1.00  0.00    -0.275 N 
HETATM    8  H   UNL     1      11.337  31.973  57.527  1.00  0.00     0.189 HD
HETATM    9  C   UNL     1       9.891  30.394  57.682  1.00  0.00     0.064 A 
HETATM   10  C   UNL     1       8.821  30.328  58.568  1.00  0.00     0.042 A 
HETATM   11  C   UNL     1      10.179  29.402  56.738  1.00  0.00     0.034 A 
HETATM   12  C   UNL     1       7.969  29.206  58.523  1.00  0.00     0.053 A 
HETATM   13  C   UNL     1       8.239  28.199  57.576  1.00  0.00     0.103 A 
HETATM   14  C   UNL     1       9.327  28.293  56.698  1.00  0.00     0.038 A 
BRANCH  13  15
HETATM   15  N   UNL     1       7.354  27.028  57.509  1.00  0.00    -0.116 N 
HETATM   16  O   UNL     1       7.700  26.006  58.117  1.00  0.00    -0.532 OA
HETATM   17  O   UNL     1       6.313  27.134  56.844  1.00  0.00    -0.532 OA
ENDBRANCH  13  15
ENDBRANCH   2   5
BRANCH   1  18
HETATM   18  C   UNL     1       7.207  32.456  62.548  1.00  0.00     0.051 A 
HETATM   19  C   UNL     1       5.900  32.338  62.070  1.00  0.00     0.136 A 
HETATM   20  N   UNL     1       4.771  32.692  62.736  1.00  0.00    -0.233 NA
HETATM   21  C   UNL     1       5.021  33.173  63.970  1.00  0.00     0.206 A 
HETATM   22  O   UNL     1       4.057  33.590  64.837  1.00  0.00    -0.192 OA
HETATM   23  C   UNL     1       6.263  33.327  64.570  1.00  0.00     0.047 A 
HETATM   24  N   UNL     1       4.644  34.021  66.019  1.00  0.00    -0.130 NA
HETATM   25  C   UNL     1       5.963  33.855  65.850  1.00  0.00     0.073 A 
HETATM   26  C   UNL     1       6.904  34.223  66.933  1.00  0.00     0.074 C 
HETATM   27  C   UNL     1       7.407  32.951  63.845  1.00  0.00     0.036 A 
ENDBRANCH   1  18
TORSDOF 3
ENDMDL
MODEL 4
REMARK VINA RESULT:      -9.5      1.746      2.252
REMARK  3 active torsions:
REMARK  status: ('A' for Active; 'I' for Inactive)
REMARK    1  A    between atoms: C_9  and  C_10 
REMARK       I    between atoms: C_10  and  N_11 
REMARK    2  A    between atoms: N_11  and  C_12 
REMARK    3  A    between atoms: C_20  and  N_21 
ROOT
HETATM    1  C   UNL     1       6.995  25.602  55.537  1.00  0.00     0.258 C 
HETATM    2  N   UNL     1       6.085  25.979  56.506  1.00  0.00    -0.305 N 
HETATM    3  O   UNL     1       7.393  26.266  54.590  1.00  0.00    -0.267 OA
HETATM    4  H   UNL     1       5.747  25.301  57.168  1.00  0.00     0.170 HD
ENDROOT
BRANCH   2   5
HETATM    5  C   UNL     1       5.525  27.241  56.617  1.00  0.00     0.163 A 
HETATM    6  N   UNL     1       4.332  27.593  56.141  1.00  0.00    -0.155 NA
HETATM    7  N   UNL     1       4.199  28.883  56.463  1.00  0.00    -0.275 N 
HETATM    8  H   UNL     1       3.342  29.355  56.195  1.00  0.00     0.189 HD
HETATM    9  C   UNL     1       5.276  29.408  57.124  1.00  0.00     0.064 A 
HETATM   10  C   UNL     1       6.171  28.350  57.247  1.00  0.00     0.042 A 
HETATM   11  C   UNL     1       5.527  30.696  57.609  1.00  0.00     0.034 A 
HETATM   12  C   UNL     1       7.404  28.573  57.891  1.00  0.00     0.053 A 
HETATM   13  C   UNL     1       7.678  29.865  58.382  1.00  0.00     0.103 A 
HETATM   14  C   UNL     1       6.755  30.910  58.245  1.00  0.00     0.038 A 
BRANCH  13  15
HETATM   15  N   UNL     1       8.964  30.117  59.047  1.00  0.00    -0.116 N 
HETATM   16  O   UNL     1       8.981  30.136  60.285  1.00  0.00    -0.532 OA
HETATM   17  O   UNL     1       9.956  30.299  58.325  1.00  0.00    -0.532 OA
ENDBRANCH  13  15
ENDBRANCH   2   5
BRANCH   1  18
HETATM   18  C   UNL     1       7.517  24.214  55.660  1.00  0.00     0.051 A 
HETATM   19  C   UNL     1       7.957  23.784  56.914  1.00  0.00     0.136 A 
HETATM   20  N   UNL     1       8.458  22.556  57.205  1.00  0.00    -0.233 NA
HETATM   21  C   UNL     1       8.479  21.733  56.139  1.00  0.00     0.206 A 
HETATM   22  O   UNL     1       8.930  20.448  56.174  1.00  0.00    -0.192 OA
HETATM   23  C   UNL     1       8.059  22.026  54.849  1.00  0.00     0.047 A 
HETATM   24  N   UNL     1       8.813  19.875  54.915  1.00  0.00    -0.130 NA
HETATM   25  C   UNL     1       8.286  20.826  54.131  1.00  0.00     0.073 A 
HETATM   26  C   UNL     1       8.026  20.551  52.700  1.00  0.00     0.074 C 
HETATM   27  C   UNL     1       7.550  23.311  54.588  1.00  0.00     0.036 A 
ENDBRANCH   1  18
TORSDOF 3
ENDMDL
MODEL 5
REMARK VINA RESULT:      -9.4      4.657      7.355
REMARK  3 active torsions:
REMARK  status: ('A' for Active; 'I' for Inactive)
REMARK    1  A    between atoms: C_9  and  C_10 
REMARK       I    between atoms: C_10  and  N_11 
REMARK    2  A    between atoms: N_11  and  C_12 
REMARK    3  A    between atoms: C_20  and  N_21 
ROOT
HETATM    1  C   UNL     1       5.707  26.091  52.955  1.00  0.00     0.258 C 
HETATM    2  N   UNL     1       6.325  26.856  51.985  1.00  0.00    -0.305 N 
HETATM    3  O   UNL     1       4.538  26.145  53.315  1.00  0.00    -0.267 OA
HETATM    4  H   UNL     1       7.322  26.800  51.862  1.00  0.00     0.170 HD
ENDROOT
BRANCH   2   5
HETATM    5  C   UNL     1       5.681  27.774  51.173  1.00  0.00     0.163 A 
HETATM    6  N   UNL     1       5.738  29.097  51.320  1.00  0.00    -0.155 NA
HETATM    7  N   UNL     1       4.976  29.586  50.336  1.00  0.00    -0.275 N 
HETATM    8  H   UNL     1       4.887  30.594  50.260  1.00  0.00     0.189 HD
HETATM    9  C   UNL     1       4.397  28.629  49.549  1.00  0.00     0.064 A 
HETATM   10  C   UNL     1       4.843  27.419  50.071  1.00  0.00     0.042 A 
HETATM   11  C   UNL     1       3.537  28.730  48.450  1.00  0.00     0.034 A 
HETATM   12  C   UNL     1       4.412  26.219  49.470  1.00  0.00     0.053 A 
HETATM   13  C   UNL     1       3.542  26.300  48.365  1.00  0.00     0.103 A 
HETATM   14  C   UNL     1       3.111  27.534  47.861  1.00  0.00     0.038 A 
BRANCH  13  15
HETATM   15  N   UNL     1       3.075  25.058  47.734  1.00  0.00    -0.116 N 
HETATM   16  O   UNL     1       2.948  24.057  48.452  1.00  0.00    -0.532 OA
HETATM   17  O   UNL     1       2.839  25.087  46.517  1.00  0.00    -0.532 OA
ENDBRANCH  13  15
ENDBRANCH   2   5
BRANCH   1  18
HETATM   18  C   UNL     1       6.587  25.117  53.654  1.00  0.00     0.051 A 
HETATM   19  C   UNL     1       7.127  25.483  54.889  1.00  0.00     0.136 A 
HETATM   20  N   UNL     1       7.943  24.720  55.661  1.00  0.00    -0.233 NA
HETATM   21  C   UNL     1       8.189  23.509  55.125  1.00  0.00     0.206 A 
HETATM   22  O   UNL     1       8.972  22.559  55.708  1.00  0.00    -0.192 OA
HETATM   23  C   UNL     1       7.705  23.015  53.921  1.00  0.00     0.047 A 
HETATM   24  N   UNL     1       9.016  21.429  54.904  1.00  0.00    -0.130 NA
HETATM   25  C   UNL     1       8.251  21.710  53.840  1.00  0.00     0.073 A 
HETATM   26  C   UNL     1       8.076  20.708  52.764  1.00  0.00     0.074 C 
HETATM   27  C   UNL     1       6.866  23.838  53.150  1.00  0.00     0.036 A 
ENDBRANCH   1  18
TORSDOF 3
ENDMDL
MODEL 6
REMARK VINA RESULT:      -9.2      2.155      8.098
REMARK  3 active torsions:
REMARK  status: ('A' for Active; 'I' for Inactive)
REMARK    1  A    between atoms: C_9  and  C_10 
REMARK       I    between atoms: C_10  and  N_11 
REMARK    2  A    between atoms: N_11  and  C_12 
REMARK    3  A    between atoms: C_20  and  N_21 
ROOT
HETATM    1  C   UNL     1       6.568  26.862  55.596  1.00  0.00     0.258 C 
HETATM    2  N   UNL     1       7.591  26.604  54.704  1.00  0.00    -0.305 N 
HETATM    3  O   UNL     1       5.494  26.282  55.686  1.00  0.00    -0.267 OA
HETATM    4  H   UNL     1       8.379  27.228  54.651  1.00  0.00     0.170 HD
ENDROOT
BRANCH   2   5
HETATM    5  C   UNL     1       7.604  25.559  53.796  1.00  0.00     0.163 A 
HETATM    6  N   UNL     1       7.344  25.672  52.495  1.00  0.00    -0.155 NA
HETATM    7  N   UNL     1       7.464  24.432  52.010  1.00  0.00    -0.275 N 
HETATM    8  H   UNL     1       7.311  24.293  51.016  1.00  0.00     0.189 HD
HETATM    9  C   UNL     1       7.777  23.492  52.952  1.00  0.00     0.064 A 
HETATM   10  C   UNL     1       7.881  24.201  54.145  1.00  0.00     0.042 A 
HETATM   11  C   UNL     1       7.971  22.109  52.852  1.00  0.00     0.034 A 
HETATM   12  C   UNL     1       8.197  23.501  55.326  1.00  0.00     0.053 A 
HETATM   13  C   UNL     1       8.390  22.107  55.247  1.00  0.00     0.103 A 
HETATM   14  C   UNL     1       8.280  21.421  54.030  1.00  0.00     0.038 A 
BRANCH  13  15
HETATM   15  N   UNL     1       8.708  21.362  56.472  1.00  0.00    -0.116 N 
HETATM   16  O   UNL     1       9.393  20.335  56.364  1.00  0.00    -0.532 OA
HETATM   17  O   UNL     1       8.267  21.804  57.543  1.00  0.00    -0.532 OA
ENDBRANCH  13  15
ENDBRANCH   2   5
BRANCH   1  18
HETATM   18  C   UNL     1       6.807  27.997  56.527  1.00  0.00     0.051 A 
HETATM   19  C   UNL     1       7.784  27.847  57.514  1.00  0.00     0.136 A 
HETATM   20  N   UNL     1       8.132  28.775  58.440  1.00  0.00    -0.233 NA
HETATM   21  C   UNL     1       7.440  29.924  58.315  1.00  0.00     0.206 A 
HETATM   22  O   UNL     1       7.609  31.010  59.120  1.00  0.00    -0.192 OA
HETATM   23  C   UNL     1       6.460  30.211  57.375  1.00  0.00     0.047 A 
HETATM   24  N   UNL     1       6.749  32.026  58.724  1.00  0.00    -0.130 NA
HETATM   25  C   UNL     1       6.070  31.539  57.677  1.00  0.00     0.073 A 
HETATM   26  C   UNL     1       5.050  32.371  56.999  1.00  0.00     0.074 C 
HETATM   27  C   UNL     1       6.126  29.219  56.435  1.00  0.00     0.036 A 
ENDBRANCH   1  18
TORSDOF 3
ENDMDL
MODEL 7
REMARK VINA RESULT:      -8.9     11.932     15.508
REMARK  3 active torsions:
REMARK  status: ('A' for Active; 'I' for Inactive)
REMARK    1  A    between atoms: C_9  and  C_10 
REMARK       I    between atoms: C_10  and  N_11 
REMARK    2  A    between atoms: N_11  and  C_12 
REMARK    3  A    between atoms: C_20  and  N_21 
ROOT
HETATM    1  C   UNL     1       5.909  34.430  68.056  1.00  0.00     0.258 C 
HETATM    2  N   UNL     1       7.179  34.898  68.332  1.00  0.00    -0.305 N 
HETATM    3  O   UNL     1       4.979  34.291  68.840  1.00  0.00    -0.267 OA
HETATM    4  H   UNL     1       7.894  34.854  67.626  1.00  0.00     0.170 HD
ENDROOT
BRANCH   2   5
HETATM    5  C   UNL     1       7.593  35.383  69.561  1.00  0.00     0.163 A 
HETATM    6  N   UNL     1       7.855  36.661  69.830  1.00  0.00    -0.155 NA
HETATM    7  N   UNL     1       8.221  36.676  71.116  1.00  0.00    -0.275 N 
HETATM    8  H   UNL     1       8.461  37.569  71.532  1.00  0.00     0.189 HD
HETATM    9  C   UNL     1       8.229  35.443  71.708  1.00  0.00     0.064 A 
HETATM   10  C   UNL     1       7.816  34.564  70.711  1.00  0.00     0.042 A 
HETATM   11  C   UNL     1       8.560  35.041  73.007  1.00  0.00     0.034 A 
HETATM   12  C   UNL     1       7.722  33.190  71.011  1.00  0.00     0.053 A 
HETATM   13  C   UNL     1       8.057  32.766  72.313  1.00  0.00     0.103 A 
HETATM   14  C   UNL     1       8.468  33.676  73.296  1.00  0.00     0.038 A 
BRANCH  13  15
HETATM   15  N   UNL     1       7.975  31.336  72.638  1.00  0.00    -0.116 N 
HETATM   16  O   UNL     1       8.408  30.967  73.739  1.00  0.00    -0.532 OA
HETATM   17  O   UNL     1       7.481  30.582  71.787  1.00  0.00    -0.532 OA
ENDBRANCH  13  15
ENDBRANCH   2   5
BRANCH   1  18
HETATM   18  C   UNL     1       5.672  34.027  66.644  1.00  0.00     0.051 A 
HETATM   19  C   UNL     1       4.366  34.084  66.152  1.00  0.00     0.136 A 
HETATM   20  N   UNL     1       3.971  33.758  64.895  1.00  0.00    -0.233 NA
HETATM   21  C   UNL     1       4.995  33.374  64.109  1.00  0.00     0.206 A 
HETATM   22  O   UNL     1       4.861  33.003  62.805  1.00  0.00    -0.192 OA
HETATM   23  C   UNL     1       6.335  33.289  64.464  1.00  0.00     0.047 A 
HETATM   24  N   UNL     1       6.103  32.671  62.281  1.00  0.00    -0.130 NA
HETATM   25  C   UNL     1       6.978  32.850  63.280  1.00  0.00     0.073 A 
HETATM   26  C   UNL     1       8.418  32.582  63.065  1.00  0.00     0.074 C 
HETATM   27  C   UNL     1       6.701  33.633  65.777  1.00  0.00     0.036 A 
ENDBRANCH   1  18
TORSDOF 3
ENDMDL
MODEL 8
REMARK VINA RESULT:      -8.7      4.326      6.875
REMARK  3 active torsions:
REMARK  status: ('A' for Active; 'I' for Inactive)
REMARK    1  A    between atoms: C_9  and  C_10 
REMARK       I    between atoms: C_10  and  N_11 
REMARK    2  A    between atoms: N_11  and  C_12 
REMARK    3  A    between atoms: C_20  and  N_21 
ROOT
HETATM    1  C   UNL     1       5.558  25.405  51.981  1.00  0.00     0.258 C 
HETATM    2  N   UNL     1       6.905  25.098  51.986  1.00  0.00    -0.305 N 
HETATM    3  O   UNL     1       4.701  25.011  52.761  1.00  0.00    -0.267 OA
HETATM    4  H   UNL     1       7.489  25.390  51.219  1.00  0.00     0.170 HD
ENDROOT
BRANCH   2   5
HETATM    5  C   UNL     1       7.541  24.341  52.956  1.00  0.00     0.163 A 
HETATM    6  N   UNL     1       8.080  23.140  52.758  1.00  0.00    -0.155 NA
HETATM    7  N   UNL     1       8.572  22.782  53.948  1.00  0.00    -0.275 N 
HETATM    8  H   UNL     1       9.041  21.885  54.019  1.00  0.00     0.189 HD
HETATM    9  C   UNL     1       8.361  23.701  54.939  1.00  0.00     0.064 A 
HETATM   10  C   UNL     1       7.684  24.747  54.319  1.00  0.00     0.042 A 
HETATM   11  C   UNL     1       8.701  23.694  56.296  1.00  0.00     0.034 A 
HETATM   12  C   UNL     1       7.313  25.868  55.089  1.00  0.00     0.053 A 
HETATM   13  C   UNL     1       7.642  25.876  56.458  1.00  0.00     0.103 A 
HETATM   14  C   UNL     1       8.326  24.809  57.054  1.00  0.00     0.038 A 
BRANCH  13  15
HETATM   15  N   UNL     1       7.252  27.033  57.277  1.00  0.00    -0.116 N 
HETATM   16  O   UNL     1       7.888  27.246  58.318  1.00  0.00    -0.532 OA
HETATM   17  O   UNL     1       6.304  27.725  56.876  1.00  0.00    -0.532 OA
ENDBRANCH  13  15
ENDBRANCH   2   5
BRANCH   1  18
HETATM   18  C   UNL     1       5.112  26.295  50.876  1.00  0.00     0.051 A 
HETATM   19  C   UNL     1       5.485  27.640  50.921  1.00  0.00     0.136 A 
HETATM   20  N   UNL     1       5.169  28.587  50.001  1.00  0.00    -0.233 NA
HETATM   21  C   UNL     1       4.448  28.098  48.974  1.00  0.00     0.206 A 
HETATM   22  O   UNL     1       4.013  28.845  47.921  1.00  0.00    -0.192 OA
HETATM   23  C   UNL     1       4.027  26.787  48.798  1.00  0.00     0.047 A 
HETATM   24  N   UNL     1       3.304  28.043  47.037  1.00  0.00    -0.130 NA
HETATM   25  C   UNL     1       3.322  26.814  47.569  1.00  0.00     0.073 A 
HETATM   26  C   UNL     1       2.646  25.693  46.876  1.00  0.00     0.074 C 
HETATM   27  C   UNL     1       4.371  25.838  49.776  1.00  0.00     0.036 A 
ENDBRANCH   1  18
TORSDOF 3
ENDMDL
MODEL 9
REMARK VINA RESULT:      -8.7      3.763      7.650
REMARK  3 active torsions:
REMARK  status: ('A' for Active; 'I' for Inactive)
REMARK    1  A    between atoms: C_9  and  C_10 
REMARK       I    between atoms: C_10  and  N_11 
REMARK    2  A    between atoms: N_11  and  C_12 
REMARK    3  A    between atoms: C_20  and  N_21 
ROOT
HETATM    1  C   UNL     1       6.551  26.680  53.289  1.00  0.00     0.258 C 
HETATM    2  N   UNL     1       6.075  25.563  53.949  1.00  0.00    -0.305 N 
HETATM    3  O   UNL     1       7.467  27.416  53.635  1.00  0.00    -0.267 OA
HETATM    4  H   UNL     1       5.238  25.109  53.624  1.00  0.00     0.170 HD
ENDROOT
BRANCH   2   5
HETATM    5  C   UNL     1       6.630  25.027  55.098  1.00  0.00     0.163 A 
HETATM    6  N   UNL     1       6.677  25.638  56.281  1.00  0.00    -0.155 NA
HETATM    7  N   UNL     1       7.293  24.772  57.092  1.00  0.00    -0.275 N 
HETATM    8  H   UNL     1       7.429  25.040  58.061  1.00  0.00     0.189 HD
HETATM    9  C   UNL     1       7.677  23.610  56.480  1.00  0.00     0.064 A 
HETATM   10  C   UNL     1       7.251  23.742  55.162  1.00  0.00     0.042 A 
HETATM   11  C   UNL     1       8.347  22.483  56.969  1.00  0.00     0.034 A 
HETATM   12  C   UNL     1       7.504  22.691  54.257  1.00  0.00     0.053 A 
HETATM   13  C   UNL     1       8.184  21.551  54.730  1.00  0.00     0.103 A 
HETATM   14  C   UNL     1       8.598  21.447  56.064  1.00  0.00     0.038 A 
BRANCH  13  15
HETATM   15  N   UNL     1       8.466  20.453  53.796  1.00  0.00    -0.116 N 
HETATM   16  O   UNL     1       8.968  19.417  54.254  1.00  0.00    -0.532 OA
HETATM   17  O   UNL     1       8.186  20.630  52.601  1.00  0.00    -0.532 OA
ENDBRANCH  13  15
ENDBRANCH   2   5
BRANCH   1  18
HETATM   18  C   UNL     1       5.838  27.029  52.031  1.00  0.00     0.051 A 
HETATM   19  C   UNL     1       5.399  25.987  51.211  1.00  0.00     0.136 A 
HETATM   20  N   UNL     1       4.734  26.123  50.036  1.00  0.00    -0.233 NA
HETATM   21  C   UNL     1       4.498  27.409  49.714  1.00  0.00     0.206 A 
HETATM   22  O   UNL     1       3.842  27.808  48.588  1.00  0.00    -0.192 OA
HETATM   23  C   UNL     1       4.862  28.533  50.443  1.00  0.00     0.047 A 
HETATM   24  N   UNL     1       3.762  29.193  48.557  1.00  0.00    -0.130 NA
HETATM   25  C   UNL     1       4.371  29.617  49.673  1.00  0.00     0.073 A 
HETATM   26  C   UNL     1       4.471  31.066  49.963  1.00  0.00     0.074 C 
HETATM   27  C   UNL     1       5.554  28.349  51.653  1.00  0.00     0.036 A 
ENDBRANCH   1  18
TORSDOF 3
ENDMDL
MODEL 10
REMARK VINA RESULT:      -8.7      2.462      8.053
REMARK  3 active torsions:
REMARK  status: ('A' for Active; 'I' for Inactive)
REMARK    1  A    between atoms: C_9  and  C_10 
REMARK       I    between atoms: C_10  and  N_11 
REMARK    2  A    between atoms: N_11  and  C_12 
REMARK    3  A    between atoms: C_20  and  N_21 
ROOT
HETATM    1  C   UNL     1       7.708  28.493  55.229  1.00  0.00     0.258 C 
HETATM    2  N   UNL     1       6.873  27.411  55.023  1.00  0.00    -0.305 N 
HETATM    3  O   UNL     1       8.741  28.762  54.630  1.00  0.00    -0.267 OA
HETATM    4  H   UNL     1       6.114  27.235  55.660  1.00  0.00     0.170 HD
ENDROOT
BRANCH   2   5
HETATM    5  C   UNL     1       7.027  26.474  54.015  1.00  0.00     0.163 A 
HETATM    6  N   UNL     1       6.775  26.690  52.725  1.00  0.00    -0.155 NA
HETATM    7  N   UNL     1       7.053  25.530  52.121  1.00  0.00    -0.275 N 
HETATM    8  H   UNL     1       6.934  25.477  51.115  1.00  0.00     0.189 HD
HETATM    9  C   UNL     1       7.464  24.541  52.972  1.00  0.00     0.064 A 
HETATM   10  C   UNL     1       7.463  25.130  54.233  1.00  0.00     0.042 A 
HETATM   11  C   UNL     1       7.826  23.210  52.739  1.00  0.00     0.034 A 
HETATM   12  C   UNL     1       7.843  24.355  55.346  1.00  0.00     0.053 A 
HETATM   13  C   UNL     1       8.205  23.011  55.132  1.00  0.00     0.103 A 
HETATM   14  C   UNL     1       8.199  22.446  53.850  1.00  0.00     0.038 A 
BRANCH  13  15
HETATM   15  N   UNL     1       8.593  22.186  56.285  1.00  0.00    -0.116 N 
HETATM   16  O   UNL     1       8.425  22.658  57.417  1.00  0.00    -0.532 OA
HETATM   17  O   UNL     1       9.070  21.065  56.053  1.00  0.00    -0.532 OA
ENDBRANCH  13  15
ENDBRANCH   2   5
BRANCH   1  18
HETATM   18  C   UNL     1       7.303  29.409  56.329  1.00  0.00     0.051 A 
HETATM   19  C   UNL     1       6.096  30.099  56.201  1.00  0.00     0.136 A 
HETATM   20  N   UNL     1       5.574  30.968  57.104  1.00  0.00    -0.233 NA
HETATM   21  C   UNL     1       6.341  31.105  58.202  1.00  0.00     0.206 A 
HETATM   22  O   UNL     1       6.033  31.913  59.255  1.00  0.00    -0.192 OA
HETATM   23  C   UNL     1       7.547  30.469  58.463  1.00  0.00     0.047 A 
HETATM   24  N   UNL     1       7.025  31.822  60.222  1.00  0.00    -0.130 NA
HETATM   25  C   UNL     1       7.923  30.953  59.741  1.00  0.00     0.073 A 
HETATM   26  C   UNL     1       9.132  30.618  60.528  1.00  0.00     0.074 C 
HETATM   27  C   UNL     1       8.055  29.580  57.500  1.00  0.00     0.036 A 
ENDBRANCH   1  18
TORSDOF 3
ENDMDL
