MODEL 1
REMARK VINA RESULT:      -8.1      0.000      0.000
REMARK  6 active torsions:
REMARK  status: ('A' for Active; 'I' for Inactive)
REMARK    1  A    between atoms: C_2  and  C_3 
REMARK    2  A    between atoms: C_3  and  N_4 
REMARK    3  A    between atoms: C_3  and  C_15 
REMARK       I    between atoms: N_4  and  C_5 
REMARK       I    between atoms: C_5  and  N_6 
REMARK    4  A    between atoms: N_6  and  C_7 
REMARK    5  A    between atoms: C_16  and  O_17 
REMARK    6  A    between atoms: O_17  and  C_18 
ROOT
HETATM    1  N   UNL     1       6.458  25.193  54.240  1.00  0.00    -0.334 N 
HETATM    2  C   UNL     1       6.448  26.498  54.669  1.00  0.00     0.321 C 
HETATM    3  N   UNL     1       5.258  26.792  55.293  1.00  0.00    -0.307 N 
HETATM    4  O   UNL     1       7.407  27.248  54.547  1.00  0.00    -0.247 OA
HETATM    5  H   UNL     1       5.575  24.773  53.985  1.00  0.00     0.165 HD
HETATM    6  H   UNL     1       4.722  25.983  55.565  1.00  0.00     0.170 HD
ENDROOT
BRANCH   1   7
HETATM    7  C   UNL     1       7.629  24.574  53.642  1.00  0.00     0.122 C 
BRANCH   7   8
HETATM    8  C   UNL     1       7.763  24.826  52.125  1.00  0.00     0.026 C 
HETATM    9  C   UNL     1       6.562  25.472  51.450  1.00  0.00     0.007 C 
ENDBRANCH   7   8
BRANCH   7  10
HETATM   10  C   UNL     1       7.736  23.100  54.022  1.00  0.00    -0.002 A 
HETATM   11  C   UNL     1       7.626  22.618  55.344  1.00  0.00     0.077 A 
HETATM   12  C   UNL     1       7.761  21.246  55.598  1.00  0.00     0.037 A 
HETATM   13  C   UNL     1       7.978  20.348  54.553  1.00  0.00     0.003 A 
HETATM   14  C   UNL     1       8.067  20.808  53.245  1.00  0.00     0.001 A 
HETATM   15  C   UNL     1       7.947  22.172  52.982  1.00  0.00     0.012 A 
BRANCH  11  16
HETATM   16  O   UNL     1       7.428  23.551  56.334  1.00  0.00    -0.351 OA
BRANCH  16  17
HETATM   17  C   UNL     1       8.569  23.899  57.122  1.00  0.00     0.171 C 
HETATM   18  C   UNL     1       8.431  25.355  57.530  1.00  0.00     0.034 C 
ENDBRANCH  16  17
ENDBRANCH  11  16
ENDBRANCH   7  10
ENDBRANCH   1   7
BRANCH   3  19
HETATM   19  C   UNL     1       4.861  28.044  55.814  1.00  0.00     0.059 A 
HETATM   20  C   UNL     1       4.122  28.928  55.007  1.00  0.00    -0.032 A 
HETATM   21  C   UNL     1       3.696  28.582  53.608  1.00  0.00     0.050 C 
HETATM   22  C   UNL     1       3.749  30.172  55.536  1.00  0.00     0.028 A 
HETATM   23  C   UNL     1       4.125  30.496  56.829  1.00  0.00     0.117 A 
HETATM   24  N   UNL     1       4.838  29.678  57.624  1.00  0.00    -0.271 NA
HETATM   25  C   UNL     1       5.185  28.473  57.103  1.00  0.00     0.146 A 
ENDBRANCH   3  19
TORSDOF 6
ENDMDL
MODEL 2
REMARK VINA RESULT:      -7.8      3.592      5.227
REMARK  6 active torsions:
REMARK  status: ('A' for Active; 'I' for Inactive)
REMARK    1  A    between atoms: C_2  and  C_3 
REMARK    2  A    between atoms: C_3  and  N_4 
REMARK    3  A    between atoms: C_3  and  C_15 
REMARK       I    between atoms: N_4  and  C_5 
REMARK       I    between atoms: C_5  and  N_6 
REMARK    4  A    between atoms: N_6  and  C_7 
REMARK    5  A    between atoms: C_16  and  O_17 
REMARK    6  A    between atoms: O_17  and  C_18 
ROOT
HETATM    1  N   UNL     1       6.383  25.890  51.567  1.00  0.00    -0.334 N 
HETATM    2  C   UNL     1       5.350  26.627  51.042  1.00  0.00     0.321 C 
HETATM    3  N   UNL     1       5.182  26.340  49.707  1.00  0.00    -0.307 N 
HETATM    4  O   UNL     1       4.660  27.382  51.713  1.00  0.00    -0.247 OA
HETATM    5  H   UNL     1       7.142  25.634  50.951  1.00  0.00     0.165 HD
HETATM    6  H   UNL     1       5.631  25.488  49.408  1.00  0.00     0.170 HD
ENDROOT
BRANCH   1   7
HETATM    7  C   UNL     1       6.718  25.909  52.981  1.00  0.00     0.122 C 
BRANCH   7   8
HETATM    8  C   UNL     1       7.738  27.001  53.367  1.00  0.00     0.026 C 
HETATM    9  C   UNL     1       7.208  28.124  54.248  1.00  0.00     0.007 C 
ENDBRANCH   7   8
BRANCH   7  10
HETATM   10  C   UNL     1       7.103  24.520  53.482  1.00  0.00    -0.002 A 
HETATM   11  C   UNL     1       6.880  24.070  54.801  1.00  0.00     0.077 A 
HETATM   12  C   UNL     1       7.288  22.782  55.175  1.00  0.00     0.037 A 
HETATM   13  C   UNL     1       7.890  21.930  54.249  1.00  0.00     0.003 A 
HETATM   14  C   UNL     1       8.095  22.355  52.942  1.00  0.00     0.001 A 
HETATM   15  C   UNL     1       7.704  23.638  52.562  1.00  0.00     0.012 A 
BRANCH  11  16
HETATM   16  O   UNL     1       6.297  24.957  55.674  1.00  0.00    -0.351 OA
BRANCH  16  17
HETATM   17  C   UNL     1       6.790  24.954  57.016  1.00  0.00     0.171 C 
HETATM   18  C   UNL     1       8.032  25.824  57.062  1.00  0.00     0.034 C 
ENDBRANCH  16  17
ENDBRANCH  11  16
ENDBRANCH   7  10
ENDBRANCH   1   7
BRANCH   3  19
HETATM   19  C   UNL     1       4.258  26.938  48.821  1.00  0.00     0.059 A 
HETATM   20  C   UNL     1       3.319  26.132  48.151  1.00  0.00    -0.032 A 
HETATM   21  C   UNL     1       3.227  24.647  48.368  1.00  0.00     0.050 C 
HETATM   22  C   UNL     1       2.418  26.740  47.265  1.00  0.00     0.028 A 
HETATM   23  C   UNL     1       2.486  28.110  47.070  1.00  0.00     0.117 A 
HETATM   24  N   UNL     1       3.375  28.908  47.687  1.00  0.00    -0.271 NA
HETATM   25  C   UNL     1       4.235  28.307  48.549  1.00  0.00     0.146 A 
ENDBRANCH   3  19
TORSDOF 6
ENDMDL
MODEL 3
REMARK VINA RESULT:      -7.7      0.767      1.524
REMARK  6 active torsions:
REMARK  status: ('A' for Active; 'I' for Inactive)
REMARK    1  A    between atoms: C_2  and  C_3 
REMARK    2  A    between atoms: C_3  and  N_4 
REMARK    3  A    between atoms: C_3  and  C_15 
REMARK       I    between atoms: N_4  and  C_5 
REMARK       I    between atoms: C_5  and  N_6 
REMARK    4  A    between atoms: N_6  and  C_7 
REMARK    5  A    between atoms: C_16  and  O_17 
REMARK    6  A    between atoms: O_17  and  C_18 
ROOT
HETATM    1  N   UNL     1       6.643  25.235  54.394  1.00  0.00    -0.334 N 
HETATM    2  C   UNL     1       6.639  26.571  54.714  1.00  0.00     0.321 C 
HETATM    3  N   UNL     1       5.567  26.869  55.524  1.00  0.00    -0.307 N 
HETATM    4  O   UNL     1       7.514  27.346  54.356  1.00  0.00    -0.247 OA
HETATM    5  H   UNL     1       5.754  24.758  54.343  1.00  0.00     0.165 HD
HETATM    6  H   UNL     1       5.138  26.065  55.954  1.00  0.00     0.170 HD
ENDROOT
BRANCH   1   7
HETATM    7  C   UNL     1       7.719  24.615  53.638  1.00  0.00     0.122 C 
BRANCH   7   8
HETATM    8  C   UNL     1       7.698  24.951  52.132  1.00  0.00     0.026 C 
HETATM    9  C   UNL     1       6.359  25.407  51.571  1.00  0.00     0.007 C 
ENDBRANCH   7   8
BRANCH   7  10
HETATM   10  C   UNL     1       7.809  23.118  53.921  1.00  0.00    -0.002 A 
HETATM   11  C   UNL     1       7.672  22.551  55.206  1.00  0.00     0.077 A 
HETATM   12  C   UNL     1       7.792  21.164  55.372  1.00  0.00     0.037 A 
HETATM   13  C   UNL     1       8.022  20.335  54.274  1.00  0.00     0.003 A 
HETATM   14  C   UNL     1       8.138  20.880  53.001  1.00  0.00     0.001 A 
HETATM   15  C   UNL     1       8.032  22.259  52.827  1.00  0.00     0.012 A 
BRANCH  11  16
HETATM   16  O   UNL     1       7.462  23.418  56.252  1.00  0.00    -0.351 OA
BRANCH  16  17
HETATM   17  C   UNL     1       8.480  23.469  57.255  1.00  0.00     0.171 C 
HETATM   18  C   UNL     1       8.941  24.909  57.382  1.00  0.00     0.034 C 
ENDBRANCH  16  17
ENDBRANCH  11  16
ENDBRANCH   7  10
ENDBRANCH   1   7
BRANCH   3  19
HETATM   19  C   UNL     1       5.203  28.145  56.011  1.00  0.00     0.059 A 
HETATM   20  C   UNL     1       5.922  28.710  57.080  1.00  0.00    -0.032 A 
HETATM   21  C   UNL     1       7.102  28.026  57.712  1.00  0.00     0.050 C 
HETATM   22  C   UNL     1       5.537  29.970  57.560  1.00  0.00     0.028 A 
HETATM   23  C   UNL     1       4.459  30.614  56.975  1.00  0.00     0.117 A 
HETATM   24  N   UNL     1       3.746  30.099  55.958  1.00  0.00    -0.271 NA
HETATM   25  C   UNL     1       4.134  28.882  55.497  1.00  0.00     0.146 A 
ENDBRANCH   3  19
TORSDOF 6
ENDMDL
MODEL 4
REMARK VINA RESULT:      -7.7      3.145      4.645
REMARK  6 active torsions:
REMARK  status: ('A' for Active; 'I' for Inactive)
REMARK    1  A    between atoms: C_2  and  C_3 
REMARK    2  A    between atoms: C_3  and  N_4 
REMARK    3  A    between atoms: C_3  and  C_15 
REMARK       I    between atoms: N_4  and  C_5 
REMARK       I    between atoms: C_5  and  N_6 
REMARK    4  A    between atoms: N_6  and  C_7 
REMARK    5  A    between atoms: C_16  and  O_17 
REMARK    6  A    between atoms: O_17  and  C_18 
ROOT
HETATM    1  N   UNL     1       7.467  26.561  56.344  1.00  0.00    -0.334 N 
HETATM    2  C   UNL     1       7.515  27.911  56.594  1.00  0.00     0.321 C 
HETATM    3  N   UNL     1       8.487  28.195  57.526  1.00  0.00    -0.307 N 
HETATM    4  O   UNL     1       6.814  28.724  56.008  1.00  0.00    -0.247 OA
HETATM    5  H   UNL     1       7.725  25.933  57.091  1.00  0.00     0.165 HD
HETATM    6  H   UNL     1       9.155  27.453  57.665  1.00  0.00     0.170 HD
ENDROOT
BRANCH   1   7
HETATM    7  C   UNL     1       6.607  25.985  55.324  1.00  0.00     0.122 C 
BRANCH   7   8
HETATM    8  C   UNL     1       5.174  25.683  55.811  1.00  0.00     0.026 C 
HETATM    9  C   UNL     1       5.026  25.390  57.297  1.00  0.00     0.007 C 
ENDBRANCH   7   8
BRANCH   7  10
HETATM   10  C   UNL     1       7.275  24.796  54.638  1.00  0.00    -0.002 A 
HETATM   11  C   UNL     1       7.536  24.732  53.253  1.00  0.00     0.077 A 
HETATM   12  C   UNL     1       8.135  23.587  52.710  1.00  0.00     0.037 A 
HETATM   13  C   UNL     1       8.499  22.518  53.529  1.00  0.00     0.003 A 
HETATM   14  C   UNL     1       8.267  22.579  54.898  1.00  0.00     0.001 A 
HETATM   15  C   UNL     1       7.661  23.709  55.447  1.00  0.00     0.012 A 
BRANCH  11  16
HETATM   16  O   UNL     1       7.141  25.807  52.493  1.00  0.00    -0.351 OA
BRANCH  16  17
HETATM   17  C   UNL     1       6.183  25.546  51.464  1.00  0.00     0.171 C 
HETATM   18  C   UNL     1       4.896  25.087  52.126  1.00  0.00     0.034 C 
ENDBRANCH  16  17
ENDBRANCH  11  16
ENDBRANCH   7  10
ENDBRANCH   1   7
BRANCH   3  19
HETATM   19  C   UNL     1       8.793  29.462  58.073  1.00  0.00     0.059 A 
HETATM   20  C   UNL     1       9.990  30.103  57.707  1.00  0.00    -0.032 A 
HETATM   21  C   UNL     1      10.955  29.513  56.718  1.00  0.00     0.050 C 
HETATM   22  C   UNL     1      10.284  31.354  58.271  1.00  0.00     0.028 A 
HETATM   23  C   UNL     1       9.394  31.913  59.173  1.00  0.00     0.117 A 
HETATM   24  N   UNL     1       8.246  31.323  59.550  1.00  0.00    -0.271 NA
HETATM   25  C   UNL     1       7.969  30.117  58.990  1.00  0.00     0.146 A 
ENDBRANCH   3  19
TORSDOF 6
ENDMDL
MODEL 5
REMARK VINA RESULT:      -7.7      3.083      4.191
REMARK  6 active torsions:
REMARK  status: ('A' for Active; 'I' for Inactive)
REMARK    1  A    between atoms: C_2  and  C_3 
REMARK    2  A    between atoms: C_3  and  N_4 
REMARK    3  A    between atoms: C_3  and  C_15 
REMARK       I    between atoms: N_4  and  C_5 
REMARK       I    between atoms: C_5  and  N_6 
REMARK    4  A    between atoms: N_6  and  C_7 
REMARK    5  A    between atoms: C_16  and  O_17 
REMARK    6  A    between atoms: O_17  and  C_18 
ROOT
HETATM    1  N   UNL     1       7.354  27.343  55.825  1.00  0.00    -0.334 N 
HETATM    2  C   UNL     1       7.488  28.632  56.281  1.00  0.00     0.321 C 
HETATM    3  N   UNL     1       8.322  28.673  57.374  1.00  0.00    -0.307 N 
HETATM    4  O   UNL     1       6.968  29.592  55.731  1.00  0.00    -0.247 OA
HETATM    5  H   UNL     1       7.430  26.594  56.497  1.00  0.00     0.165 HD
HETATM    6  H   UNL     1       8.887  27.847  57.494  1.00  0.00     0.170 HD
ENDROOT
BRANCH   1   7
HETATM    7  C   UNL     1       6.617  27.014  54.617  1.00  0.00     0.122 C 
BRANCH   7   8
HETATM    8  C   UNL     1       5.084  27.070  54.785  1.00  0.00     0.026 C 
HETATM    9  C   UNL     1       4.335  27.927  53.774  1.00  0.00     0.007 C 
ENDBRANCH   7   8
BRANCH   7  10
HETATM   10  C   UNL     1       7.109  25.707  54.002  1.00  0.00    -0.002 A 
HETATM   11  C   UNL     1       7.309  24.518  54.736  1.00  0.00     0.077 A 
HETATM   12  C   UNL     1       7.785  23.371  54.087  1.00  0.00     0.037 A 
HETATM   13  C   UNL     1       8.041  23.384  52.716  1.00  0.00     0.003 A 
HETATM   14  C   UNL     1       7.828  24.543  51.978  1.00  0.00     0.001 A 
HETATM   15  C   UNL     1       7.365  25.693  52.616  1.00  0.00     0.012 A 
BRANCH  11  16
HETATM   16  O   UNL     1       7.055  24.568  56.086  1.00  0.00    -0.351 OA
BRANCH  16  17
HETATM   17  C   UNL     1       7.874  23.746  56.922  1.00  0.00     0.171 C 
HETATM   18  C   UNL     1       9.021  24.595  57.437  1.00  0.00     0.034 C 
ENDBRANCH  16  17
ENDBRANCH  11  16
ENDBRANCH   7  10
ENDBRANCH   1   7
BRANCH   3  19
HETATM   19  C   UNL     1       8.655  29.810  58.145  1.00  0.00     0.059 A 
HETATM   20  C   UNL     1       9.921  30.404  57.993  1.00  0.00    -0.032 A 
HETATM   21  C   UNL     1      10.937  29.901  57.005  1.00  0.00     0.050 C 
HETATM   22  C   UNL     1      10.239  31.523  58.776  1.00  0.00     0.028 A 
HETATM   23  C   UNL     1       9.304  32.003  59.678  1.00  0.00     0.117 A 
HETATM   24  N   UNL     1       8.089  31.454  59.854  1.00  0.00    -0.271 NA
HETATM   25  C   UNL     1       7.790  30.376  59.084  1.00  0.00     0.146 A 
ENDBRANCH   3  19
TORSDOF 6
ENDMDL
MODEL 6
REMARK VINA RESULT:      -7.4      3.373      7.114
REMARK  6 active torsions:
REMARK  status: ('A' for Active; 'I' for Inactive)
REMARK    1  A    between atoms: C_2  and  C_3 
REMARK    2  A    between atoms: C_3  and  N_4 
REMARK    3  A    between atoms: C_3  and  C_15 
REMARK       I    between atoms: N_4  and  C_5 
REMARK       I    between atoms: C_5  and  N_6 
REMARK    4  A    between atoms: N_6  and  C_7 
REMARK    5  A    between atoms: C_16  and  O_17 
REMARK    6  A    between atoms: O_17  and  C_18 
ROOT
HETATM    1  N   UNL     1       6.779  27.446  56.187  1.00  0.00    -0.334 N 
HETATM    2  C   UNL     1       7.277  26.166  56.216  1.00  0.00     0.321 C 
HETATM    3  N   UNL     1       7.060  25.537  55.012  1.00  0.00    -0.307 N 
HETATM    4  O   UNL     1       7.875  25.704  57.178  1.00  0.00    -0.247 OA
HETATM    5  H   UNL     1       5.980  27.629  55.597  1.00  0.00     0.165 HD
HETATM    6  H   UNL     1       6.833  26.161  54.254  1.00  0.00     0.170 HD
ENDROOT
BRANCH   1   7
HETATM    7  C   UNL     1       6.961  28.381  57.285  1.00  0.00     0.122 C 
BRANCH   7   8
HETATM    8  C   UNL     1       5.776  29.349  57.485  1.00  0.00     0.026 C 
HETATM    9  C   UNL     1       5.645  30.460  56.453  1.00  0.00     0.007 C 
ENDBRANCH   7   8
BRANCH   7  10
HETATM   10  C   UNL     1       8.310  29.088  57.197  1.00  0.00    -0.002 A 
HETATM   11  C   UNL     1       8.941  29.720  58.291  1.00  0.00     0.077 A 
HETATM   12  C   UNL     1      10.172  30.364  58.108  1.00  0.00     0.037 A 
HETATM   13  C   UNL     1      10.795  30.366  56.859  1.00  0.00     0.003 A 
HETATM   14  C   UNL     1      10.194  29.729  55.780  1.00  0.00     0.001 A 
HETATM   15  C   UNL     1       8.963  29.096  55.948  1.00  0.00     0.012 A 
BRANCH  11  16
HETATM   16  O   UNL     1       8.273  29.700  59.492  1.00  0.00    -0.351 OA
BRANCH  16  17
HETATM   17  C   UNL     1       8.380  30.872  60.304  1.00  0.00     0.171 C 
HETATM   18  C   UNL     1       9.138  30.503  61.565  1.00  0.00     0.034 C 
ENDBRANCH  16  17
ENDBRANCH  11  16
ENDBRANCH   7  10
ENDBRANCH   1   7
BRANCH   3  19
HETATM   19  C   UNL     1       7.383  24.201  54.684  1.00  0.00     0.059 A 
HETATM   20  C   UNL     1       7.763  23.883  53.367  1.00  0.00    -0.032 A 
HETATM   21  C   UNL     1       7.882  24.922  52.287  1.00  0.00     0.050 C 
HETATM   22  C   UNL     1       8.066  22.549  53.056  1.00  0.00     0.028 A 
HETATM   23  C   UNL     1       7.973  21.587  54.048  1.00  0.00     0.117 A 
HETATM   24  N   UNL     1       7.605  21.855  55.313  1.00  0.00    -0.271 NA
HETATM   25  C   UNL     1       7.323  23.152  55.604  1.00  0.00     0.146 A 
ENDBRANCH   3  19
TORSDOF 6
ENDMDL
MODEL 7
REMARK VINA RESULT:      -7.3      3.182      4.989
REMARK  6 active torsions:
REMARK  status: ('A' for Active; 'I' for Inactive)
REMARK    1  A    between atoms: C_2  and  C_3 
REMARK    2  A    between atoms: C_3  and  N_4 
REMARK    3  A    between atoms: C_3  and  C_15 
REMARK       I    between atoms: N_4  and  C_5 
REMARK       I    between atoms: C_5  and  N_6 
REMARK    4  A    between atoms: N_6  and  C_7 
REMARK    5  A    between atoms: C_16  and  O_17 
REMARK    6  A    between atoms: O_17  and  C_18 
ROOT
HETATM    1  N   UNL     1       7.884  27.150  56.048  1.00  0.00    -0.334 N 
HETATM    2  C   UNL     1       7.931  27.861  57.223  1.00  0.00     0.321 C 
HETATM    3  N   UNL     1       8.202  29.187  56.974  1.00  0.00    -0.307 N 
HETATM    4  O   UNL     1       7.700  27.362  58.315  1.00  0.00    -0.247 OA
HETATM    5  H   UNL     1       8.458  27.468  55.281  1.00  0.00     0.165 HD
HETATM    6  H   UNL     1       8.061  29.465  56.016  1.00  0.00     0.170 HD
ENDROOT
BRANCH   1   7
HETATM    7  C   UNL     1       7.510  25.747  55.998  1.00  0.00     0.122 C 
BRANCH   7   8
HETATM    8  C   UNL     1       8.689  24.777  56.225  1.00  0.00     0.026 C 
HETATM    9  C   UNL     1       8.751  24.117  57.595  1.00  0.00     0.007 C 
ENDBRANCH   7   8
BRANCH   7  10
HETATM   10  C   UNL     1       6.701  25.430  54.743  1.00  0.00    -0.002 A 
HETATM   11  C   UNL     1       5.496  26.079  54.399  1.00  0.00     0.077 A 
HETATM   12  C   UNL     1       4.811  25.705  53.235  1.00  0.00     0.037 A 
HETATM   13  C   UNL     1       5.321  24.712  52.398  1.00  0.00     0.003 A 
HETATM   14  C   UNL     1       6.518  24.080  52.716  1.00  0.00     0.001 A 
HETATM   15  C   UNL     1       7.201  24.437  53.878  1.00  0.00     0.012 A 
BRANCH  11  16
HETATM   16  O   UNL     1       5.033  27.038  55.269  1.00  0.00    -0.351 OA
BRANCH  16  17
HETATM   17  C   UNL     1       4.527  28.241  54.686  1.00  0.00     0.171 C 
HETATM   18  C   UNL     1       4.369  29.269  55.791  1.00  0.00     0.034 C 
ENDBRANCH  16  17
ENDBRANCH  11  16
ENDBRANCH   7  10
ENDBRANCH   1   7
BRANCH   3  19
HETATM   19  C   UNL     1       8.381  30.210  57.932  1.00  0.00     0.059 A 
HETATM   20  C   UNL     1       9.677  30.683  58.208  1.00  0.00    -0.032 A 
HETATM   21  C   UNL     1      10.894  30.170  57.491  1.00  0.00     0.050 C 
HETATM   22  C   UNL     1       9.836  31.689  59.172  1.00  0.00     0.028 A 
HETATM   23  C   UNL     1       8.718  32.178  59.828  1.00  0.00     0.117 A 
HETATM   24  N   UNL     1       7.468  31.742  59.595  1.00  0.00    -0.271 NA
HETATM   25  C   UNL     1       7.326  30.775  58.653  1.00  0.00     0.146 A 
ENDBRANCH   3  19
TORSDOF 6
ENDMDL
MODEL 8
REMARK VINA RESULT:      -7.2      2.482      7.249
REMARK  6 active torsions:
REMARK  status: ('A' for Active; 'I' for Inactive)
REMARK    1  A    between atoms: C_2  and  C_3 
REMARK    2  A    between atoms: C_3  and  N_4 
REMARK    3  A    between atoms: C_3  and  C_15 
REMARK       I    between atoms: N_4  and  C_5 
REMARK       I    between atoms: C_5  and  N_6 
REMARK    4  A    between atoms: N_6  and  C_7 
REMARK    5  A    between atoms: C_16  and  O_17 
REMARK    6  A    between atoms: O_17  and  C_18 
ROOT
HETATM    1  N   UNL     1       7.522  26.433  55.429  1.00  0.00    -0.334 N 
HETATM    2  C   UNL     1       7.162  25.126  55.650  1.00  0.00     0.321 C 
HETATM    3  N   UNL     1       8.218  24.284  55.386  1.00  0.00    -0.307 N 
HETATM    4  O   UNL     1       6.065  24.798  56.078  1.00  0.00    -0.247 OA
HETATM    5  H   UNL     1       8.220  26.618  54.723  1.00  0.00     0.165 HD
HETATM    6  H   UNL     1       9.113  24.745  55.340  1.00  0.00     0.170 HD
ENDROOT
BRANCH   1   7
HETATM    7  C   UNL     1       6.640  27.548  55.729  1.00  0.00     0.122 C 
BRANCH   7   8
HETATM    8  C   UNL     1       6.020  28.209  54.480  1.00  0.00     0.026 C 
HETATM    9  C   UNL     1       4.530  27.973  54.274  1.00  0.00     0.007 C 
ENDBRANCH   7   8
BRANCH   7  10
HETATM   10  C   UNL     1       7.305  28.546  56.673  1.00  0.00    -0.002 A 
HETATM   11  C   UNL     1       6.595  29.375  57.568  1.00  0.00     0.077 A 
HETATM   12  C   UNL     1       7.293  30.279  58.382  1.00  0.00     0.037 A 
HETATM   13  C   UNL     1       8.685  30.349  58.335  1.00  0.00     0.003 A 
HETATM   14  C   UNL     1       9.396  29.523  57.472  1.00  0.00     0.001 A 
HETATM   15  C   UNL     1       8.711  28.629  56.649  1.00  0.00     0.012 A 
BRANCH  11  16
HETATM   16  O   UNL     1       5.224  29.274  57.560  1.00  0.00    -0.351 OA
BRANCH  16  17
HETATM   17  C   UNL     1       4.491  30.490  57.721  1.00  0.00     0.171 C 
HETATM   18  C   UNL     1       3.258  30.416  56.840  1.00  0.00     0.034 C 
ENDBRANCH  16  17
ENDBRANCH  11  16
ENDBRANCH   7  10
ENDBRANCH   1   7
BRANCH   3  19
HETATM   19  C   UNL     1       8.212  22.872  55.447  1.00  0.00     0.059 A 
HETATM   20  C   UNL     1       7.973  22.129  54.276  1.00  0.00    -0.032 A 
HETATM   21  C   UNL     1       7.760  22.776  52.936  1.00  0.00     0.050 C 
HETATM   22  C   UNL     1       7.957  20.729  54.358  1.00  0.00     0.028 A 
HETATM   23  C   UNL     1       8.167  20.122  55.586  1.00  0.00     0.117 A 
HETATM   24  N   UNL     1       8.389  20.803  56.724  1.00  0.00    -0.271 NA
HETATM   25  C   UNL     1       8.411  22.157  56.629  1.00  0.00     0.146 A 
ENDBRANCH   3  19
TORSDOF 6
ENDMDL
MODEL 9
REMARK VINA RESULT:      -7.1      5.795     10.369
REMARK  6 active torsions:
REMARK  status: ('A' for Active; 'I' for Inactive)
REMARK    1  A    between atoms: C_2  and  C_3 
REMARK    2  A    between atoms: C_3  and  N_4 
REMARK    3  A    between atoms: C_3  and  C_15 
REMARK       I    between atoms: N_4  and  C_5 
REMARK       I    between atoms: C_5  and  N_6 
REMARK    4  A    between atoms: N_6  and  C_7 
REMARK    5  A    between atoms: C_16  and  O_17 
REMARK    6  A    between atoms: O_17  and  C_18 
ROOT
HETATM    1  N   UNL     1       7.142  31.530  60.599  1.00  0.00    -0.334 N 
HETATM    2  C   UNL     1       7.204  31.388  59.234  1.00  0.00     0.321 C 
HETATM    3  N   UNL     1       6.186  30.579  58.786  1.00  0.00    -0.307 N 
HETATM    4  O   UNL     1       8.030  31.964  58.540  1.00  0.00    -0.247 OA
HETATM    5  H   UNL     1       6.759  30.765  61.136  1.00  0.00     0.165 HD
HETATM    6  H   UNL     1       5.439  30.448  59.450  1.00  0.00     0.170 HD
ENDROOT
BRANCH   1   7
HETATM    7  C   UNL     1       8.028  32.416  61.335  1.00  0.00     0.122 C 
BRANCH   7   8
HETATM    8  C   UNL     1       9.384  31.779  61.703  1.00  0.00     0.026 C 
HETATM    9  C   UNL     1       9.373  30.274  61.927  1.00  0.00     0.007 C 
ENDBRANCH   7   8
BRANCH   7  10
HETATM   10  C   UNL     1       7.317  33.053  62.525  1.00  0.00    -0.002 A 
HETATM   11  C   UNL     1       6.116  33.788  62.424  1.00  0.00     0.077 A 
HETATM   12  C   UNL     1       5.547  34.355  63.572  1.00  0.00     0.037 A 
HETATM   13  C   UNL     1       6.144  34.180  64.821  1.00  0.00     0.003 A 
HETATM   14  C   UNL     1       7.315  33.441  64.937  1.00  0.00     0.001 A 
HETATM   15  C   UNL     1       7.895  32.882  63.799  1.00  0.00     0.012 A 
BRANCH  11  16
HETATM   16  O   UNL     1       5.583  33.941  61.166  1.00  0.00    -0.351 OA
BRANCH  16  17
HETATM   17  C   UNL     1       4.185  33.675  61.027  1.00  0.00     0.171 C 
HETATM   18  C   UNL     1       3.637  34.594  59.950  1.00  0.00     0.034 C 
ENDBRANCH  16  17
ENDBRANCH  11  16
ENDBRANCH   7  10
ENDBRANCH   1   7
BRANCH   3  19
HETATM   19  C   UNL     1       5.958  30.161  57.455  1.00  0.00     0.059 A 
HETATM   20  C   UNL     1       6.627  29.026  56.961  1.00  0.00    -0.032 A 
HETATM   21  C   UNL     1       7.556  28.202  57.808  1.00  0.00     0.050 C 
HETATM   22  C   UNL     1       6.400  28.635  55.634  1.00  0.00     0.028 A 
HETATM   23  C   UNL     1       5.535  29.379  54.849  1.00  0.00     0.117 A 
HETATM   24  N   UNL     1       4.886  30.473  55.287  1.00  0.00    -0.271 NA
HETATM   25  C   UNL     1       5.108  30.836  56.577  1.00  0.00     0.146 A 
ENDBRANCH   3  19
TORSDOF 6
ENDMDL
MODEL 10
REMARK VINA RESULT:      -7.0      1.898      7.208
REMARK  6 active torsions:
REMARK  status: ('A' for Active; 'I' for Inactive)
REMARK    1  A    between atoms: C_2  and  C_3 
REMARK    2  A    between atoms: C_3  and  N_4 
REMARK    3  A    between atoms: C_3  and  C_15 
REMARK       I    between atoms: N_4  and  C_5 
REMARK       I    between atoms: C_5  and  N_6 
REMARK    4  A    between atoms: N_6  and  C_7 
REMARK    5  A    between atoms: C_16  and  O_17 
REMARK    6  A    between atoms: O_17  and  C_18 
ROOT
HETATM    1  N   UNL     1       6.344  25.709  55.761  1.00  0.00    -0.334 N 
HETATM    2  C   UNL     1       7.355  24.791  55.616  1.00  0.00     0.321 C 
HETATM    3  N   UNL     1       6.839  23.535  55.398  1.00  0.00    -0.307 N 
HETATM    4  O   UNL     1       8.540  25.095  55.627  1.00  0.00    -0.247 OA
HETATM    5  H   UNL     1       5.469  25.390  56.150  1.00  0.00     0.165 HD
HETATM    6  H   UNL     1       5.869  23.528  55.122  1.00  0.00     0.170 HD
ENDROOT
BRANCH   1   7
HETATM    7  C   UNL     1       6.595  27.134  55.895  1.00  0.00     0.122 C 
BRANCH   7   8
HETATM    8  C   UNL     1       6.678  27.619  57.358  1.00  0.00     0.026 C 
HETATM    9  C   UNL     1       7.958  28.348  57.744  1.00  0.00     0.007 C 
ENDBRANCH   7   8
BRANCH   7  10
HETATM   10  C   UNL     1       5.631  27.953  55.041  1.00  0.00    -0.002 A 
HETATM   11  C   UNL     1       5.482  27.792  53.647  1.00  0.00     0.077 A 
HETATM   12  C   UNL     1       4.585  28.607  52.943  1.00  0.00     0.037 A 
HETATM   13  C   UNL     1       3.817  29.561  53.611  1.00  0.00     0.003 A 
HETATM   14  C   UNL     1       3.939  29.714  54.987  1.00  0.00     0.001 A 
HETATM   15  C   UNL     1       4.837  28.917  55.695  1.00  0.00     0.012 A 
BRANCH  11  16
HETATM   16  O   UNL     1       6.276  26.848  53.040  1.00  0.00    -0.351 OA
BRANCH  16  17
HETATM   17  C   UNL     1       5.660  26.048  52.028  1.00  0.00     0.171 C 
HETATM   18  C   UNL     1       4.798  25.004  52.713  1.00  0.00     0.034 C 
ENDBRANCH  16  17
ENDBRANCH  11  16
ENDBRANCH   7  10
ENDBRANCH   1   7
BRANCH   3  19
HETATM   19  C   UNL     1       7.566  22.332  55.257  1.00  0.00     0.059 A 
HETATM   20  C   UNL     1       7.998  21.929  53.980  1.00  0.00    -0.032 A 
HETATM   21  C   UNL     1       7.751  22.751  52.746  1.00  0.00     0.050 C 
HETATM   22  C   UNL     1       8.707  20.725  53.857  1.00  0.00     0.028 A 
HETATM   23  C   UNL     1       8.952  19.967  54.990  1.00  0.00     0.117 A 
HETATM   24  N   UNL     1       8.547  20.319  56.223  1.00  0.00    -0.271 NA
HETATM   25  C   UNL     1       7.869  21.491  56.330  1.00  0.00     0.146 A 
ENDBRANCH   3  19
TORSDOF 6
ENDMDL
