MODEL 1
REMARK VINA RESULT:     -12.0      0.000      0.000
REMARK  7 active torsions:
REMARK  status: ('A' for Active; 'I' for Inactive)
REMARK    1  A    between atoms: C_2  and  C_3 
REMARK    2  A    between atoms: N_16  and  C_17 
REMARK    3  A    between atoms: C_17  and  C_18 
REMARK       I    between atoms: C_18  and  N_19 
REMARK    4  A    between atoms: N_19  and  C_20 
REMARK    5  A    between atoms: C_21  and  C_22 
REMARK       I    between atoms: C_22  and  N_23 
REMARK    6  A    between atoms: N_23  and  C_24 
REMARK    7  A    between atoms: C_24  and  C_25 
ROOT
HETATM    1  C   UNL     1       5.263  28.841  57.017  1.00  0.00     0.240 C 
ENDROOT
BRANCH   1   2
HETATM    2  N   UNL     1       5.744  28.226  55.805  1.00  0.00    -0.259 N 
HETATM    3  C   UNL     1       4.954  27.909  54.746  1.00  0.00     0.326 A 
HETATM    4  N   UNL     1       5.674  27.129  53.872  1.00  0.00    -0.321 N 
HETATM    5  O   UNL     1       3.773  28.177  54.601  1.00  0.00    -0.247 OA
HETATM    6  C   UNL     1       6.997  26.808  54.375  1.00  0.00     0.140 A 
HETATM    7  H   UNL     1       5.233  26.683  53.079  1.00  0.00     0.165 HD
HETATM    8  C   UNL     1       8.044  27.435  53.454  1.00  0.00     0.054 C 
HETATM    9  C   UNL     1       6.958  27.603  55.706  1.00  0.00     0.261 A 
HETATM   10  O   UNL     1       7.839  27.620  56.556  1.00  0.00    -0.270 OA
BRANCH   6  11
HETATM   11  C   UNL     1       7.133  25.310  54.655  1.00  0.00    -0.020 A 
HETATM   12  C   UNL     1       7.426  24.377  53.642  1.00  0.00     0.022 A 
HETATM   13  C   UNL     1       7.643  23.013  53.926  1.00  0.00    -0.025 A 
HETATM   14  C   UNL     1       7.560  22.560  55.259  1.00  0.00    -0.026 A 
HETATM   15  C   UNL     1       7.959  22.094  52.912  1.00  0.00     0.012 A 
HETATM   16  C   UNL     1       7.245  23.474  56.271  1.00  0.00     0.013 A 
HETATM   17  C   UNL     1       7.806  21.207  55.547  1.00  0.00     0.012 A 
HETATM   18  C   UNL     1       7.033  24.823  55.972  1.00  0.00     0.011 A 
HETATM   19  C   UNL     1       8.125  20.308  54.529  1.00  0.00     0.001 A 
HETATM   20  C   UNL     1       8.198  20.751  53.212  1.00  0.00     0.001 A 
ENDBRANCH   6  11
ENDBRANCH   1   2
BRANCH   1  21
HETATM   21  C   UNL     1       6.040  30.086  57.447  1.00  0.00     0.240 C 
HETATM   22  N   UNL     1       6.908  29.789  58.491  1.00  0.00    -0.325 N 
HETATM   23  H   UNL     1       6.633  29.015  59.085  1.00  0.00     0.169 HD
HETATM   24  O   UNL     1       5.857  31.207  56.979  1.00  0.00    -0.271 OA
BRANCH  22  25
HETATM   25  C   UNL     1       7.908  30.637  59.014  1.00  0.00     0.050 A 
HETATM   26  C   UNL     1       7.766  31.495  60.113  1.00  0.00     0.058 A 
HETATM   27  C   UNL     1       8.834  32.318  60.515  1.00  0.00     0.019 A 
HETATM   28  C   UNL     1      10.046  32.290  59.827  1.00  0.00     0.001 A 
HETATM   29  C   UNL     1      10.188  31.459  58.721  1.00  0.00     0.002 A 
HETATM   30  C   UNL     1       9.124  30.649  58.312  1.00  0.00     0.030 A 
BRANCH  26  31
HETATM   31  C   UNL     1       6.476  31.804  60.762  1.00  0.00     0.254 C 
HETATM   32  N   UNL     1       6.451  31.585  62.117  1.00  0.00    -0.351 N 
HETATM   33  H   UNL     1       7.005  30.789  62.424  1.00  0.00     0.163 HD
HETATM   34  O   UNL     1       5.573  32.306  60.107  1.00  0.00    -0.268 OA
BRANCH  32  35
HETATM   35  C   UNL     1       5.238  31.824  62.862  1.00  0.00     0.187 C 
BRANCH  35  36
HETATM   36  C   UNL     1       5.571  32.682  64.027  1.00  0.00     0.070 A 
HETATM   37  O   UNL     1       4.540  33.043  64.845  1.00  0.00    -0.325 OA
HETATM   38  C   UNL     1       5.069  33.801  65.839  1.00  0.00     0.142 A 
HETATM   39  C   UNL     1       6.427  33.934  65.675  1.00  0.00     0.027 A 
HETATM   40  C   UNL     1       6.754  33.215  64.501  1.00  0.00     0.036 A 
ENDBRANCH  35  36
ENDBRANCH  32  35
ENDBRANCH  26  31
ENDBRANCH  22  25
ENDBRANCH   1  21
TORSDOF 7
ENDMDL
MODEL 2
REMARK VINA RESULT:     -11.5      2.080      2.599
REMARK  7 active torsions:
REMARK  status: ('A' for Active; 'I' for Inactive)
REMARK    1  A    between atoms: C_2  and  C_3 
REMARK    2  A    between atoms: N_16  and  C_17 
REMARK    3  A    between atoms: C_17  and  C_18 
REMARK       I    between atoms: C_18  and  N_19 
REMARK    4  A    between atoms: N_19  and  C_20 
REMARK    5  A    between atoms: C_21  and  C_22 
REMARK       I    between atoms: C_22  and  N_23 
REMARK    6  A    between atoms: N_23  and  C_24 
REMARK    7  A    between atoms: C_24  and  C_25 
ROOT
HETATM    1  C   UNL     1       7.698  29.312  56.034  1.00  0.00     0.240 C 
ENDROOT
BRANCH   1   2
HETATM    2  N   UNL     1       6.752  28.335  55.557  1.00  0.00    -0.259 N 
HETATM    3  C   UNL     1       5.644  27.949  56.241  1.00  0.00     0.326 A 
HETATM    4  N   UNL     1       5.102  26.846  55.625  1.00  0.00    -0.321 N 
HETATM    5  O   UNL     1       5.219  28.421  57.283  1.00  0.00    -0.247 OA
HETATM    6  C   UNL     1       5.908  26.380  54.512  1.00  0.00     0.140 A 
HETATM    7  H   UNL     1       4.343  26.328  56.046  1.00  0.00     0.165 HD
HETATM    8  C   UNL     1       5.104  26.527  53.220  1.00  0.00     0.054 C 
HETATM    9  C   UNL     1       7.019  27.461  54.539  1.00  0.00     0.261 A 
HETATM   10  O   UNL     1       8.005  27.493  53.813  1.00  0.00    -0.270 OA
BRANCH   6  11
HETATM   11  C   UNL     1       6.503  25.000  54.801  1.00  0.00    -0.020 A 
HETATM   12  C   UNL     1       6.801  24.079  53.780  1.00  0.00     0.022 A 
HETATM   13  C   UNL     1       7.437  22.849  54.049  1.00  0.00    -0.025 A 
HETATM   14  C   UNL     1       7.782  22.521  55.377  1.00  0.00    -0.026 A 
HETATM   15  C   UNL     1       7.753  21.946  53.020  1.00  0.00     0.012 A 
HETATM   16  C   UNL     1       7.468  23.419  56.403  1.00  0.00     0.013 A 
HETATM   17  C   UNL     1       8.442  21.310  55.642  1.00  0.00     0.012 A 
HETATM   18  C   UNL     1       6.837  24.635  56.119  1.00  0.00     0.011 A 
HETATM   19  C   UNL     1       8.755  20.428  54.608  1.00  0.00     0.001 A 
HETATM   20  C   UNL     1       8.407  20.744  53.298  1.00  0.00     0.001 A 
ENDBRANCH   6  11
ENDBRANCH   1   2
BRANCH   1  21
HETATM   21  C   UNL     1       7.951  29.267  57.542  1.00  0.00     0.240 C 
HETATM   22  N   UNL     1       8.019  30.551  58.069  1.00  0.00    -0.325 N 
HETATM   23  H   UNL     1       8.326  31.274  57.427  1.00  0.00     0.169 HD
HETATM   24  O   UNL     1       8.144  28.234  58.176  1.00  0.00    -0.271 OA
BRANCH  22  25
HETATM   25  C   UNL     1       8.054  30.893  59.437  1.00  0.00     0.050 A 
HETATM   26  C   UNL     1       7.040  31.551  60.146  1.00  0.00     0.058 A 
HETATM   27  C   UNL     1       7.213  31.866  61.507  1.00  0.00     0.019 A 
HETATM   28  C   UNL     1       8.394  31.526  62.166  1.00  0.00     0.001 A 
HETATM   29  C   UNL     1       9.414  30.895  61.465  1.00  0.00     0.002 A 
HETATM   30  C   UNL     1       9.250  30.592  60.110  1.00  0.00     0.030 A 
BRANCH  26  31
HETATM   31  C   UNL     1       5.864  32.183  59.516  1.00  0.00     0.254 C 
HETATM   32  N   UNL     1       4.678  31.963  60.171  1.00  0.00    -0.351 N 
HETATM   33  H   UNL     1       4.600  31.045  60.602  1.00  0.00     0.163 HD
HETATM   34  O   UNL     1       6.016  32.914  58.547  1.00  0.00    -0.268 OA
BRANCH  32  35
HETATM   35  C   UNL     1       3.451  32.506  59.637  1.00  0.00     0.187 C 
BRANCH  35  36
HETATM   36  C   UNL     1       2.834  33.367  60.678  1.00  0.00     0.070 A 
HETATM   37  O   UNL     1       1.653  33.972  60.361  1.00  0.00    -0.325 OA
HETATM   38  C   UNL     1       1.268  34.686  61.450  1.00  0.00     0.142 A 
HETATM   39  C   UNL     1       2.185  34.550  62.465  1.00  0.00     0.027 A 
HETATM   40  C   UNL     1       3.201  33.701  61.967  1.00  0.00     0.036 A 
ENDBRANCH  35  36
ENDBRANCH  32  35
ENDBRANCH  26  31
ENDBRANCH  22  25
ENDBRANCH   1  21
TORSDOF 7
ENDMDL
MODEL 3
REMARK VINA RESULT:     -11.5      1.813      2.749
REMARK  7 active torsions:
REMARK  status: ('A' for Active; 'I' for Inactive)
REMARK    1  A    between atoms: C_2  and  C_3 
REMARK    2  A    between atoms: N_16  and  C_17 
REMARK    3  A    between atoms: C_17  and  C_18 
REMARK       I    between atoms: C_18  and  N_19 
REMARK    4  A    between atoms: N_19  and  C_20 
REMARK    5  A    between atoms: C_21  and  C_22 
REMARK       I    between atoms: C_22  and  N_23 
REMARK    6  A    between atoms: N_23  and  C_24 
REMARK    7  A    between atoms: C_24  and  C_25 
ROOT
HETATM    1  C   UNL     1       6.964  27.949  57.114  1.00  0.00     0.240 C 
ENDROOT
BRANCH   1   2
HETATM    2  N   UNL     1       6.258  27.133  56.159  1.00  0.00    -0.259 N 
HETATM    3  C   UNL     1       5.204  26.334  56.470  1.00  0.00     0.326 A 
HETATM    4  N   UNL     1       4.927  25.524  55.394  1.00  0.00    -0.321 N 
HETATM    5  O   UNL     1       4.630  26.256  57.543  1.00  0.00    -0.247 OA
HETATM    6  C   UNL     1       5.878  25.695  54.312  1.00  0.00     0.140 A 
HETATM    7  H   UNL     1       4.258  24.770  55.462  1.00  0.00     0.165 HD
HETATM    8  C   UNL     1       5.146  26.248  53.088  1.00  0.00     0.054 C 
HETATM    9  C   UNL     1       6.755  26.818  54.923  1.00  0.00     0.261 A 
HETATM   10  O   UNL     1       7.760  27.298  54.416  1.00  0.00    -0.270 OA
BRANCH   6  11
HETATM   11  C   UNL     1       6.710  24.427  54.103  1.00  0.00    -0.020 A 
HETATM   12  C   UNL     1       6.960  23.510  55.141  1.00  0.00     0.022 A 
HETATM   13  C   UNL     1       7.645  22.298  54.915  1.00  0.00    -0.025 A 
HETATM   14  C   UNL     1       8.102  21.991  53.617  1.00  0.00    -0.026 A 
HETATM   15  C   UNL     1       7.869  21.378  55.952  1.00  0.00     0.012 A 
HETATM   16  C   UNL     1       7.880  22.906  52.582  1.00  0.00     0.013 A 
HETATM   17  C   UNL     1       8.759  20.770  53.384  1.00  0.00     0.012 A 
HETATM   18  C   UNL     1       7.199  24.103  52.823  1.00  0.00     0.011 A 
HETATM   19  C   UNL     1       8.967  19.864  54.424  1.00  0.00     0.001 A 
HETATM   20  C   UNL     1       8.525  20.169  55.708  1.00  0.00     0.001 A 
ENDBRANCH   6  11
ENDBRANCH   1   2
BRANCH   1  21
HETATM   21  C   UNL     1       6.707  29.450  56.979  1.00  0.00     0.240 C 
HETATM   22  N   UNL     1       5.592  29.828  57.718  1.00  0.00    -0.325 N 
HETATM   23  H   UNL     1       4.894  29.106  57.860  1.00  0.00     0.169 HD
HETATM   24  O   UNL     1       7.356  30.197  56.252  1.00  0.00    -0.271 OA
BRANCH  22  25
HETATM   25  C   UNL     1       5.170  31.149  57.978  1.00  0.00     0.050 A 
HETATM   26  C   UNL     1       5.736  32.024  58.915  1.00  0.00     0.058 A 
HETATM   27  C   UNL     1       5.198  33.310  59.103  1.00  0.00     0.019 A 
HETATM   28  C   UNL     1       4.095  33.730  58.361  1.00  0.00     0.001 A 
HETATM   29  C   UNL     1       3.511  32.860  57.448  1.00  0.00     0.002 A 
HETATM   30  C   UNL     1       4.037  31.577  57.267  1.00  0.00     0.030 A 
BRANCH  26  31
HETATM   31  C   UNL     1       6.732  31.622  59.929  1.00  0.00     0.254 C 
HETATM   32  N   UNL     1       6.308  31.749  61.228  1.00  0.00    -0.351 N 
HETATM   33  H   UNL     1       5.697  32.545  61.393  1.00  0.00     0.163 HD
HETATM   34  O   UNL     1       7.793  31.127  59.573  1.00  0.00    -0.268 OA
BRANCH  32  35
HETATM   35  C   UNL     1       7.201  31.413  62.312  1.00  0.00     0.187 C 
BRANCH  35  36
HETATM   36  C   UNL     1       6.973  32.379  63.416  1.00  0.00     0.070 A 
HETATM   37  O   UNL     1       5.683  32.569  63.817  1.00  0.00    -0.325 OA
HETATM   38  C   UNL     1       5.711  33.468  64.834  1.00  0.00     0.142 A 
HETATM   39  C   UNL     1       7.002  33.860  65.096  1.00  0.00     0.027 A 
HETATM   40  C   UNL     1       7.820  33.161  64.177  1.00  0.00     0.036 A 
ENDBRANCH  35  36
ENDBRANCH  32  35
ENDBRANCH  26  31
ENDBRANCH  22  25
ENDBRANCH   1  21
TORSDOF 7
ENDMDL
MODEL 4
REMARK VINA RESULT:     -11.4      2.071      3.926
REMARK  7 active torsions:
REMARK  status: ('A' for Active; 'I' for Inactive)
REMARK    1  A    between atoms: C_2  and  C_3 
REMARK    2  A    between atoms: N_16  and  C_17 
REMARK    3  A    between atoms: C_17  and  C_18 
REMARK       I    between atoms: C_18  and  N_19 
REMARK    4  A    between atoms: N_19  and  C_20 
REMARK    5  A    between atoms: C_21  and  C_22 
REMARK       I    between atoms: C_22  and  N_23 
REMARK    6  A    between atoms: N_23  and  C_24 
REMARK    7  A    between atoms: C_24  and  C_25 
ROOT
HETATM    1  C   UNL     1       7.494  29.600  56.234  1.00  0.00     0.240 C 
ENDROOT
BRANCH   1   2
HETATM    2  N   UNL     1       6.557  28.628  55.731  1.00  0.00    -0.259 N 
HETATM    3  C   UNL     1       5.449  28.218  56.402  1.00  0.00     0.326 A 
HETATM    4  N   UNL     1       4.918  27.126  55.758  1.00  0.00    -0.321 N 
HETATM    5  O   UNL     1       5.018  28.662  57.452  1.00  0.00    -0.247 OA
HETATM    6  C   UNL     1       5.731  26.692  54.637  1.00  0.00     0.140 A 
HETATM    7  H   UNL     1       4.161  26.593  56.164  1.00  0.00     0.165 HD
HETATM    8  C   UNL     1       4.930  26.863  53.346  1.00  0.00     0.054 C 
HETATM    9  C   UNL     1       6.834  27.780  54.693  1.00  0.00     0.261 A 
HETATM   10  O   UNL     1       7.822  27.836  53.971  1.00  0.00    -0.270 OA
BRANCH   6  11
HETATM   11  C   UNL     1       6.335  25.309  54.897  1.00  0.00    -0.020 A 
HETATM   12  C   UNL     1       6.657  24.420  53.854  1.00  0.00     0.022 A 
HETATM   13  C   UNL     1       7.300  23.189  54.098  1.00  0.00    -0.025 A 
HETATM   14  C   UNL     1       7.629  22.828  55.421  1.00  0.00    -0.026 A 
HETATM   15  C   UNL     1       7.640  22.319  53.049  1.00  0.00     0.012 A 
HETATM   16  C   UNL     1       7.291  23.693  56.467  1.00  0.00     0.013 A 
HETATM   17  C   UNL     1       8.297  21.615  55.662  1.00  0.00     0.012 A 
HETATM   18  C   UNL     1       6.653  24.910  56.208  1.00  0.00     0.011 A 
HETATM   19  C   UNL     1       8.634  20.766  54.609  1.00  0.00     0.001 A 
HETATM   20  C   UNL     1       8.302  21.115  53.303  1.00  0.00     0.001 A 
ENDBRANCH   6  11
ENDBRANCH   1   2
BRANCH   1  21
HETATM   21  C   UNL     1       7.810  29.466  57.724  1.00  0.00     0.240 C 
HETATM   22  N   UNL     1       7.883  30.716  58.327  1.00  0.00    -0.325 N 
HETATM   23  H   UNL     1       8.153  31.482  57.719  1.00  0.00     0.169 HD
HETATM   24  O   UNL     1       8.042  28.398  58.284  1.00  0.00    -0.271 OA
BRANCH  22  25
HETATM   25  C   UNL     1       7.970  30.972  59.711  1.00  0.00     0.050 A 
HETATM   26  C   UNL     1       6.978  31.571  60.500  1.00  0.00     0.058 A 
HETATM   27  C   UNL     1       7.202  31.803  61.870  1.00  0.00     0.019 A 
HETATM   28  C   UNL     1       8.413  31.441  62.459  1.00  0.00     0.001 A 
HETATM   29  C   UNL     1       9.412  30.870  61.679  1.00  0.00     0.002 A 
HETATM   30  C   UNL     1       9.195  30.648  60.315  1.00  0.00     0.030 A 
BRANCH  26  31
HETATM   31  C   UNL     1       5.769  32.223  59.959  1.00  0.00     0.254 C 
HETATM   32  N   UNL     1       4.900  31.374  59.319  1.00  0.00    -0.351 N 
HETATM   33  H   UNL     1       5.351  30.619  58.808  1.00  0.00     0.163 HD
HETATM   34  O   UNL     1       5.567  33.408  60.184  1.00  0.00    -0.268 OA
BRANCH  32  35
HETATM   35  C   UNL     1       3.693  31.897  58.722  1.00  0.00     0.187 C 
BRANCH  35  36
HETATM   36  C   UNL     1       3.802  31.745  57.249  1.00  0.00     0.070 A 
HETATM   37  O   UNL     1       2.730  31.203  56.602  1.00  0.00    -0.325 OA
HETATM   38  C   UNL     1       3.037  31.174  55.280  1.00  0.00     0.142 A 
HETATM   39  C   UNL     1       4.293  31.691  55.064  1.00  0.00     0.027 A 
HETATM   40  C   UNL     1       4.791  32.056  56.337  1.00  0.00     0.036 A 
ENDBRANCH  35  36
ENDBRANCH  32  35
ENDBRANCH  26  31
ENDBRANCH  22  25
ENDBRANCH   1  21
TORSDOF 7
ENDMDL
MODEL 5
REMARK VINA RESULT:     -11.0      2.411      3.662
REMARK  7 active torsions:
REMARK  status: ('A' for Active; 'I' for Inactive)
REMARK    1  A    between atoms: C_2  and  C_3 
REMARK    2  A    between atoms: N_16  and  C_17 
REMARK    3  A    between atoms: C_17  and  C_18 
REMARK       I    between atoms: C_18  and  N_19 
REMARK    4  A    between atoms: N_19  and  C_20 
REMARK    5  A    between atoms: C_21  and  C_22 
REMARK       I    between atoms: C_22  and  N_23 
REMARK    6  A    between atoms: N_23  and  C_24 
REMARK    7  A    between atoms: C_24  and  C_25 
ROOT
HETATM    1  C   UNL     1       9.742  29.073  57.068  1.00  0.00     0.240 C 
ENDROOT
BRANCH   1   2
HETATM    2  N   UNL     1       8.511  28.503  56.579  1.00  0.00    -0.259 N 
HETATM    3  C   UNL     1       7.627  27.820  57.352  1.00  0.00     0.326 A 
HETATM    4  N   UNL     1       6.699  27.215  56.538  1.00  0.00    -0.321 N 
HETATM    5  O   UNL     1       7.668  27.670  58.561  1.00  0.00    -0.247 OA
HETATM    6  C   UNL     1       6.988  27.406  55.129  1.00  0.00     0.140 A 
HETATM    7  H   UNL     1       6.025  26.558  56.906  1.00  0.00     0.165 HD
HETATM    8  C   UNL     1       5.860  28.222  54.495  1.00  0.00     0.054 C 
HETATM    9  C   UNL     1       8.248  28.302  55.251  1.00  0.00     0.261 A 
HETATM   10  O   UNL     1       8.932  28.708  54.320  1.00  0.00    -0.270 OA
BRANCH   6  11
HETATM   11  C   UNL     1       7.344  26.079  54.454  1.00  0.00    -0.020 A 
HETATM   12  C   UNL     1       7.423  24.869  55.167  1.00  0.00     0.022 A 
HETATM   13  C   UNL     1       7.657  23.637  54.521  1.00  0.00    -0.025 A 
HETATM   14  C   UNL     1       7.823  23.609  53.120  1.00  0.00    -0.026 A 
HETATM   15  C   UNL     1       7.711  22.431  55.238  1.00  0.00     0.012 A 
HETATM   16  C   UNL     1       7.770  24.810  52.404  1.00  0.00     0.013 A 
HETATM   17  C   UNL     1       8.026  22.379  52.471  1.00  0.00     0.012 A 
HETATM   18  C   UNL     1       7.537  26.022  53.061  1.00  0.00     0.011 A 
HETATM   19  C   UNL     1       8.069  21.190  53.198  1.00  0.00     0.001 A 
HETATM   20  C   UNL     1       7.916  21.215  54.581  1.00  0.00     0.001 A 
ENDBRANCH   6  11
ENDBRANCH   1   2
BRANCH   1  21
HETATM   21  C   UNL     1       9.562  30.308  57.951  1.00  0.00     0.240 C 
HETATM   22  N   UNL     1       8.649  30.058  58.968  1.00  0.00    -0.325 N 
HETATM   23  H   UNL     1       7.947  29.354  58.765  1.00  0.00     0.169 HD
HETATM   24  O   UNL     1      10.099  31.391  57.736  1.00  0.00    -0.271 OA
BRANCH  22  25
HETATM   25  C   UNL     1       8.377  30.894  60.071  1.00  0.00     0.050 A 
HETATM   26  C   UNL     1       7.230  31.681  60.244  1.00  0.00     0.058 A 
HETATM   27  C   UNL     1       7.094  32.500  61.379  1.00  0.00     0.019 A 
HETATM   28  C   UNL     1       8.097  32.541  62.346  1.00  0.00     0.001 A 
HETATM   29  C   UNL     1       9.249  31.782  62.172  1.00  0.00     0.002 A 
HETATM   30  C   UNL     1       9.392  30.975  61.039  1.00  0.00     0.030 A 
BRANCH  26  31
HETATM   31  C   UNL     1       6.224  31.921  59.190  1.00  0.00     0.254 C 
HETATM   32  N   UNL     1       4.925  31.947  59.634  1.00  0.00    -0.351 N 
HETATM   33  H   UNL     1       4.730  31.302  60.395  1.00  0.00     0.163 HD
HETATM   34  O   UNL     1       6.590  32.171  58.049  1.00  0.00    -0.268 OA
BRANCH  32  35
HETATM   35  C   UNL     1       3.848  32.147  58.694  1.00  0.00     0.187 C 
BRANCH  35  36
HETATM   36  C   UNL     1       3.439  33.573  58.754  1.00  0.00     0.070 A 
HETATM   37  O   UNL     1       2.315  33.866  59.468  1.00  0.00    -0.325 OA
HETATM   38  C   UNL     1       2.141  35.211  59.403  1.00  0.00     0.142 A 
HETATM   39  C   UNL     1       3.139  35.791  58.656  1.00  0.00     0.027 A 
HETATM   40  C   UNL     1       3.978  34.733  58.231  1.00  0.00     0.036 A 
ENDBRANCH  35  36
ENDBRANCH  32  35
ENDBRANCH  26  31
ENDBRANCH  22  25
ENDBRANCH   1  21
TORSDOF 7
ENDMDL
MODEL 6
REMARK VINA RESULT:     -10.8      2.001      3.542
REMARK  7 active torsions:
REMARK  status: ('A' for Active; 'I' for Inactive)
REMARK    1  A    between atoms: C_2  and  C_3 
REMARK    2  A    between atoms: N_16  and  C_17 
REMARK    3  A    between atoms: C_17  and  C_18 
REMARK       I    between atoms: C_18  and  N_19 
REMARK    4  A    between atoms: N_19  and  C_20 
REMARK    5  A    between atoms: C_21  and  C_22 
REMARK       I    between atoms: C_22  and  N_23 
REMARK    6  A    between atoms: N_23  and  C_24 
REMARK    7  A    between atoms: C_24  and  C_25 
ROOT
HETATM    1  C   UNL     1       4.551  27.721  54.430  1.00  0.00     0.240 C 
ENDROOT
BRANCH   1   2
HETATM    2  N   UNL     1       5.788  27.353  55.073  1.00  0.00    -0.259 N 
HETATM    3  C   UNL     1       7.019  27.624  54.569  1.00  0.00     0.326 A 
HETATM    4  N   UNL     1       7.960  26.933  55.296  1.00  0.00    -0.321 N 
HETATM    5  O   UNL     1       7.281  28.291  53.582  1.00  0.00    -0.247 OA
HETATM    6  C   UNL     1       7.362  26.072  56.299  1.00  0.00     0.140 A 
HETATM    7  H   UNL     1       8.928  26.900  55.007  1.00  0.00     0.165 HD
HETATM    8  C   UNL     1       7.784  26.558  57.687  1.00  0.00     0.054 C 
HETATM    9  C   UNL     1       5.870  26.424  56.075  1.00  0.00     0.261 A 
HETATM   10  O   UNL     1       4.918  25.912  56.651  1.00  0.00    -0.270 OA
BRANCH   6  11
HETATM   11  C   UNL     1       7.614  24.596  55.979  1.00  0.00    -0.020 A 
HETATM   12  C   UNL     1       7.502  24.078  54.675  1.00  0.00     0.022 A 
HETATM   13  C   UNL     1       7.829  22.740  54.376  1.00  0.00    -0.025 A 
HETATM   14  C   UNL     1       8.274  21.886  55.407  1.00  0.00    -0.026 A 
HETATM   15  C   UNL     1       7.738  22.237  53.067  1.00  0.00     0.012 A 
HETATM   16  C   UNL     1       8.365  22.384  56.711  1.00  0.00     0.013 A 
HETATM   17  C   UNL     1       8.628  20.560  55.104  1.00  0.00     0.012 A 
HETATM   18  C   UNL     1       8.038  23.714  56.991  1.00  0.00     0.011 A 
HETATM   19  C   UNL     1       8.539  20.080  53.798  1.00  0.00     0.001 A 
HETATM   20  C   UNL     1       8.091  20.917  52.780  1.00  0.00     0.001 A 
ENDBRANCH   6  11
ENDBRANCH   1   2
BRANCH   1  21
HETATM   21  C   UNL     1       4.203  29.207  54.528  1.00  0.00     0.240 C 
HETATM   22  N   UNL     1       4.314  29.654  55.839  1.00  0.00    -0.325 N 
HETATM   23  H   UNL     1       4.168  28.952  56.556  1.00  0.00     0.169 HD
HETATM   24  O   UNL     1       3.807  29.884  53.583  1.00  0.00    -0.271 OA
BRANCH  22  25
HETATM   25  C   UNL     1       4.252  30.995  56.274  1.00  0.00     0.050 A 
HETATM   26  C   UNL     1       5.193  31.639  57.089  1.00  0.00     0.058 A 
HETATM   27  C   UNL     1       4.998  32.976  57.480  1.00  0.00     0.019 A 
HETATM   28  C   UNL     1       3.866  33.676  57.064  1.00  0.00     0.001 A 
HETATM   29  C   UNL     1       2.915  33.038  56.276  1.00  0.00     0.002 A 
HETATM   30  C   UNL     1       3.102  31.706  55.895  1.00  0.00     0.030 A 
BRANCH  26  31
HETATM   31  C   UNL     1       6.289  30.947  57.796  1.00  0.00     0.254 C 
HETATM   32  N   UNL     1       6.770  31.612  58.896  1.00  0.00    -0.351 N 
HETATM   33  H   UNL     1       6.775  32.625  58.804  1.00  0.00     0.163 HD
HETATM   34  O   UNL     1       6.627  29.826  57.440  1.00  0.00    -0.268 OA
BRANCH  32  35
HETATM   35  C   UNL     1       7.861  31.050  59.656  1.00  0.00     0.187 C 
BRANCH  35  36
HETATM   36  C   UNL     1       7.799  31.602  61.033  1.00  0.00     0.070 A 
HETATM   37  O   UNL     1       6.559  31.852  61.545  1.00  0.00    -0.325 OA
HETATM   38  C   UNL     1       6.738  32.329  62.804  1.00  0.00     0.142 A 
HETATM   39  C   UNL     1       8.077  32.391  63.111  1.00  0.00     0.027 A 
HETATM   40  C   UNL     1       8.765  31.925  61.966  1.00  0.00     0.036 A 
ENDBRANCH  35  36
ENDBRANCH  32  35
ENDBRANCH  26  31
ENDBRANCH  22  25
ENDBRANCH   1  21
TORSDOF 7
ENDMDL
MODEL 7
REMARK VINA RESULT:     -10.8      1.957     10.916
REMARK  7 active torsions:
REMARK  status: ('A' for Active; 'I' for Inactive)
REMARK    1  A    between atoms: C_2  and  C_3 
REMARK    2  A    between atoms: N_16  and  C_17 
REMARK    3  A    between atoms: C_17  and  C_18 
REMARK       I    between atoms: C_18  and  N_19 
REMARK    4  A    between atoms: N_19  and  C_20 
REMARK    5  A    between atoms: C_21  and  C_22 
REMARK       I    between atoms: C_22  and  N_23 
REMARK    6  A    between atoms: N_23  and  C_24 
REMARK    7  A    between atoms: C_24  and  C_25 
ROOT
HETATM    1  C   UNL     1       5.910  29.585  56.754  1.00  0.00     0.240 C 
ENDROOT
BRANCH   1   2
HETATM    2  N   UNL     1       6.912  30.005  57.701  1.00  0.00    -0.259 N 
HETATM    3  C   UNL     1       7.632  29.155  58.478  1.00  0.00     0.326 A 
HETATM    4  N   UNL     1       8.312  29.885  59.424  1.00  0.00    -0.321 N 
HETATM    5  O   UNL     1       7.630  27.936  58.434  1.00  0.00    -0.247 OA
HETATM    6  C   UNL     1       7.994  31.299  59.368  1.00  0.00     0.140 A 
HETATM    7  H   UNL     1       8.810  29.433  60.179  1.00  0.00     0.165 HD
HETATM    8  C   UNL     1       9.254  32.079  58.991  1.00  0.00     0.054 C 
HETATM    9  C   UNL     1       7.027  31.290  58.157  1.00  0.00     0.261 A 
HETATM   10  O   UNL     1       6.417  32.258  57.720  1.00  0.00    -0.270 OA
BRANCH   6  11
HETATM   11  C   UNL     1       7.257  31.749  60.632  1.00  0.00    -0.020 A 
HETATM   12  C   UNL     1       7.936  32.129  61.805  1.00  0.00     0.022 A 
HETATM   13  C   UNL     1       7.253  32.632  62.931  1.00  0.00    -0.025 A 
HETATM   14  C   UNL     1       5.848  32.756  62.893  1.00  0.00    -0.026 A 
HETATM   15  C   UNL     1       7.941  33.032  64.089  1.00  0.00     0.012 A 
HETATM   16  C   UNL     1       5.161  32.358  61.741  1.00  0.00     0.013 A 
HETATM   17  C   UNL     1       5.169  33.285  64.003  1.00  0.00     0.012 A 
HETATM   18  C   UNL     1       5.854  31.861  60.633  1.00  0.00     0.011 A 
HETATM   19  C   UNL     1       5.868  33.685  65.142  1.00  0.00     0.001 A 
HETATM   20  C   UNL     1       7.253  33.555  65.187  1.00  0.00     0.001 A 
ENDBRANCH   6  11
ENDBRANCH   1   2
BRANCH   1  21
HETATM   21  C   UNL     1       6.464  28.882  55.513  1.00  0.00     0.240 C 
HETATM   22  N   UNL     1       5.482  28.112  54.903  1.00  0.00    -0.325 N 
HETATM   23  H   UNL     1       4.750  27.768  55.515  1.00  0.00     0.169 HD
HETATM   24  O   UNL     1       7.639  28.937  55.159  1.00  0.00    -0.271 OA
BRANCH  22  25
HETATM   25  C   UNL     1       5.576  27.480  53.645  1.00  0.00     0.050 A 
HETATM   26  C   UNL     1       5.997  26.162  53.417  1.00  0.00     0.058 A 
HETATM   27  C   UNL     1       6.079  25.659  52.106  1.00  0.00     0.019 A 
HETATM   28  C   UNL     1       5.746  26.465  51.018  1.00  0.00     0.001 A 
HETATM   29  C   UNL     1       5.352  27.780  51.233  1.00  0.00     0.002 A 
HETATM   30  C   UNL     1       5.279  28.286  52.534  1.00  0.00     0.030 A 
BRANCH  26  31
HETATM   31  C   UNL     1       6.612  25.299  54.445  1.00  0.00     0.254 C 
HETATM   32  N   UNL     1       7.709  24.594  54.017  1.00  0.00    -0.351 N 
HETATM   33  H   UNL     1       7.660  24.288  53.049  1.00  0.00     0.163 HD
HETATM   34  O   UNL     1       6.190  25.330  55.593  1.00  0.00    -0.268 OA
BRANCH  32  35
HETATM   35  C   UNL     1       8.383  23.694  54.923  1.00  0.00     0.187 C 
BRANCH  35  36
HETATM   36  C   UNL     1       8.380  22.339  54.316  1.00  0.00     0.070 A 
HETATM   37  O   UNL     1       8.752  21.300  55.118  1.00  0.00    -0.325 OA
HETATM   38  C   UNL     1       8.661  20.169  54.372  1.00  0.00     0.142 A 
HETATM   39  C   UNL     1       8.235  20.464  53.099  1.00  0.00     0.027 A 
HETATM   40  C   UNL     1       8.056  21.867  53.059  1.00  0.00     0.036 A 
ENDBRANCH  35  36
ENDBRANCH  32  35
ENDBRANCH  26  31
ENDBRANCH  22  25
ENDBRANCH   1  21
TORSDOF 7
ENDMDL
MODEL 8
REMARK VINA RESULT:     -10.7      2.149      4.443
REMARK  7 active torsions:
REMARK  status: ('A' for Active; 'I' for Inactive)
REMARK    1  A    between atoms: C_2  and  C_3 
REMARK    2  A    between atoms: N_16  and  C_17 
REMARK    3  A    between atoms: C_17  and  C_18 
REMARK       I    between atoms: C_18  and  N_19 
REMARK    4  A    between atoms: N_19  and  C_20 
REMARK    5  A    between atoms: C_21  and  C_22 
REMARK       I    between atoms: C_22  and  N_23 
REMARK    6  A    between atoms: N_23  and  C_24 
REMARK    7  A    between atoms: C_24  and  C_25 
ROOT
HETATM    1  C   UNL     1       6.416  29.170  56.743  1.00  0.00     0.240 C 
ENDROOT
BRANCH   1   2
HETATM    2  N   UNL     1       5.950  28.571  55.518  1.00  0.00    -0.259 N 
HETATM    3  C   UNL     1       4.734  27.983  55.371  1.00  0.00     0.326 A 
HETATM    4  N   UNL     1       4.707  27.311  54.172  1.00  0.00    -0.321 N 
HETATM    5  O   UNL     1       3.824  27.957  56.183  1.00  0.00    -0.247 OA
HETATM    6  C   UNL     1       5.984  27.353  53.484  1.00  0.00     0.140 A 
HETATM    7  H   UNL     1       3.937  26.704  53.926  1.00  0.00     0.165 HD
HETATM    8  C   UNL     1       5.815  28.115  52.168  1.00  0.00     0.054 C 
HETATM    9  C   UNL     1       6.776  28.238  54.479  1.00  0.00     0.261 A 
HETATM   10  O   UNL     1       7.960  28.537  54.387  1.00  0.00    -0.270 OA
BRANCH   6  11
HETATM   11  C   UNL     1       6.609  25.958  53.398  1.00  0.00    -0.020 A 
HETATM   12  C   UNL     1       6.715  25.110  54.516  1.00  0.00     0.022 A 
HETATM   13  C   UNL     1       7.206  23.793  54.407  1.00  0.00    -0.025 A 
HETATM   14  C   UNL     1       7.610  23.304  53.147  1.00  0.00    -0.026 A 
HETATM   15  C   UNL     1       7.286  22.945  55.524  1.00  0.00     0.012 A 
HETATM   16  C   UNL     1       7.531  24.147  52.033  1.00  0.00     0.013 A 
HETATM   17  C   UNL     1       8.070  21.982  53.032  1.00  0.00     0.012 A 
HETATM   18  C   UNL     1       7.043  25.451  52.159  1.00  0.00     0.011 A 
HETATM   19  C   UNL     1       8.136  21.150  54.150  1.00  0.00     0.001 A 
HETATM   20  C   UNL     1       7.748  21.632  55.397  1.00  0.00     0.001 A 
ENDBRANCH   6  11
ENDBRANCH   1   2
BRANCH   1  21
HETATM   21  C   UNL     1       5.765  30.512  57.081  1.00  0.00     0.240 C 
HETATM   22  N   UNL     1       5.465  30.587  58.436  1.00  0.00    -0.325 N 
HETATM   23  H   UNL     1       5.296  29.700  58.899  1.00  0.00     0.169 HD
HETATM   24  O   UNL     1       5.480  31.368  56.248  1.00  0.00    -0.271 OA
BRANCH  22  25
HETATM   25  C   UNL     1       5.034  31.734  59.135  1.00  0.00     0.050 A 
HETATM   26  C   UNL     1       5.841  32.571  59.919  1.00  0.00     0.058 A 
HETATM   27  C   UNL     1       5.280  33.670  60.595  1.00  0.00     0.019 A 
HETATM   28  C   UNL     1       3.916  33.940  60.494  1.00  0.00     0.001 A 
HETATM   29  C   UNL     1       3.104  33.102  59.739  1.00  0.00     0.002 A 
HETATM   30  C   UNL     1       3.657  32.003  59.075  1.00  0.00     0.030 A 
BRANCH  26  31
HETATM   31  C   UNL     1       7.230  32.255  60.309  1.00  0.00     0.254 C 
HETATM   32  N   UNL     1       8.100  32.109  59.258  1.00  0.00    -0.351 N 
HETATM   33  H   UNL     1       7.689  31.686  58.429  1.00  0.00     0.163 HD
HETATM   34  O   UNL     1       7.537  32.240  61.493  1.00  0.00    -0.268 OA
BRANCH  32  35
HETATM   35  C   UNL     1       9.481  31.773  59.509  1.00  0.00     0.187 C 
BRANCH  35  36
HETATM   36  C   UNL     1       9.924  30.821  58.460  1.00  0.00     0.070 A 
HETATM   37  O   UNL     1       9.174  29.694  58.288  1.00  0.00    -0.325 OA
HETATM   38  C   UNL     1       9.744  28.986  57.280  1.00  0.00     0.142 A 
HETATM   39  C   UNL     1      10.853  29.641  56.798  1.00  0.00     0.027 A 
HETATM   40  C   UNL     1      10.974  30.825  57.562  1.00  0.00     0.036 A 
ENDBRANCH  35  36
ENDBRANCH  32  35
ENDBRANCH  26  31
ENDBRANCH  22  25
ENDBRANCH   1  21
TORSDOF 7
ENDMDL
MODEL 9
REMARK VINA RESULT:     -10.7      2.039      2.567
REMARK  7 active torsions:
REMARK  status: ('A' for Active; 'I' for Inactive)
REMARK    1  A    between atoms: C_2  and  C_3 
REMARK    2  A    between atoms: N_16  and  C_17 
REMARK    3  A    between atoms: C_17  and  C_18 
REMARK       I    between atoms: C_18  and  N_19 
REMARK    4  A    between atoms: N_19  and  C_20 
REMARK    5  A    between atoms: C_21  and  C_22 
REMARK       I    between atoms: C_22  and  N_23 
REMARK    6  A    between atoms: N_23  and  C_24 
REMARK    7  A    between atoms: C_24  and  C_25 
ROOT
HETATM    1  C   UNL     1       6.140  28.991  57.712  1.00  0.00     0.240 C 
ENDROOT
BRANCH   1   2
HETATM    2  N   UNL     1       6.216  28.383  56.407  1.00  0.00    -0.259 N 
HETATM    3  C   UNL     1       5.137  28.114  55.627  1.00  0.00     0.326 A 
HETATM    4  N   UNL     1       5.535  27.327  54.572  1.00  0.00    -0.321 N 
HETATM    5  O   UNL     1       3.977  28.425  55.841  1.00  0.00    -0.247 OA
HETATM    6  C   UNL     1       6.934  26.952  54.657  1.00  0.00     0.140 A 
HETATM    7  H   UNL     1       4.862  26.913  53.942  1.00  0.00     0.165 HD
HETATM    8  C   UNL     1       7.685  27.561  53.472  1.00  0.00     0.054 C 
HETATM    9  C   UNL     1       7.322  27.721  55.946  1.00  0.00     0.261 A 
HETATM   10  O   UNL     1       8.415  27.691  56.497  1.00  0.00    -0.270 OA
BRANCH   6  11
HETATM   11  C   UNL     1       7.089  25.444  54.871  1.00  0.00    -0.020 A 
HETATM   12  C   UNL     1       7.318  24.552  53.807  1.00  0.00     0.022 A 
HETATM   13  C   UNL     1       7.554  23.179  54.025  1.00  0.00    -0.025 A 
HETATM   14  C   UNL     1       7.556  22.675  55.343  1.00  0.00    -0.026 A 
HETATM   15  C   UNL     1       7.806  22.299  52.959  1.00  0.00     0.012 A 
HETATM   16  C   UNL     1       7.305  23.550  56.406  1.00  0.00     0.013 A 
HETATM   17  C   UNL     1       7.821  21.313  55.564  1.00  0.00     0.012 A 
HETATM   18  C   UNL     1       7.073  24.909  56.172  1.00  0.00     0.011 A 
HETATM   19  C   UNL     1       8.077  20.455  54.494  1.00  0.00     0.001 A 
HETATM   20  C   UNL     1       8.066  20.947  53.192  1.00  0.00     0.001 A 
ENDBRANCH   6  11
ENDBRANCH   1   2
BRANCH   1  21
HETATM   21  C   UNL     1       6.286  30.513  57.712  1.00  0.00     0.240 C 
HETATM   22  N   UNL     1       5.127  31.119  57.241  1.00  0.00    -0.325 N 
HETATM   23  H   UNL     1       4.574  30.565  56.596  1.00  0.00     0.169 HD
HETATM   24  O   UNL     1       7.317  31.105  58.017  1.00  0.00    -0.271 OA
BRANCH  22  25
HETATM   25  C   UNL     1       4.832  32.497  57.275  1.00  0.00     0.050 A 
HETATM   26  C   UNL     1       4.352  33.208  58.384  1.00  0.00     0.058 A 
HETATM   27  C   UNL     1       4.063  34.581  58.278  1.00  0.00     0.019 A 
HETATM   28  C   UNL     1       4.248  35.251  57.070  1.00  0.00     0.001 A 
HETATM   29  C   UNL     1       4.699  34.549  55.958  1.00  0.00     0.002 A 
HETATM   30  C   UNL     1       4.977  33.183  56.058  1.00  0.00     0.030 A 
BRANCH  26  31
HETATM   31  C   UNL     1       3.879  32.576  59.632  1.00  0.00     0.254 C 
HETATM   32  N   UNL     1       4.384  33.131  60.781  1.00  0.00    -0.351 N 
HETATM   33  H   UNL     1       5.343  33.460  60.702  1.00  0.00     0.163 HD
HETATM   34  O   UNL     1       3.027  31.699  59.581  1.00  0.00    -0.268 OA
BRANCH  32  35
HETATM   35  C   UNL     1       4.017  32.583  62.066  1.00  0.00     0.187 C 
BRANCH  35  36
HETATM   36  C   UNL     1       5.086  32.924  63.038  1.00  0.00     0.070 A 
HETATM   37  O   UNL     1       4.710  33.096  64.338  1.00  0.00    -0.325 OA
HETATM   38  C   UNL     1       5.835  33.380  65.043  1.00  0.00     0.142 A 
HETATM   39  C   UNL     1       6.933  33.394  64.215  1.00  0.00     0.027 A 
HETATM   40  C   UNL     1       6.450  33.104  62.917  1.00  0.00     0.036 A 
ENDBRANCH  35  36
ENDBRANCH  32  35
ENDBRANCH  26  31
ENDBRANCH  22  25
ENDBRANCH   1  21
TORSDOF 7
ENDMDL
MODEL 10
REMARK VINA RESULT:     -10.6      5.020      9.184
REMARK  7 active torsions:
REMARK  status: ('A' for Active; 'I' for Inactive)
REMARK    1  A    between atoms: C_2  and  C_3 
REMARK    2  A    between atoms: N_16  and  C_17 
REMARK    3  A    between atoms: C_17  and  C_18 
REMARK       I    between atoms: C_18  and  N_19 
REMARK    4  A    between atoms: N_19  and  C_20 
REMARK    5  A    between atoms: C_21  and  C_22 
REMARK       I    between atoms: C_22  and  N_23 
REMARK    6  A    between atoms: N_23  and  C_24 
REMARK    7  A    between atoms: C_24  and  C_25 
ROOT
HETATM    1  C   UNL     1       5.756  29.389  55.144  1.00  0.00     0.240 C 
ENDROOT
BRANCH   1   2
HETATM    2  N   UNL     1       6.600  28.424  55.802  1.00  0.00    -0.259 N 
HETATM    3  C   UNL     1       7.953  28.522  55.881  1.00  0.00     0.326 A 
HETATM    4  N   UNL     1       8.458  27.334  56.355  1.00  0.00    -0.321 N 
HETATM    5  O   UNL     1       8.647  29.456  55.517  1.00  0.00    -0.247 OA
HETATM    6  C   UNL     1       7.429  26.327  56.536  1.00  0.00     0.140 A 
HETATM    7  H   UNL     1       9.452  27.154  56.371  1.00  0.00     0.165 HD
HETATM    8  C   UNL     1       7.331  25.977  58.021  1.00  0.00     0.054 C 
HETATM    9  C   UNL     1       6.187  27.162  56.133  1.00  0.00     0.261 A 
HETATM   10  O   UNL     1       5.037  26.747  56.061  1.00  0.00    -0.270 OA
BRANCH   6  11
HETATM   11  C   UNL     1       7.622  25.160  55.564  1.00  0.00    -0.020 A 
HETATM   12  C   UNL     1       7.745  23.828  56.000  1.00  0.00     0.022 A 
HETATM   13  C   UNL     1       7.827  22.752  55.093  1.00  0.00    -0.025 A 
HETATM   14  C   UNL     1       7.791  23.008  53.706  1.00  0.00    -0.026 A 
HETATM   15  C   UNL     1       7.925  21.423  55.537  1.00  0.00     0.012 A 
HETATM   16  C   UNL     1       7.694  24.331  53.261  1.00  0.00     0.013 A 
HETATM   17  C   UNL     1       7.842  21.935  52.801  1.00  0.00     0.012 A 
HETATM   18  C   UNL     1       7.613  25.387  54.174  1.00  0.00     0.011 A 
HETATM   19  C   UNL     1       7.932  20.621  53.259  1.00  0.00     0.001 A 
HETATM   20  C   UNL     1       7.977  20.364  54.627  1.00  0.00     0.001 A 
ENDBRANCH   6  11
ENDBRANCH   1   2
BRANCH   1  21
HETATM   21  C   UNL     1       4.981  28.841  53.945  1.00  0.00     0.240 C 
HETATM   22  N   UNL     1       5.827  28.639  52.861  1.00  0.00    -0.325 N 
HETATM   23  H   UNL     1       6.648  29.234  52.828  1.00  0.00     0.169 HD
HETATM   24  O   UNL     1       3.764  28.678  53.929  1.00  0.00    -0.271 OA
BRANCH  22  25
HETATM   25  C   UNL     1       5.503  27.976  51.659  1.00  0.00     0.050 A 
HETATM   26  C   UNL     1       5.348  28.579  50.403  1.00  0.00     0.058 A 
HETATM   27  C   UNL     1       4.988  27.806  49.284  1.00  0.00     0.019 A 
HETATM   28  C   UNL     1       4.781  26.433  49.409  1.00  0.00     0.001 A 
HETATM   29  C   UNL     1       4.908  25.831  50.655  1.00  0.00     0.002 A 
HETATM   30  C   UNL     1       5.255  26.598  51.772  1.00  0.00     0.030 A 
BRANCH  26  31
HETATM   31  C   UNL     1       5.290  30.038  50.186  1.00  0.00     0.254 C 
HETATM   32  N   UNL     1       4.150  30.478  49.561  1.00  0.00    -0.351 N 
HETATM   33  H   UNL     1       3.781  29.838  48.862  1.00  0.00     0.163 HD
HETATM   34  O   UNL     1       6.172  30.753  50.641  1.00  0.00    -0.268 OA
BRANCH  32  35
HETATM   35  C   UNL     1       3.987  31.882  49.268  1.00  0.00     0.187 C 
BRANCH  35  36
HETATM   36  C   UNL     1       4.576  32.147  47.931  1.00  0.00     0.070 A 
HETATM   37  O   UNL     1       5.552  33.098  47.860  1.00  0.00    -0.325 OA
HETATM   38  C   UNL     1       5.952  33.162  46.565  1.00  0.00     0.142 A 
HETATM   39  C   UNL     1       5.248  32.265  45.797  1.00  0.00     0.027 A 
HETATM   40  C   UNL     1       4.354  31.611  46.677  1.00  0.00     0.036 A 
ENDBRANCH  35  36
ENDBRANCH  32  35
ENDBRANCH  26  31
ENDBRANCH  22  25
ENDBRANCH   1  21
TORSDOF 7
ENDMDL
