MODEL 1
REMARK VINA RESULT:      -9.8      0.000      0.000
REMARK  8 active torsions:
REMARK  status: ('A' for Active; 'I' for Inactive)
REMARK    1  A    between atoms: O_2  and  C_3 
REMARK    2  A    between atoms: C_3  and  C_4 
REMARK    3  A    between atoms: C_9  and  N_10 
REMARK       I    between atoms: N_10  and  C_11 
REMARK    4  A    between atoms: C_11  and  C_12 
REMARK    5  A    between atoms: C_12  and  N_13 
REMARK    6  A    between atoms: N_17  and  C_19 
REMARK    7  A    between atoms: C_19  and  C_20 
REMARK    8  A    between atoms: C_23  and  N_24 
ROOT
HETATM    1  C   UNL     1       5.717  29.505  57.417  1.00  0.00     0.337 C 
ENDROOT
BRANCH   1   2
HETATM    2  C   UNL     1       5.654  30.941  56.919  1.00  0.00     0.248 C 
HETATM    3  N   UNL     1       5.860  31.995  57.752  1.00  0.00    -0.323 N 
HETATM    4  H   UNL     1       5.554  32.893  57.361  1.00  0.00     0.169 HD
HETATM    5  O   UNL     1       5.277  31.105  55.754  1.00  0.00    -0.271 OA
BRANCH   3   6
HETATM    6  C   UNL     1       6.183  32.018  59.106  1.00  0.00     0.080 C 
HETATM    7  C   UNL     1       5.189  32.140  60.069  1.00  0.00     0.136 C 
HETATM    8  N   UNL     1       5.792  32.008  61.297  1.00  0.00    -0.349 N 
HETATM    9  H   UNL     1       5.298  32.057  62.182  1.00  0.00     0.166 HD
HETATM   10  C   UNL     1       7.150  31.861  61.156  1.00  0.00     0.045 A 
HETATM   11  C   UNL     1       7.441  31.976  59.796  1.00  0.00     0.020 A 
HETATM   12  C   UNL     1       8.130  31.700  62.143  1.00  0.00     0.030 A 
HETATM   13  C   UNL     1       8.806  32.074  59.436  1.00  0.00     0.016 A 
HETATM   14  C   UNL     1       9.803  31.923  60.408  1.00  0.00     0.001 A 
HETATM   15  C   UNL     1       9.465  31.714  61.740  1.00  0.00     0.002 A 
BRANCH   7  16
HETATM   16  C   UNL     1       3.770  32.332  59.884  1.00  0.00     0.312 C 
HETATM   17  O   UNL     1       3.062  31.574  59.236  1.00  0.00    -0.258 OA
BRANCH  16  18
HETATM   18  O   UNL     1       3.362  33.448  60.541  1.00  0.00    -0.321 OA
HETATM   19  C   UNL     1       3.620  34.668  59.840  1.00  0.00     0.213 C 
ENDBRANCH  16  18
ENDBRANCH   7  16
ENDBRANCH   3   6
ENDBRANCH   1   2
BRANCH   1  20
HETATM   20  N   UNL     1       7.149  28.933  57.242  1.00  0.00    -0.060 N 
HETATM   21  H   UNL     1       7.706  29.561  57.862  1.00  0.00     0.280 HD
HETATM   22  C   UNL     1       7.727  29.126  55.849  1.00  0.00     0.263 C 
HETATM   23  C   UNL     1       7.103  28.141  54.827  1.00  0.00     0.263 C 
HETATM   24  N   UNL     1       7.124  26.687  55.318  1.00  0.00    -0.064 N 
HETATM   25  H   UNL     1       8.098  26.352  55.255  1.00  0.00     0.280 HD
HETATM   26  C   UNL     1       6.647  26.509  56.762  1.00  0.00     0.263 C 
HETATM   27  C   UNL     1       7.315  27.514  57.731  1.00  0.00     0.263 C 
BRANCH  24  28
HETATM   28  C   UNL     1       6.332  25.757  54.393  1.00  0.00     0.273 C 
BRANCH  28  29
HETATM   29  C   UNL     1       6.914  24.374  54.284  1.00  0.00    -0.032 A 
HETATM   30  C   UNL     1       7.046  23.565  55.425  1.00  0.00     0.011 A 
HETATM   31  C   UNL     1       7.581  22.277  55.325  1.00  0.00     0.037 A 
HETATM   32  C   UNL     1       7.998  21.792  54.079  1.00  0.00     0.102 A 
HETATM   33  C   UNL     1       7.876  22.588  52.935  1.00  0.00     0.037 A 
HETATM   34  C   UNL     1       7.332  23.872  53.039  1.00  0.00     0.011 A 
BRANCH  32  35
HETATM   35  N   UNL     1       8.569  20.441  53.972  1.00  0.00    -0.116 N 
HETATM   36  O   UNL     1       8.622  19.933  52.846  1.00  0.00    -0.532 OA
HETATM   37  O   UNL     1       8.938  19.898  55.021  1.00  0.00    -0.532 OA
ENDBRANCH  32  35
ENDBRANCH  28  29
ENDBRANCH  24  28
ENDBRANCH   1  20
TORSDOF 8
ENDMDL
MODEL 2
REMARK VINA RESULT:      -9.8      0.888      1.340
REMARK  8 active torsions:
REMARK  status: ('A' for Active; 'I' for Inactive)
REMARK    1  A    between atoms: O_2  and  C_3 
REMARK    2  A    between atoms: C_3  and  C_4 
REMARK    3  A    between atoms: C_9  and  N_10 
REMARK       I    between atoms: N_10  and  C_11 
REMARK    4  A    between atoms: C_11  and  C_12 
REMARK    5  A    between atoms: C_12  and  N_13 
REMARK    6  A    between atoms: N_17  and  C_19 
REMARK    7  A    between atoms: C_19  and  C_20 
REMARK    8  A    between atoms: C_23  and  N_24 
ROOT
HETATM    1  C   UNL     1       6.259  30.083  57.294  1.00  0.00     0.337 C 
ENDROOT
BRANCH   1   2
HETATM    2  C   UNL     1       5.671  31.475  57.108  1.00  0.00     0.248 C 
HETATM    3  N   UNL     1       5.577  32.355  58.139  1.00  0.00    -0.323 N 
HETATM    4  H   UNL     1       4.953  33.146  57.947  1.00  0.00     0.169 HD
HETATM    5  O   UNL     1       5.163  31.715  56.007  1.00  0.00    -0.271 OA
BRANCH   3   6
HETATM    6  C   UNL     1       5.988  32.231  59.463  1.00  0.00     0.080 C 
HETATM    7  C   UNL     1       5.060  32.258  60.497  1.00  0.00     0.136 C 
HETATM    8  N   UNL     1       5.738  31.991  61.662  1.00  0.00    -0.349 N 
HETATM    9  H   UNL     1       5.303  31.949  62.577  1.00  0.00     0.166 HD
HETATM   10  C   UNL     1       7.082  31.848  61.418  1.00  0.00     0.045 A 
HETATM   11  C   UNL     1       7.287  32.106  60.061  1.00  0.00     0.020 A 
HETATM   12  C   UNL     1       8.121  31.576  62.315  1.00  0.00     0.030 A 
HETATM   13  C   UNL     1       8.627  32.230  59.624  1.00  0.00     0.016 A 
HETATM   14  C   UNL     1       9.682  31.969  60.507  1.00  0.00     0.001 A 
HETATM   15  C   UNL     1       9.428  31.622  61.829  1.00  0.00     0.002 A 
BRANCH   7  16
HETATM   16  C   UNL     1       3.634  32.479  60.427  1.00  0.00     0.312 C 
HETATM   17  O   UNL     1       2.902  31.934  59.613  1.00  0.00    -0.258 OA
BRANCH  16  18
HETATM   18  O   UNL     1       3.252  33.352  61.394  1.00  0.00    -0.321 OA
HETATM   19  C   UNL     1       3.363  34.728  61.018  1.00  0.00     0.213 C 
ENDBRANCH  16  18
ENDBRANCH   7  16
ENDBRANCH   3   6
ENDBRANCH   1   2
BRANCH   1  20
HETATM   20  N   UNL     1       6.849  29.561  55.957  1.00  0.00    -0.060 N 
HETATM   21  H   UNL     1       6.829  30.421  55.366  1.00  0.00     0.280 HD
HETATM   22  C   UNL     1       5.962  28.556  55.239  1.00  0.00     0.263 C 
HETATM   23  C   UNL     1       6.009  27.163  55.917  1.00  0.00     0.263 C 
HETATM   24  N   UNL     1       7.442  26.672  56.161  1.00  0.00    -0.064 N 
HETATM   25  H   UNL     1       7.835  26.394  55.249  1.00  0.00     0.280 HD
HETATM   26  C   UNL     1       8.365  27.724  56.782  1.00  0.00     0.263 C 
HETATM   27  C   UNL     1       8.279  29.086  56.053  1.00  0.00     0.263 C 
BRANCH  24  28
HETATM   28  C   UNL     1       7.475  25.393  57.005  1.00  0.00     0.273 C 
BRANCH  28  29
HETATM   29  C   UNL     1       7.686  24.141  56.198  1.00  0.00    -0.032 A 
HETATM   30  C   UNL     1       8.328  23.028  56.767  1.00  0.00     0.011 A 
HETATM   31  C   UNL     1       8.520  21.860  56.020  1.00  0.00     0.037 A 
HETATM   32  C   UNL     1       8.078  21.803  54.693  1.00  0.00     0.102 A 
HETATM   33  C   UNL     1       7.441  22.905  54.112  1.00  0.00     0.037 A 
HETATM   34  C   UNL     1       7.243  24.067  54.866  1.00  0.00     0.011 A 
BRANCH  32  35
HETATM   35  N   UNL     1       8.286  20.581  53.904  1.00  0.00    -0.116 N 
HETATM   36  O   UNL     1       8.804  19.614  54.476  1.00  0.00    -0.532 OA
HETATM   37  O   UNL     1       7.948  20.611  52.713  1.00  0.00    -0.532 OA
ENDBRANCH  32  35
ENDBRANCH  28  29
ENDBRANCH  24  28
ENDBRANCH   1  20
TORSDOF 8
ENDMDL
MODEL 3
REMARK VINA RESULT:      -9.4      3.098      9.986
REMARK  8 active torsions:
REMARK  status: ('A' for Active; 'I' for Inactive)
REMARK    1  A    between atoms: O_2  and  C_3 
REMARK    2  A    between atoms: C_3  and  C_4 
REMARK    3  A    between atoms: C_9  and  N_10 
REMARK       I    between atoms: N_10  and  C_11 
REMARK    4  A    between atoms: C_11  and  C_12 
REMARK    5  A    between atoms: C_12  and  N_13 
REMARK    6  A    between atoms: N_17  and  C_19 
REMARK    7  A    between atoms: C_19  and  C_20 
REMARK    8  A    between atoms: C_23  and  N_24 
ROOT
HETATM    1  C   UNL     1       6.175  28.567  54.746  1.00  0.00     0.337 C 
ENDROOT
BRANCH   1   2
HETATM    2  C   UNL     1       4.780  28.151  54.300  1.00  0.00     0.248 C 
HETATM    3  N   UNL     1       4.580  27.082  53.485  1.00  0.00    -0.323 N 
HETATM    4  H   UNL     1       3.643  27.056  53.068  1.00  0.00     0.169 HD
HETATM    5  O   UNL     1       3.855  28.910  54.607  1.00  0.00    -0.271 OA
BRANCH   3   6
HETATM    6  C   UNL     1       5.493  26.180  52.949  1.00  0.00     0.080 C 
HETATM    7  C   UNL     1       5.780  26.187  51.589  1.00  0.00     0.136 C 
HETATM    8  N   UNL     1       6.795  25.283  51.381  1.00  0.00    -0.349 N 
HETATM    9  H   UNL     1       7.203  25.084  50.474  1.00  0.00     0.166 HD
HETATM   10  C   UNL     1       7.131  24.655  52.554  1.00  0.00     0.045 A 
HETATM   11  C   UNL     1       6.254  25.115  53.539  1.00  0.00     0.020 A 
HETATM   12  C   UNL     1       8.102  23.673  52.787  1.00  0.00     0.030 A 
HETATM   13  C   UNL     1       6.272  24.442  54.783  1.00  0.00     0.016 A 
HETATM   14  C   UNL     1       7.230  23.452  55.034  1.00  0.00     0.001 A 
HETATM   15  C   UNL     1       8.148  23.092  54.054  1.00  0.00     0.002 A 
BRANCH   7  16
HETATM   16  C   UNL     1       5.191  26.992  50.545  1.00  0.00     0.312 C 
HETATM   17  O   UNL     1       4.623  26.526  49.567  1.00  0.00    -0.258 OA
BRANCH  16  18
HETATM   18  O   UNL     1       5.354  28.311  50.828  1.00  0.00    -0.321 OA
HETATM   19  C   UNL     1       4.284  29.144  50.371  1.00  0.00     0.213 C 
ENDBRANCH  16  18
ENDBRANCH   7  16
ENDBRANCH   3   6
ENDBRANCH   1   2
BRANCH   1  20
HETATM   20  N   UNL     1       6.574  27.818  56.046  1.00  0.00    -0.060 N 
HETATM   21  H   UNL     1       6.349  26.829  55.799  1.00  0.00     0.280 HD
HETATM   22  C   UNL     1       5.696  28.146  57.243  1.00  0.00     0.263 C 
HETATM   23  C   UNL     1       6.024  29.542  57.830  1.00  0.00     0.263 C 
HETATM   24  N   UNL     1       7.525  29.741  58.081  1.00  0.00    -0.064 N 
HETATM   25  H   UNL     1       7.779  29.180  58.909  1.00  0.00     0.280 HD
HETATM   26  C   UNL     1       8.416  29.304  56.914  1.00  0.00     0.263 C 
HETATM   27  C   UNL     1       8.044  27.899  56.382  1.00  0.00     0.263 C 
BRANCH  24  28
HETATM   28  C   UNL     1       7.856  31.185  58.471  1.00  0.00     0.273 C 
BRANCH  28  29
HETATM   29  C   UNL     1       7.411  31.553  59.861  1.00  0.00    -0.032 A 
HETATM   30  C   UNL     1       6.267  32.345  60.055  1.00  0.00     0.011 A 
HETATM   31  C   UNL     1       5.848  32.684  61.346  1.00  0.00     0.037 A 
HETATM   32  C   UNL     1       6.579  32.236  62.454  1.00  0.00     0.102 A 
HETATM   33  C   UNL     1       7.722  31.450  62.275  1.00  0.00     0.037 A 
HETATM   34  C   UNL     1       8.131  31.107  60.983  1.00  0.00     0.011 A 
BRANCH  32  35
HETATM   35  N   UNL     1       6.145  32.597  63.811  1.00  0.00    -0.116 N 
HETATM   36  O   UNL     1       6.996  33.070  64.574  1.00  0.00    -0.532 OA
HETATM   37  O   UNL     1       4.961  32.383  64.103  1.00  0.00    -0.532 OA
ENDBRANCH  32  35
ENDBRANCH  28  29
ENDBRANCH  24  28
ENDBRANCH   1  20
TORSDOF 8
ENDMDL
MODEL 4
REMARK VINA RESULT:      -9.0      3.083      9.854
REMARK  8 active torsions:
REMARK  status: ('A' for Active; 'I' for Inactive)
REMARK    1  A    between atoms: O_2  and  C_3 
REMARK    2  A    between atoms: C_3  and  C_4 
REMARK    3  A    between atoms: C_9  and  N_10 
REMARK       I    between atoms: N_10  and  C_11 
REMARK    4  A    between atoms: C_11  and  C_12 
REMARK    5  A    between atoms: C_12  and  N_13 
REMARK    6  A    between atoms: N_17  and  C_19 
REMARK    7  A    between atoms: C_19  and  C_20 
REMARK    8  A    between atoms: C_23  and  N_24 
ROOT
HETATM    1  C   UNL     1       7.112  27.147  56.494  1.00  0.00     0.337 C 
ENDROOT
BRANCH   1   2
HETATM    2  C   UNL     1       5.701  26.588  56.385  1.00  0.00     0.248 C 
HETATM    3  N   UNL     1       5.371  25.660  55.449  1.00  0.00    -0.323 N 
HETATM    4  H   UNL     1       4.359  25.550  55.320  1.00  0.00     0.169 HD
HETATM    5  O   UNL     1       4.843  27.116  57.100  1.00  0.00    -0.271 OA
BRANCH   3   6
HETATM    6  C   UNL     1       6.161  25.031  54.492  1.00  0.00     0.080 C 
HETATM    7  C   UNL     1       6.238  25.530  53.197  1.00  0.00     0.136 C 
HETATM    8  N   UNL     1       7.178  24.785  52.527  1.00  0.00    -0.349 N 
HETATM    9  H   UNL     1       7.437  24.934  51.557  1.00  0.00     0.166 HD
HETATM   10  C   UNL     1       7.669  23.787  53.332  1.00  0.00     0.045 A 
HETATM   11  C   UNL     1       6.967  23.844  54.538  1.00  0.00     0.020 A 
HETATM   12  C   UNL     1       8.630  22.810  53.046  1.00  0.00     0.030 A 
HETATM   13  C   UNL     1       7.153  22.771  55.442  1.00  0.00     0.016 A 
HETATM   14  C   UNL     1       8.105  21.780  55.172  1.00  0.00     0.001 A 
HETATM   15  C   UNL     1       8.850  21.816  53.999  1.00  0.00     0.002 A 
BRANCH   7  16
HETATM   16  C   UNL     1       5.524  26.641  52.613  1.00  0.00     0.312 C 
HETATM   17  O   UNL     1       4.728  26.528  51.691  1.00  0.00    -0.258 OA
BRANCH  16  18
HETATM   18  O   UNL     1       5.860  27.794  53.248  1.00  0.00    -0.321 OA
HETATM   19  C   UNL     1       4.777  28.717  53.397  1.00  0.00     0.213 C 
ENDBRANCH  16  18
ENDBRANCH   7  16
ENDBRANCH   3   6
ENDBRANCH   1   2
BRANCH   1  20
HETATM   20  N   UNL     1       7.156  28.611  55.982  1.00  0.00    -0.060 N 
HETATM   21  H   UNL     1       6.566  28.554  55.123  1.00  0.00     0.280 HD
HETATM   22  C   UNL     1       8.527  29.058  55.501  1.00  0.00     0.263 C 
HETATM   23  C   UNL     1       9.486  29.341  56.686  1.00  0.00     0.263 C 
HETATM   24  N   UNL     1       8.864  30.259  57.746  1.00  0.00    -0.064 N 
HETATM   25  H   UNL     1       8.842  31.214  57.356  1.00  0.00     0.280 HD
HETATM   26  C   UNL     1       7.438  29.872  58.147  1.00  0.00     0.263 C 
HETATM   27  C   UNL     1       6.530  29.615  56.920  1.00  0.00     0.263 C 
BRANCH  24  28
HETATM   28  C   UNL     1       9.741  30.369  58.997  1.00  0.00     0.273 C 
BRANCH  28  29
HETATM   29  C   UNL     1       9.051  31.023  60.164  1.00  0.00    -0.032 A 
HETATM   30  C   UNL     1       8.391  32.253  60.001  1.00  0.00     0.011 A 
HETATM   31  C   UNL     1       7.743  32.860  61.083  1.00  0.00     0.037 A 
HETATM   32  C   UNL     1       7.760  32.242  62.339  1.00  0.00     0.102 A 
HETATM   33  C   UNL     1       8.416  31.019  62.516  1.00  0.00     0.037 A 
HETATM   34  C   UNL     1       9.054  30.412  61.430  1.00  0.00     0.011 A 
BRANCH  32  35
HETATM   35  N   UNL     1       7.087  32.881  63.479  1.00  0.00    -0.116 N 
HETATM   36  O   UNL     1       5.868  33.069  63.389  1.00  0.00    -0.532 OA
HETATM   37  O   UNL     1       7.793  33.207  64.443  1.00  0.00    -0.532 OA
ENDBRANCH  32  35
ENDBRANCH  28  29
ENDBRANCH  24  28
ENDBRANCH   1  20
TORSDOF 8
ENDMDL
MODEL 5
REMARK VINA RESULT:      -8.8      2.668     10.297
REMARK  8 active torsions:
REMARK  status: ('A' for Active; 'I' for Inactive)
REMARK    1  A    between atoms: O_2  and  C_3 
REMARK    2  A    between atoms: C_3  and  C_4 
REMARK    3  A    between atoms: C_9  and  N_10 
REMARK       I    between atoms: N_10  and  C_11 
REMARK    4  A    between atoms: C_11  and  C_12 
REMARK    5  A    between atoms: C_12  and  N_13 
REMARK    6  A    between atoms: N_17  and  C_19 
REMARK    7  A    between atoms: C_19  and  C_20 
REMARK    8  A    between atoms: C_23  and  N_24 
ROOT
HETATM    1  C   UNL     1       7.290  26.507  56.262  1.00  0.00     0.337 C 
ENDROOT
BRANCH   1   2
HETATM    2  C   UNL     1       6.060  25.627  56.431  1.00  0.00     0.248 C 
HETATM    3  N   UNL     1       5.356  25.170  55.363  1.00  0.00    -0.323 N 
HETATM    4  H   UNL     1       4.430  24.803  55.610  1.00  0.00     0.169 HD
HETATM    5  O   UNL     1       5.657  25.460  57.588  1.00  0.00    -0.271 OA
BRANCH   3   6
HETATM    6  C   UNL     1       5.582  25.340  54.001  1.00  0.00     0.080 C 
HETATM    7  C   UNL     1       6.386  24.449  53.300  1.00  0.00     0.136 C 
HETATM    8  N   UNL     1       6.321  24.797  51.973  1.00  0.00    -0.349 N 
HETATM    9  H   UNL     1       6.817  24.312  51.232  1.00  0.00     0.166 HD
HETATM   10  C   UNL     1       5.546  25.917  51.803  1.00  0.00     0.045 A 
HETATM   11  C   UNL     1       5.158  26.350  53.073  1.00  0.00     0.020 A 
HETATM   12  C   UNL     1       5.224  26.602  50.625  1.00  0.00     0.030 A 
HETATM   13  C   UNL     1       4.532  27.616  53.158  1.00  0.00     0.016 A 
HETATM   14  C   UNL     1       4.206  28.321  51.992  1.00  0.00     0.001 A 
HETATM   15  C   UNL     1       4.528  27.805  50.742  1.00  0.00     0.002 A 
BRANCH   7  16
HETATM   16  C   UNL     1       7.142  23.326  53.803  1.00  0.00     0.312 C 
HETATM   17  O   UNL     1       7.228  23.042  54.990  1.00  0.00    -0.258 OA
BRANCH  16  18
HETATM   18  O   UNL     1       7.711  22.649  52.772  1.00  0.00    -0.321 OA
HETATM   19  C   UNL     1       8.010  21.281  53.063  1.00  0.00     0.213 C 
ENDBRANCH  16  18
ENDBRANCH   7  16
ENDBRANCH   3   6
ENDBRANCH   1   2
BRANCH   1  20
HETATM   20  N   UNL     1       6.872  27.957  55.896  1.00  0.00    -0.060 N 
HETATM   21  H   UNL     1       6.161  27.791  55.150  1.00  0.00     0.280 HD
HETATM   22  C   UNL     1       7.973  28.768  55.231  1.00  0.00     0.263 C 
HETATM   23  C   UNL     1       9.042  29.231  56.254  1.00  0.00     0.263 C 
HETATM   24  N   UNL     1       8.428  29.901  57.489  1.00  0.00    -0.064 N 
HETATM   25  H   UNL     1       8.098  30.837  57.204  1.00  0.00     0.280 HD
HETATM   26  C   UNL     1       7.246  29.137  58.092  1.00  0.00     0.263 C 
HETATM   27  C   UNL     1       6.210  28.715  57.021  1.00  0.00     0.263 C 
BRANCH  24  28
HETATM   28  C   UNL     1       9.475  30.173  58.575  1.00  0.00     0.273 C 
BRANCH  28  29
HETATM   29  C   UNL     1       8.939  30.939  59.754  1.00  0.00    -0.032 A 
HETATM   30  C   UNL     1       8.097  32.047  59.558  1.00  0.00     0.011 A 
HETATM   31  C   UNL     1       7.592  32.758  60.652  1.00  0.00     0.037 A 
HETATM   32  C   UNL     1       7.935  32.369  61.953  1.00  0.00     0.102 A 
HETATM   33  C   UNL     1       8.775  31.269  62.162  1.00  0.00     0.037 A 
HETATM   34  C   UNL     1       9.270  30.557  61.065  1.00  0.00     0.011 A 
BRANCH  32  35
HETATM   35  N   UNL     1       7.413  33.119  63.104  1.00  0.00    -0.116 N 
HETATM   36  O   UNL     1       7.759  32.746  64.231  1.00  0.00    -0.532 OA
HETATM   37  O   UNL     1       6.645  34.060  62.865  1.00  0.00    -0.532 OA
ENDBRANCH  32  35
ENDBRANCH  28  29
ENDBRANCH  24  28
ENDBRANCH   1  20
TORSDOF 8
ENDMDL
MODEL 6
REMARK VINA RESULT:      -8.6      5.122      8.530
REMARK  8 active torsions:
REMARK  status: ('A' for Active; 'I' for Inactive)
REMARK    1  A    between atoms: O_2  and  C_3 
REMARK    2  A    between atoms: C_3  and  C_4 
REMARK    3  A    between atoms: C_9  and  N_10 
REMARK       I    between atoms: N_10  and  C_11 
REMARK    4  A    between atoms: C_11  and  C_12 
REMARK    5  A    between atoms: C_12  and  N_13 
REMARK    6  A    between atoms: N_17  and  C_19 
REMARK    7  A    between atoms: C_19  and  C_20 
REMARK    8  A    between atoms: C_23  and  N_24 
ROOT
HETATM    1  C   UNL     1       4.478  29.798  52.710  1.00  0.00     0.337 C 
ENDROOT
BRANCH   1   2
HETATM    2  C   UNL     1       3.360  30.726  52.256  1.00  0.00     0.248 C 
HETATM    3  N   UNL     1       2.947  30.767  50.962  1.00  0.00    -0.323 N 
HETATM    4  H   UNL     1       2.373  31.588  50.742  1.00  0.00     0.169 HD
HETATM    5  O   UNL     1       2.940  31.532  53.093  1.00  0.00    -0.271 OA
BRANCH   3   6
HETATM    6  C   UNL     1       3.368  30.025  49.862  1.00  0.00     0.080 C 
HETATM    7  C   UNL     1       4.573  30.312  49.234  1.00  0.00     0.136 C 
HETATM    8  N   UNL     1       4.774  29.347  48.277  1.00  0.00    -0.349 N 
HETATM    9  H   UNL     1       5.582  29.313  47.663  1.00  0.00     0.166 HD
HETATM   10  C   UNL     1       3.711  28.481  48.231  1.00  0.00     0.045 A 
HETATM   11  C   UNL     1       2.757  28.946  49.139  1.00  0.00     0.020 A 
HETATM   12  C   UNL     1       3.510  27.367  47.407  1.00  0.00     0.030 A 
HETATM   13  C   UNL     1       1.483  28.332  49.106  1.00  0.00     0.016 A 
HETATM   14  C   UNL     1       1.258  27.220  48.284  1.00  0.00     0.001 A 
HETATM   15  C   UNL     1       2.269  26.731  47.464  1.00  0.00     0.002 A 
BRANCH   7  16
HETATM   16  C   UNL     1       5.504  31.381  49.510  1.00  0.00     0.312 C 
HETATM   17  O   UNL     1       6.679  31.201  49.797  1.00  0.00    -0.258 OA
BRANCH  16  18
HETATM   18  O   UNL     1       4.882  32.583  49.386  1.00  0.00    -0.321 OA
HETATM   19  C   UNL     1       4.775  33.050  48.038  1.00  0.00     0.213 C 
ENDBRANCH  16  18
ENDBRANCH   7  16
ENDBRANCH   3   6
ENDBRANCH   1   2
BRANCH   1  20
HETATM   20  N   UNL     1       3.895  28.588  53.488  1.00  0.00    -0.060 N 
HETATM   21  H   UNL     1       2.940  28.932  53.731  1.00  0.00     0.280 HD
HETATM   22  C   UNL     1       4.579  28.323  54.820  1.00  0.00     0.263 C 
HETATM   23  C   UNL     1       5.966  27.657  54.630  1.00  0.00     0.263 C 
HETATM   24  N   UNL     1       5.916  26.440  53.698  1.00  0.00    -0.064 N 
HETATM   25  H   UNL     1       5.464  25.670  54.215  1.00  0.00     0.280 HD
HETATM   26  C   UNL     1       5.130  26.675  52.405  1.00  0.00     0.263 C 
HETATM   27  C   UNL     1       3.752  27.331  52.665  1.00  0.00     0.263 C 
BRANCH  24  28
HETATM   28  C   UNL     1       7.316  25.914  53.363  1.00  0.00     0.273 C 
BRANCH  28  29
HETATM   29  C   UNL     1       7.542  24.487  53.781  1.00  0.00    -0.032 A 
HETATM   30  C   UNL     1       7.264  24.079  55.096  1.00  0.00     0.011 A 
HETATM   31  C   UNL     1       7.467  22.751  55.487  1.00  0.00     0.037 A 
HETATM   32  C   UNL     1       7.962  21.822  54.561  1.00  0.00     0.102 A 
HETATM   33  C   UNL     1       8.247  22.216  53.249  1.00  0.00     0.037 A 
HETATM   34  C   UNL     1       8.033  23.542  52.862  1.00  0.00     0.011 A 
BRANCH  32  35
HETATM   35  N   UNL     1       8.185  20.428  54.971  1.00  0.00    -0.116 N 
HETATM   36  O   UNL     1       8.705  19.668  54.145  1.00  0.00    -0.532 OA
HETATM   37  O   UNL     1       7.816  20.106  56.108  1.00  0.00    -0.532 OA
ENDBRANCH  32  35
ENDBRANCH  28  29
ENDBRANCH  24  28
ENDBRANCH   1  20
TORSDOF 8
ENDMDL
MODEL 7
REMARK VINA RESULT:      -8.4      2.857      5.308
REMARK  8 active torsions:
REMARK  status: ('A' for Active; 'I' for Inactive)
REMARK    1  A    between atoms: O_2  and  C_3 
REMARK    2  A    between atoms: C_3  and  C_4 
REMARK    3  A    between atoms: C_9  and  N_10 
REMARK       I    between atoms: N_10  and  C_11 
REMARK    4  A    between atoms: C_11  and  C_12 
REMARK    5  A    between atoms: C_12  and  N_13 
REMARK    6  A    between atoms: N_17  and  C_19 
REMARK    7  A    between atoms: C_19  and  C_20 
REMARK    8  A    between atoms: C_23  and  N_24 
ROOT
HETATM    1  C   UNL     1       5.429  30.664  55.745  1.00  0.00     0.337 C 
ENDROOT
BRANCH   1   2
HETATM    2  C   UNL     1       5.436  30.744  57.265  1.00  0.00     0.248 C 
HETATM    3  N   UNL     1       6.100  29.835  58.025  1.00  0.00    -0.323 N 
HETATM    4  H   UNL     1       5.830  29.853  59.014  1.00  0.00     0.169 HD
HETATM    5  O   UNL     1       4.700  31.596  57.775  1.00  0.00    -0.271 OA
BRANCH   3   6
HETATM    6  C   UNL     1       6.885  28.750  57.644  1.00  0.00     0.080 C 
HETATM    7  C   UNL     1       8.257  28.893  57.478  1.00  0.00     0.136 C 
HETATM    8  N   UNL     1       8.771  27.643  57.228  1.00  0.00    -0.349 N 
HETATM    9  H   UNL     1       9.754  27.454  57.066  1.00  0.00     0.166 HD
HETATM   10  C   UNL     1       7.766  26.709  57.173  1.00  0.00     0.045 A 
HETATM   11  C   UNL     1       6.557  27.391  57.318  1.00  0.00     0.020 A 
HETATM   12  C   UNL     1       7.850  25.331  56.941  1.00  0.00     0.030 A 
HETATM   13  C   UNL     1       5.371  26.659  57.076  1.00  0.00     0.016 A 
HETATM   14  C   UNL     1       5.432  25.280  56.835  1.00  0.00     0.001 A 
HETATM   15  C   UNL     1       6.657  24.624  56.794  1.00  0.00     0.002 A 
BRANCH   7  16
HETATM   16  C   UNL     1       9.060  30.090  57.575  1.00  0.00     0.312 C 
HETATM   17  O   UNL     1       8.838  30.994  58.368  1.00  0.00    -0.258 OA
BRANCH  16  18
HETATM   18  O   UNL     1      10.079  30.040  56.678  1.00  0.00    -0.321 OA
HETATM   19  C   UNL     1      11.377  29.944  57.272  1.00  0.00     0.213 C 
ENDBRANCH  16  18
ENDBRANCH   7  16
ENDBRANCH   3   6
ENDBRANCH   1   2
BRANCH   1  20
HETATM   20  N   UNL     1       4.002  30.341  55.226  1.00  0.00    -0.060 N 
HETATM   21  H   UNL     1       3.405  30.797  55.951  1.00  0.00     0.280 HD
HETATM   22  C   UNL     1       3.645  28.864  55.277  1.00  0.00     0.263 C 
HETATM   23  C   UNL     1       4.342  28.066  54.146  1.00  0.00     0.263 C 
HETATM   24  N   UNL     1       4.155  28.709  52.766  1.00  0.00    -0.064 N 
HETATM   25  H   UNL     1       3.180  28.539  52.473  1.00  0.00     0.280 HD
HETATM   26  C   UNL     1       4.407  30.219  52.741  1.00  0.00     0.263 C 
HETATM   27  C   UNL     1       3.675  30.957  53.887  1.00  0.00     0.263 C 
BRANCH  24  28
HETATM   28  C   UNL     1       5.009  28.025  51.693  1.00  0.00     0.273 C 
BRANCH  28  29
HETATM   29  C   UNL     1       5.732  26.801  52.185  1.00  0.00    -0.032 A 
HETATM   30  C   UNL     1       5.163  25.526  52.026  1.00  0.00     0.011 A 
HETATM   31  C   UNL     1       5.836  24.386  52.477  1.00  0.00     0.037 A 
HETATM   32  C   UNL     1       7.084  24.516  53.101  1.00  0.00     0.102 A 
HETATM   33  C   UNL     1       7.661  25.780  53.269  1.00  0.00     0.037 A 
HETATM   34  C   UNL     1       6.988  26.915  52.807  1.00  0.00     0.011 A 
BRANCH  32  35
HETATM   35  N   UNL     1       7.790  23.321  53.583  1.00  0.00    -0.116 N 
HETATM   36  O   UNL     1       7.364  22.220  53.215  1.00  0.00    -0.532 OA
HETATM   37  O   UNL     1       8.751  23.499  54.343  1.00  0.00    -0.532 OA
ENDBRANCH  32  35
ENDBRANCH  28  29
ENDBRANCH  24  28
ENDBRANCH   1  20
TORSDOF 8
ENDMDL
MODEL 8
REMARK VINA RESULT:      -8.3      5.618      8.321
REMARK  8 active torsions:
REMARK  status: ('A' for Active; 'I' for Inactive)
REMARK    1  A    between atoms: O_2  and  C_3 
REMARK    2  A    between atoms: C_3  and  C_4 
REMARK    3  A    between atoms: C_9  and  N_10 
REMARK       I    between atoms: N_10  and  C_11 
REMARK    4  A    between atoms: C_11  and  C_12 
REMARK    5  A    between atoms: C_12  and  N_13 
REMARK    6  A    between atoms: N_17  and  C_19 
REMARK    7  A    between atoms: C_19  and  C_20 
REMARK    8  A    between atoms: C_23  and  N_24 
ROOT
HETATM    1  C   UNL     1       5.049  26.406  52.718  1.00  0.00     0.337 C 
ENDROOT
BRANCH   1   2
HETATM    2  C   UNL     1       5.907  26.290  51.467  1.00  0.00     0.248 C 
HETATM    3  N   UNL     1       5.599  26.958  50.325  1.00  0.00    -0.323 N 
HETATM    4  H   UNL     1       6.101  26.612  49.500  1.00  0.00     0.169 HD
HETATM    5  O   UNL     1       6.820  25.458  51.501  1.00  0.00    -0.271 OA
BRANCH   3   6
HETATM    6  C   UNL     1       4.561  27.846  50.058  1.00  0.00     0.080 C 
HETATM    7  C   UNL     1       3.628  27.566  49.067  1.00  0.00     0.136 C 
HETATM    8  N   UNL     1       2.669  28.549  49.120  1.00  0.00    -0.349 N 
HETATM    9  H   UNL     1       1.863  28.592  48.505  1.00  0.00     0.166 HD
HETATM   10  C   UNL     1       2.984  29.482  50.077  1.00  0.00     0.045 A 
HETATM   11  C   UNL     1       4.227  29.129  50.607  1.00  0.00     0.020 A 
HETATM   12  C   UNL     1       2.287  30.636  50.453  1.00  0.00     0.030 A 
HETATM   13  C   UNL     1       4.854  30.069  51.458  1.00  0.00     0.016 A 
HETATM   14  C   UNL     1       4.177  31.234  51.842  1.00  0.00     0.001 A 
HETATM   15  C   UNL     1       2.899  31.498  51.363  1.00  0.00     0.002 A 
BRANCH   7  16
HETATM   16  C   UNL     1       3.591  26.453  48.148  1.00  0.00     0.312 C 
HETATM   17  O   UNL     1       3.614  26.576  46.931  1.00  0.00    -0.258 OA
BRANCH  16  18
HETATM   18  O   UNL     1       3.544  25.283  48.837  1.00  0.00    -0.321 OA
HETATM   19  C   UNL     1       2.956  24.199  48.111  1.00  0.00     0.213 C 
ENDBRANCH  16  18
ENDBRANCH   7  16
ENDBRANCH   3   6
ENDBRANCH   1   2
BRANCH   1  20
HETATM   20  N   UNL     1       5.544  27.577  53.609  1.00  0.00    -0.060 N 
HETATM   21  H   UNL     1       5.268  28.407  53.040  1.00  0.00     0.280 HD
HETATM   22  C   UNL     1       7.057  27.659  53.737  1.00  0.00     0.263 C 
HETATM   23  C   UNL     1       7.611  26.570  54.691  1.00  0.00     0.263 C 
HETATM   24  N   UNL     1       6.870  26.525  56.033  1.00  0.00    -0.064 N 
HETATM   25  H   UNL     1       7.165  27.350  56.580  1.00  0.00     0.280 HD
HETATM   26  C   UNL     1       5.344  26.555  55.905  1.00  0.00     0.263 C 
HETATM   27  C   UNL     1       4.856  27.670  54.950  1.00  0.00     0.263 C 
BRANCH  24  28
HETATM   28  C   UNL     1       7.294  25.323  56.884  1.00  0.00     0.273 C 
BRANCH  28  29
HETATM   29  C   UNL     1       7.580  24.084  56.079  1.00  0.00    -0.032 A 
HETATM   30  C   UNL     1       7.015  23.918  54.804  1.00  0.00     0.011 A 
HETATM   31  C   UNL     1       7.285  22.770  54.051  1.00  0.00     0.037 A 
HETATM   32  C   UNL     1       8.118  21.774  54.576  1.00  0.00     0.102 A 
HETATM   33  C   UNL     1       8.685  21.925  55.846  1.00  0.00     0.037 A 
HETATM   34  C   UNL     1       8.419  23.079  56.591  1.00  0.00     0.011 A 
BRANCH  32  35
HETATM   35  N   UNL     1       8.397  20.564  53.791  1.00  0.00    -0.116 N 
HETATM   36  O   UNL     1       8.878  19.594  54.390  1.00  0.00    -0.532 OA
HETATM   37  O   UNL     1       8.149  20.605  52.579  1.00  0.00    -0.532 OA
ENDBRANCH  32  35
ENDBRANCH  28  29
ENDBRANCH  24  28
ENDBRANCH   1  20
TORSDOF 8
ENDMDL
MODEL 9
REMARK VINA RESULT:      -8.2      3.937      6.931
REMARK  8 active torsions:
REMARK  status: ('A' for Active; 'I' for Inactive)
REMARK    1  A    between atoms: O_2  and  C_3 
REMARK    2  A    between atoms: C_3  and  C_4 
REMARK    3  A    between atoms: C_9  and  N_10 
REMARK       I    between atoms: N_10  and  C_11 
REMARK    4  A    between atoms: C_11  and  C_12 
REMARK    5  A    between atoms: C_12  and  N_13 
REMARK    6  A    between atoms: N_17  and  C_19 
REMARK    7  A    between atoms: C_19  and  C_20 
REMARK    8  A    between atoms: C_23  and  N_24 
ROOT
HETATM    1  C   UNL     1       3.749  34.599  60.986  1.00  0.00     0.337 C 
ENDROOT
BRANCH   1   2
HETATM    2  C   UNL     1       2.495  35.099  61.689  1.00  0.00     0.248 C 
HETATM    3  N   UNL     1       2.557  35.992  62.710  1.00  0.00    -0.323 N 
HETATM    4  H   UNL     1       1.687  36.059  63.250  1.00  0.00     0.169 HD
HETATM    5  O   UNL     1       1.432  34.552  61.375  1.00  0.00    -0.271 OA
BRANCH   3   6
HETATM    6  C   UNL     1       3.656  36.633  63.276  1.00  0.00     0.080 C 
HETATM    7  C   UNL     1       4.168  36.213  64.498  1.00  0.00     0.136 C 
HETATM    8  N   UNL     1       5.309  36.941  64.734  1.00  0.00    -0.349 N 
HETATM    9  H   UNL     1       5.888  36.839  65.561  1.00  0.00     0.166 HD
HETATM   10  C   UNL     1       5.517  37.854  63.731  1.00  0.00     0.045 A 
HETATM   11  C   UNL     1       4.433  37.763  62.855  1.00  0.00     0.020 A 
HETATM   12  C   UNL     1       6.550  38.788  63.582  1.00  0.00     0.030 A 
HETATM   13  C   UNL     1       4.324  38.763  61.860  1.00  0.00     0.016 A 
HETATM   14  C   UNL     1       5.343  39.711  61.698  1.00  0.00     0.001 A 
HETATM   15  C   UNL     1       6.453  39.704  62.535  1.00  0.00     0.002 A 
BRANCH   7  16
HETATM   16  C   UNL     1       3.669  35.186  65.383  1.00  0.00     0.312 C 
HETATM   17  O   UNL     1       3.143  35.417  66.462  1.00  0.00    -0.258 OA
BRANCH  16  18
HETATM   18  O   UNL     1       3.861  33.961  64.828  1.00  0.00    -0.321 OA
HETATM   19  C   UNL     1       5.138  33.384  65.111  1.00  0.00     0.213 C 
ENDBRANCH  16  18
ENDBRANCH   7  16
ENDBRANCH   3   6
ENDBRANCH   1   2
BRANCH   1  20
HETATM   20  N   UNL     1       4.207  33.245  61.592  1.00  0.00    -0.060 N 
HETATM   21  H   UNL     1       3.921  33.352  62.590  1.00  0.00     0.280 HD
HETATM   22  C   UNL     1       5.716  33.060  61.621  1.00  0.00     0.263 C 
HETATM   23  C   UNL     1       6.281  32.733  60.216  1.00  0.00     0.263 C 
HETATM   24  N   UNL     1       5.523  31.593  59.523  1.00  0.00    -0.064 N 
HETATM   25  H   UNL     1       5.793  30.712  59.987  1.00  0.00     0.280 HD
HETATM   26  C   UNL     1       3.999  31.725  59.591  1.00  0.00     0.263 C 
HETATM   27  C   UNL     1       3.499  32.039  61.022  1.00  0.00     0.263 C 
BRANCH  24  28
HETATM   28  C   UNL     1       5.961  31.415  58.065  1.00  0.00     0.273 C 
BRANCH  28  29
HETATM   29  C   UNL     1       6.474  30.036  57.752  1.00  0.00    -0.032 A 
HETATM   30  C   UNL     1       7.851  29.761  57.799  1.00  0.00     0.011 A 
HETATM   31  C   UNL     1       8.330  28.478  57.514  1.00  0.00     0.037 A 
HETATM   32  C   UNL     1       7.431  27.460  57.172  1.00  0.00     0.102 A 
HETATM   33  C   UNL     1       6.057  27.720  57.118  1.00  0.00     0.037 A 
HETATM   34  C   UNL     1       5.583  29.002  57.413  1.00  0.00     0.011 A 
BRANCH  32  35
HETATM   35  N   UNL     1       7.932  26.113  56.864  1.00  0.00    -0.116 N 
HETATM   36  O   UNL     1       8.524  25.506  57.765  1.00  0.00    -0.532 OA
HETATM   37  O   UNL     1       7.745  25.687  55.717  1.00  0.00    -0.532 OA
ENDBRANCH  32  35
ENDBRANCH  28  29
ENDBRANCH  24  28
ENDBRANCH   1  20
TORSDOF 8
ENDMDL
MODEL 10
REMARK VINA RESULT:      -8.1      2.881      9.568
REMARK  8 active torsions:
REMARK  status: ('A' for Active; 'I' for Inactive)
REMARK    1  A    between atoms: O_2  and  C_3 
REMARK    2  A    between atoms: C_3  and  C_4 
REMARK    3  A    between atoms: C_9  and  N_10 
REMARK       I    between atoms: N_10  and  C_11 
REMARK    4  A    between atoms: C_11  and  C_12 
REMARK    5  A    between atoms: C_12  and  N_13 
REMARK    6  A    between atoms: N_17  and  C_19 
REMARK    7  A    between atoms: C_19  and  C_20 
REMARK    8  A    between atoms: C_23  and  N_24 
ROOT
HETATM    1  C   UNL     1       6.912  28.604  55.346  1.00  0.00     0.337 C 
ENDROOT
BRANCH   1   2
HETATM    2  C   UNL     1       5.551  28.007  55.671  1.00  0.00     0.248 C 
HETATM    3  N   UNL     1       5.094  26.888  55.049  1.00  0.00    -0.323 N 
HETATM    4  H   UNL     1       4.088  26.732  55.172  1.00  0.00     0.169 HD
HETATM    5  O   UNL     1       4.828  28.663  56.428  1.00  0.00    -0.271 OA
BRANCH   3   6
HETATM    6  C   UNL     1       5.707  26.078  54.097  1.00  0.00     0.080 C 
HETATM    7  C   UNL     1       5.533  26.324  52.741  1.00  0.00     0.136 C 
HETATM    8  N   UNL     1       6.348  25.452  52.060  1.00  0.00    -0.349 N 
HETATM    9  H   UNL     1       6.419  25.411  51.048  1.00  0.00     0.166 HD
HETATM   10  C   UNL     1       6.999  24.616  52.932  1.00  0.00     0.045 A 
HETATM   11  C   UNL     1       6.532  24.909  54.215  1.00  0.00     0.020 A 
HETATM   12  C   UNL     1       7.911  23.589  52.662  1.00  0.00     0.030 A 
HETATM   13  C   UNL     1       6.904  24.024  55.254  1.00  0.00     0.016 A 
HETATM   14  C   UNL     1       7.809  22.985  55.004  1.00  0.00     0.001 A 
HETATM   15  C   UNL     1       8.324  22.789  53.727  1.00  0.00     0.002 A 
BRANCH   7  16
HETATM   16  C   UNL     1       4.700  27.315  52.101  1.00  0.00     0.312 C 
HETATM   17  O   UNL     1       3.875  27.995  52.696  1.00  0.00    -0.258 OA
BRANCH  16  18
HETATM   18  O   UNL     1       4.986  27.377  50.775  1.00  0.00    -0.321 OA
HETATM   19  C   UNL     1       4.014  28.083  49.998  1.00  0.00     0.213 C 
ENDBRANCH  16  18
ENDBRANCH   7  16
ENDBRANCH   3   6
ENDBRANCH   1   2
BRANCH   1  20
HETATM   20  N   UNL     1       8.007  27.982  56.254  1.00  0.00    -0.060 N 
HETATM   21  H   UNL     1       8.069  27.011  55.877  1.00  0.00     0.280 HD
HETATM   22  C   UNL     1       7.589  27.826  57.707  1.00  0.00     0.263 C 
HETATM   23  C   UNL     1       7.600  29.182  58.457  1.00  0.00     0.263 C 
HETATM   24  N   UNL     1       8.910  29.957  58.262  1.00  0.00    -0.064 N 
HETATM   25  H   UNL     1       9.637  29.485  58.822  1.00  0.00     0.280 HD
HETATM   26  C   UNL     1       9.388  30.017  56.808  1.00  0.00     0.263 C 
HETATM   27  C   UNL     1       9.364  28.630  56.122  1.00  0.00     0.263 C 
BRANCH  24  28
HETATM   28  C   UNL     1       8.832  31.374  58.840  1.00  0.00     0.273 C 
BRANCH  28  29
HETATM   29  C   UNL     1       7.459  31.755  59.323  1.00  0.00    -0.032 A 
HETATM   30  C   UNL     1       7.220  31.964  60.691  1.00  0.00     0.011 A 
HETATM   31  C   UNL     1       5.946  32.325  61.143  1.00  0.00     0.037 A 
HETATM   32  C   UNL     1       4.898  32.471  60.225  1.00  0.00     0.102 A 
HETATM   33  C   UNL     1       5.122  32.262  58.859  1.00  0.00     0.037 A 
HETATM   34  C   UNL     1       6.399  31.910  58.412  1.00  0.00     0.011 A 
BRANCH  32  35
HETATM   35  N   UNL     1       3.556  32.841  60.697  1.00  0.00    -0.116 N 
HETATM   36  O   UNL     1       2.719  33.158  59.843  1.00  0.00    -0.532 OA
HETATM   37  O   UNL     1       3.364  32.832  61.919  1.00  0.00    -0.532 OA
ENDBRANCH  32  35
ENDBRANCH  28  29
ENDBRANCH  24  28
ENDBRANCH   1  20
TORSDOF 8
ENDMDL
