MODEL 1
REMARK VINA RESULT:      -8.8      0.000      0.000
REMARK  8 active torsions:
REMARK  status: ('A' for Active; 'I' for Inactive)
REMARK    1  A    between atoms: C_2  and  O_3 
REMARK    2  A    between atoms: O_3  and  C_4 
REMARK    3  A    between atoms: C_4  and  C_5 
REMARK    4  A    between atoms: C_6  and  C_7 
REMARK    5  A    between atoms: C_7  and  N_8 
REMARK    6  A    between atoms: C_12  and  N_13 
REMARK    7  A    between atoms: C_12  and  C_20 
REMARK       I    between atoms: C_20  and  N_21 
REMARK    8  A    between atoms: N_25  and  C_26 
ROOT
HETATM    1  N   UNL     1       7.233  27.434  54.823  1.00  0.00    -0.066 N 
HETATM    2  H   UNL     1       8.053  27.159  55.401  1.00  0.00     0.280 HD
HETATM    3  C   UNL     1       6.002  26.772  55.360  1.00  0.00     0.238 C 
HETATM    4  C   UNL     1       6.186  25.253  55.333  1.00  0.00     0.077 C 
HETATM    5  C   UNL     1       6.510  24.720  53.920  1.00  0.00     0.210 C 
HETATM    6  C   UNL     1       7.743  25.501  53.384  1.00  0.00     0.077 C 
HETATM    7  C   UNL     1       7.545  27.015  53.416  1.00  0.00     0.238 C 
ENDROOT
BRANCH   1   8
HETATM    8  C   UNL     1       7.209  28.957  54.961  1.00  0.00     0.294 C 
BRANCH   8   9
HETATM    9  C   UNL     1       6.244  29.465  55.974  1.00  0.00     0.080 C 
HETATM   10  C   UNL     1       6.365  29.684  57.349  1.00  0.00     0.085 C 
HETATM   11  C   UNL     1       5.063  30.009  57.768  1.00  0.00     0.159 C 
HETATM   12  N   UNL     1       4.189  29.950  56.771  1.00  0.00    -0.178 NA
HETATM   13  N   UNL     1       4.934  29.828  55.651  1.00  0.00    -0.235 N 
BRANCH  10  14
HETATM   14  C   UNL     1       7.545  29.515  58.175  1.00  0.00     0.296 C 
HETATM   15  O   UNL     1       7.970  28.395  58.452  1.00  0.00    -0.259 OA
BRANCH  14  16
HETATM   16  O   UNL     1       8.038  30.684  58.647  1.00  0.00    -0.318 OA
BRANCH  16  17
HETATM   17  C   UNL     1       9.418  30.693  59.049  1.00  0.00     0.174 C 
HETATM   18  C   UNL     1      10.315  30.976  57.857  1.00  0.00     0.034 C 
ENDBRANCH  16  17
ENDBRANCH  14  16
ENDBRANCH  10  14
BRANCH  13  19
HETATM   19  C   UNL     1       4.301  29.901  54.379  1.00  0.00     0.064 A 
HETATM   20  C   UNL     1       4.103  31.108  53.678  1.00  0.00    -0.033 A 
HETATM   21  C   UNL     1       4.297  32.486  54.246  1.00  0.00     0.050 C 
HETATM   22  C   UNL     1       3.557  31.041  52.380  1.00  0.00     0.009 A 
HETATM   23  C   UNL     1       3.155  29.827  51.823  1.00  0.00     0.001 A 
HETATM   24  C   UNL     1       3.276  28.654  52.557  1.00  0.00     0.002 A 
HETATM   25  C   UNL     1       3.838  28.690  53.832  1.00  0.00     0.032 A 
ENDBRANCH  13  19
ENDBRANCH   8   9
ENDBRANCH   1   8
BRANCH   5  26
HETATM   26  N   UNL     1       6.934  23.179  54.011  1.00  0.00    -0.053 N 
HETATM   27  H   UNL     1       6.072  22.624  53.918  1.00  0.00     0.281 HD
HETATM   28  C   UNL     1       7.872  22.685  52.916  1.00  0.00     0.236 C 
HETATM   29  C   UNL     1       8.017  21.171  52.998  1.00  0.00     0.028 C 
HETATM   30  C   UNL     1       8.532  20.726  54.359  1.00  0.00     0.003 C 
HETATM   31  C   UNL     1       7.662  21.284  55.474  1.00  0.00     0.028 C 
HETATM   32  C   UNL     1       7.526  22.799  55.381  1.00  0.00     0.236 C 
ENDBRANCH   5  26
BRANCH   5  33
HETATM   33  C   UNL     1       5.313  24.917  52.942  1.00  0.00     0.252 C 
HETATM   34  N   UNL     1       4.047  24.928  53.435  1.00  0.00    -0.368 N 
HETATM   35  H   UNL     1       3.744  24.840  54.397  1.00  0.00     0.159 HD
HETATM   36  H   UNL     1       3.292  25.030  52.756  1.00  0.00     0.159 HD
HETATM   37  O   UNL     1       5.495  25.022  51.733  1.00  0.00    -0.271 OA
ENDBRANCH   5  33
TORSDOF 8
ENDMDL
MODEL 2
REMARK VINA RESULT:      -8.8      2.299      8.105
REMARK  8 active torsions:
REMARK  status: ('A' for Active; 'I' for Inactive)
REMARK    1  A    between atoms: C_2  and  O_3 
REMARK    2  A    between atoms: O_3  and  C_4 
REMARK    3  A    between atoms: C_4  and  C_5 
REMARK    4  A    between atoms: C_6  and  C_7 
REMARK    5  A    between atoms: C_7  and  N_8 
REMARK    6  A    between atoms: C_12  and  N_13 
REMARK    7  A    between atoms: C_12  and  C_20 
REMARK       I    between atoms: C_20  and  N_21 
REMARK    8  A    between atoms: N_25  and  C_26 
ROOT
HETATM    1  N   UNL     1       6.164  26.231  56.470  1.00  0.00    -0.066 N 
HETATM    2  H   UNL     1       5.938  25.833  57.405  1.00  0.00     0.280 HD
HETATM    3  C   UNL     1       7.598  26.659  56.444  1.00  0.00     0.238 C 
HETATM    4  C   UNL     1       7.839  27.703  57.538  1.00  0.00     0.077 C 
HETATM    5  C   UNL     1       6.909  28.928  57.404  1.00  0.00     0.210 C 
HETATM    6  C   UNL     1       5.442  28.414  57.353  1.00  0.00     0.077 C 
HETATM    7  C   UNL     1       5.216  27.375  56.256  1.00  0.00     0.238 C 
ENDROOT
BRANCH   1   8
HETATM    8  C   UNL     1       5.863  25.070  55.520  1.00  0.00     0.294 C 
BRANCH   8   9
HETATM    9  C   UNL     1       6.793  24.970  54.363  1.00  0.00     0.080 C 
HETATM   10  C   UNL     1       7.027  25.821  53.279  1.00  0.00     0.085 C 
HETATM   11  C   UNL     1       7.895  25.096  52.445  1.00  0.00     0.159 C 
HETATM   12  N   UNL     1       8.147  23.883  52.922  1.00  0.00    -0.178 NA
HETATM   13  N   UNL     1       7.653  23.884  54.179  1.00  0.00    -0.235 N 
BRANCH  10  14
HETATM   14  C   UNL     1       6.429  27.117  53.022  1.00  0.00     0.296 C 
HETATM   15  O   UNL     1       7.030  28.156  53.289  1.00  0.00    -0.259 OA
BRANCH  14  16
HETATM   16  O   UNL     1       5.161  27.038  52.556  1.00  0.00    -0.318 OA
BRANCH  16  17
HETATM   17  C   UNL     1       4.939  27.461  51.200  1.00  0.00     0.174 C 
HETATM   18  C   UNL     1       4.904  26.262  50.269  1.00  0.00     0.034 C 
ENDBRANCH  16  17
ENDBRANCH  14  16
ENDBRANCH  10  14
BRANCH  13  19
HETATM   19  C   UNL     1       7.905  22.773  55.031  1.00  0.00     0.064 A 
HETATM   20  C   UNL     1       8.460  22.894  56.321  1.00  0.00    -0.033 A 
HETATM   21  C   UNL     1       9.080  24.140  56.888  1.00  0.00     0.050 C 
HETATM   22  C   UNL     1       8.568  21.731  57.111  1.00  0.00     0.009 A 
HETATM   23  C   UNL     1       8.203  20.480  56.613  1.00  0.00     0.001 A 
HETATM   24  C   UNL     1       7.738  20.361  55.309  1.00  0.00     0.002 A 
HETATM   25  C   UNL     1       7.597  21.499  54.518  1.00  0.00     0.032 A 
ENDBRANCH  13  19
ENDBRANCH   8   9
ENDBRANCH   1   8
BRANCH   5  26
HETATM   26  N   UNL     1       7.039  29.847  58.708  1.00  0.00    -0.053 N 
HETATM   27  H   UNL     1       6.521  29.374  59.462  1.00  0.00     0.281 HD
HETATM   28  C   UNL     1       8.455  30.050  59.235  1.00  0.00     0.236 C 
HETATM   29  C   UNL     1       8.412  30.753  60.586  1.00  0.00     0.028 C 
HETATM   30  C   UNL     1       7.694  32.093  60.503  1.00  0.00     0.003 C 
HETATM   31  C   UNL     1       6.310  31.926  59.894  1.00  0.00     0.028 C 
HETATM   32  C   UNL     1       6.368  31.223  58.544  1.00  0.00     0.236 C 
ENDBRANCH   5  26
BRANCH   5  33
HETATM   33  C   UNL     1       7.212  29.742  56.110  1.00  0.00     0.252 C 
HETATM   34  N   UNL     1       6.180  30.226  55.372  1.00  0.00    -0.368 N 
HETATM   35  H   UNL     1       5.186  30.151  55.552  1.00  0.00     0.159 HD
HETATM   36  H   UNL     1       6.423  30.727  54.517  1.00  0.00     0.159 HD
HETATM   37  O   UNL     1       8.366  29.916  55.728  1.00  0.00    -0.271 OA
ENDBRANCH   5  33
TORSDOF 8
ENDMDL
MODEL 3
REMARK VINA RESULT:      -8.7      3.136      6.805
REMARK  8 active torsions:
REMARK  status: ('A' for Active; 'I' for Inactive)
REMARK    1  A    between atoms: C_2  and  O_3 
REMARK    2  A    between atoms: O_3  and  C_4 
REMARK    3  A    between atoms: C_4  and  C_5 
REMARK    4  A    between atoms: C_6  and  C_7 
REMARK    5  A    between atoms: C_7  and  N_8 
REMARK    6  A    between atoms: C_12  and  N_13 
REMARK    7  A    between atoms: C_12  and  C_20 
REMARK       I    between atoms: C_20  and  N_21 
REMARK    8  A    between atoms: N_25  and  C_26 
ROOT
HETATM    1  N   UNL     1       5.657  27.164  52.863  1.00  0.00    -0.066 N 
HETATM    2  H   UNL     1       4.823  26.670  53.241  1.00  0.00     0.280 HD
HETATM    3  C   UNL     1       5.322  28.605  52.635  1.00  0.00     0.238 C 
HETATM    4  C   UNL     1       4.153  28.708  51.652  1.00  0.00     0.077 C 
HETATM    5  C   UNL     1       4.445  28.004  50.308  1.00  0.00     0.210 C 
HETATM    6  C   UNL     1       4.866  26.539  50.615  1.00  0.00     0.077 C 
HETATM    7  C   UNL     1       6.034  26.452  51.597  1.00  0.00     0.238 C 
ENDROOT
BRANCH   1   8
HETATM    8  C   UNL     1       6.706  26.953  53.956  1.00  0.00     0.294 C 
BRANCH   8   9
HETATM    9  C   UNL     1       6.174  26.346  55.206  1.00  0.00     0.080 C 
HETATM   10  C   UNL     1       5.304  26.837  56.183  1.00  0.00     0.085 C 
HETATM   11  C   UNL     1       5.323  25.859  57.193  1.00  0.00     0.159 C 
HETATM   12  N   UNL     1       6.162  24.869  56.912  1.00  0.00    -0.178 NA
HETATM   13  N   UNL     1       6.516  25.056  55.623  1.00  0.00    -0.235 N 
BRANCH  10  14
HETATM   14  C   UNL     1       4.615  28.113  56.201  1.00  0.00     0.296 C 
HETATM   15  O   UNL     1       3.770  28.389  55.351  1.00  0.00    -0.259 OA
BRANCH  14  16
HETATM   16  O   UNL     1       5.063  28.948  57.167  1.00  0.00    -0.318 OA
BRANCH  16  17
HETATM   17  C   UNL     1       6.292  29.645  56.907  1.00  0.00     0.174 C 
HETATM   18  C   UNL     1       7.325  29.312  57.970  1.00  0.00     0.034 C 
ENDBRANCH  16  17
ENDBRANCH  14  16
ENDBRANCH  10  14
BRANCH  13  19
HETATM   19  C   UNL     1       7.291  24.066  54.959  1.00  0.00     0.064 A 
HETATM   20  C   UNL     1       8.470  23.511  55.497  1.00  0.00    -0.033 A 
HETATM   21  C   UNL     1       9.205  24.033  56.700  1.00  0.00     0.050 C 
HETATM   22  C   UNL     1       9.095  22.463  54.792  1.00  0.00     0.009 A 
HETATM   23  C   UNL     1       8.608  22.026  53.560  1.00  0.00     0.001 A 
HETATM   24  C   UNL     1       7.495  22.638  52.997  1.00  0.00     0.002 A 
HETATM   25  C   UNL     1       6.843  23.658  53.688  1.00  0.00     0.032 A 
ENDBRANCH  13  19
ENDBRANCH   8   9
ENDBRANCH   1   8
BRANCH   5  26
HETATM   26  N   UNL     1       3.104  27.933  49.436  1.00  0.00    -0.053 N 
HETATM   27  H   UNL     1       2.332  27.732  50.088  1.00  0.00     0.281 HD
HETATM   28  C   UNL     1       2.717  29.217  48.711  1.00  0.00     0.236 C 
HETATM   29  C   UNL     1       1.326  29.075  48.106  1.00  0.00     0.028 C 
HETATM   30  C   UNL     1       1.245  27.896  47.148  1.00  0.00     0.003 C 
HETATM   31  C   UNL     1       1.713  26.617  47.825  1.00  0.00     0.028 C 
HETATM   32  C   UNL     1       3.105  26.772  48.425  1.00  0.00     0.236 C 
ENDBRANCH   5  26
BRANCH   5  33
HETATM   33  C   UNL     1       5.589  28.714  49.523  1.00  0.00     0.252 C 
HETATM   34  N   UNL     1       6.102  28.120  48.415  1.00  0.00    -0.368 N 
HETATM   35  H   UNL     1       5.829  27.245  47.984  1.00  0.00     0.159 HD
HETATM   36  H   UNL     1       6.870  28.605  47.950  1.00  0.00     0.159 HD
HETATM   37  O   UNL     1       6.058  29.779  49.915  1.00  0.00    -0.271 OA
ENDBRANCH   5  33
TORSDOF 8
ENDMDL
MODEL 4
REMARK VINA RESULT:      -8.6      2.973      6.683
REMARK  8 active torsions:
REMARK  status: ('A' for Active; 'I' for Inactive)
REMARK    1  A    between atoms: C_2  and  O_3 
REMARK    2  A    between atoms: O_3  and  C_4 
REMARK    3  A    between atoms: C_4  and  C_5 
REMARK    4  A    between atoms: C_6  and  C_7 
REMARK    5  A    between atoms: C_7  and  N_8 
REMARK    6  A    between atoms: C_12  and  N_13 
REMARK    7  A    between atoms: C_12  and  C_20 
REMARK       I    between atoms: C_20  and  N_21 
REMARK    8  A    between atoms: N_25  and  C_26 
ROOT
HETATM    1  N   UNL     1       5.940  27.179  53.046  1.00  0.00    -0.066 N 
HETATM    2  H   UNL     1       5.315  26.414  53.371  1.00  0.00     0.280 HD
HETATM    3  C   UNL     1       5.144  28.437  52.882  1.00  0.00     0.238 C 
HETATM    4  C   UNL     1       4.021  28.201  51.869  1.00  0.00     0.077 C 
HETATM    5  C   UNL     1       4.549  27.717  50.500  1.00  0.00     0.210 C 
HETATM    6  C   UNL     1       5.433  26.462  50.744  1.00  0.00     0.077 C 
HETATM    7  C   UNL     1       6.550  26.711  51.757  1.00  0.00     0.238 C 
ENDROOT
BRANCH   1   8
HETATM    8  C   UNL     1       6.985  27.266  54.159  1.00  0.00     0.294 C 
BRANCH   8   9
HETATM    9  C   UNL     1       6.746  26.338  55.297  1.00  0.00     0.080 C 
HETATM   10  C   UNL     1       6.596  24.948  55.351  1.00  0.00     0.085 C 
HETATM   11  C   UNL     1       6.228  24.686  56.682  1.00  0.00     0.159 C 
HETATM   12  N   UNL     1       6.103  25.800  57.393  1.00  0.00    -0.178 NA
HETATM   13  N   UNL     1       6.618  26.778  56.617  1.00  0.00    -0.235 N 
BRANCH  10  14
HETATM   14  C   UNL     1       6.697  24.001  54.257  1.00  0.00     0.296 C 
HETATM   15  O   UNL     1       5.906  24.034  53.316  1.00  0.00    -0.259 OA
BRANCH  14  16
HETATM   16  O   UNL     1       7.666  23.074  54.441  1.00  0.00    -0.318 OA
BRANCH  16  17
HETATM   17  C   UNL     1       8.234  22.485  53.260  1.00  0.00     0.174 C 
HETATM   18  C   UNL     1       7.935  20.996  53.214  1.00  0.00     0.034 C 
ENDBRANCH  16  17
ENDBRANCH  14  16
ENDBRANCH  10  14
BRANCH  13  19
HETATM   19  C   UNL     1       6.784  28.084  57.156  1.00  0.00     0.064 A 
HETATM   20  C   UNL     1       5.760  29.053  57.173  1.00  0.00    -0.033 A 
HETATM   21  C   UNL     1       4.456  28.953  56.433  1.00  0.00     0.050 C 
HETATM   22  C   UNL     1       6.013  30.277  57.826  1.00  0.00     0.009 A 
HETATM   23  C   UNL     1       7.261  30.558  58.382  1.00  0.00     0.001 A 
HETATM   24  C   UNL     1       8.289  29.630  58.283  1.00  0.00     0.002 A 
HETATM   25  C   UNL     1       8.057  28.402  57.667  1.00  0.00     0.032 A 
ENDBRANCH  13  19
ENDBRANCH   8   9
ENDBRANCH   1   8
BRANCH   5  26
HETATM   26  N   UNL     1       3.321  27.255  49.584  1.00  0.00    -0.053 N 
HETATM   27  H   UNL     1       2.679  26.722  50.188  1.00  0.00     0.281 HD
HETATM   28  C   UNL     1       2.489  28.378  48.976  1.00  0.00     0.236 C 
HETATM   29  C   UNL     1       1.242  27.805  48.316  1.00  0.00     0.028 C 
HETATM   30  C   UNL     1       1.589  26.782  47.245  1.00  0.00     0.003 C 
HETATM   31  C   UNL     1       2.495  25.697  47.808  1.00  0.00     0.028 C 
HETATM   32  C   UNL     1       3.738  26.284  48.464  1.00  0.00     0.236 C 
ENDBRANCH   5  26
BRANCH   5  33
HETATM   33  C   UNL     1       5.399  28.813  49.791  1.00  0.00     0.252 C 
HETATM   34  N   UNL     1       6.155  28.475  48.714  1.00  0.00    -0.368 N 
HETATM   35  H   UNL     1       6.242  27.572  48.264  1.00  0.00     0.159 HD
HETATM   36  H   UNL     1       6.719  29.217  48.298  1.00  0.00     0.159 HD
HETATM   37  O   UNL     1       5.427  29.965  50.215  1.00  0.00    -0.271 OA
ENDBRANCH   5  33
TORSDOF 8
ENDMDL
MODEL 5
REMARK VINA RESULT:      -8.6      2.116      7.696
REMARK  8 active torsions:
REMARK  status: ('A' for Active; 'I' for Inactive)
REMARK    1  A    between atoms: C_2  and  O_3 
REMARK    2  A    between atoms: O_3  and  C_4 
REMARK    3  A    between atoms: C_4  and  C_5 
REMARK    4  A    between atoms: C_6  and  C_7 
REMARK    5  A    between atoms: C_7  and  N_8 
REMARK    6  A    between atoms: C_12  and  N_13 
REMARK    7  A    between atoms: C_12  and  C_20 
REMARK       I    between atoms: C_20  and  N_21 
REMARK    8  A    between atoms: N_25  and  C_26 
ROOT
HETATM    1  N   UNL     1       7.865  27.598  55.417  1.00  0.00    -0.066 N 
HETATM    2  H   UNL     1       8.689  27.273  55.961  1.00  0.00     0.280 HD
HETATM    3  C   UNL     1       8.010  29.058  55.118  1.00  0.00     0.238 C 
HETATM    4  C   UNL     1       8.122  29.839  56.430  1.00  0.00     0.077 C 
HETATM    5  C   UNL     1       6.918  29.599  57.368  1.00  0.00     0.210 C 
HETATM    6  C   UNL     1       6.769  28.065  57.573  1.00  0.00     0.077 C 
HETATM    7  C   UNL     1       6.657  27.299  56.256  1.00  0.00     0.238 C 
ENDROOT
BRANCH   1   8
HETATM    8  C   UNL     1       7.909  26.719  54.166  1.00  0.00     0.294 C 
BRANCH   8   9
HETATM    9  C   UNL     1       6.573  26.286  53.675  1.00  0.00     0.080 C 
HETATM   10  C   UNL     1       5.487  27.007  53.171  1.00  0.00     0.085 C 
HETATM   11  C   UNL     1       4.463  26.053  53.039  1.00  0.00     0.159 C 
HETATM   12  N   UNL     1       4.841  24.855  53.467  1.00  0.00    -0.178 NA
HETATM   13  N   UNL     1       6.175  24.946  53.653  1.00  0.00    -0.235 N 
BRANCH  10  14
HETATM   14  C   UNL     1       5.402  28.435  52.933  1.00  0.00     0.296 C 
HETATM   15  O   UNL     1       4.692  29.153  53.635  1.00  0.00    -0.259 OA
BRANCH  14  16
HETATM   16  O   UNL     1       6.099  28.838  51.845  1.00  0.00    -0.318 OA
BRANCH  16  17
HETATM   17  C   UNL     1       5.474  28.648  50.565  1.00  0.00     0.174 C 
HETATM   18  C   UNL     1       5.712  29.856  49.675  1.00  0.00     0.034 C 
ENDBRANCH  16  17
ENDBRANCH  14  16
ENDBRANCH  10  14
BRANCH  13  19
HETATM   19  C   UNL     1       6.921  23.775  53.959  1.00  0.00     0.064 A 
HETATM   20  C   UNL     1       7.131  23.309  55.273  1.00  0.00    -0.033 A 
HETATM   21  C   UNL     1       6.823  24.076  56.528  1.00  0.00     0.050 C 
HETATM   22  C   UNL     1       7.800  22.079  55.444  1.00  0.00     0.009 A 
HETATM   23  C   UNL     1       8.306  21.371  54.354  1.00  0.00     0.001 A 
HETATM   24  C   UNL     1       8.169  21.883  53.070  1.00  0.00     0.002 A 
HETATM   25  C   UNL     1       7.488  23.083  52.872  1.00  0.00     0.032 A 
ENDBRANCH  13  19
ENDBRANCH   8   9
ENDBRANCH   1   8
BRANCH   5  26
HETATM   26  N   UNL     1       7.221  30.237  58.805  1.00  0.00    -0.053 N 
HETATM   27  H   UNL     1       6.685  29.691  59.494  1.00  0.00     0.281 HD
HETATM   28  C   UNL     1       8.674  30.179  59.261  1.00  0.00     0.236 C 
HETATM   29  C   UNL     1       8.781  30.617  60.716  1.00  0.00     0.028 C 
HETATM   30  C   UNL     1       8.229  32.019  60.926  1.00  0.00     0.003 C 
HETATM   31  C   UNL     1       6.808  32.125  60.393  1.00  0.00     0.028 C 
HETATM   32  C   UNL     1       6.715  31.685  58.938  1.00  0.00     0.236 C 
ENDBRANCH   5  26
BRANCH   5  33
HETATM   33  C   UNL     1       5.598  30.167  56.767  1.00  0.00     0.252 C 
HETATM   34  N   UNL     1       5.664  31.076  55.760  1.00  0.00    -0.368 N 
HETATM   35  H   UNL     1       6.485  31.451  55.301  1.00  0.00     0.159 HD
HETATM   36  H   UNL     1       4.776  31.445  55.416  1.00  0.00     0.159 HD
HETATM   37  O   UNL     1       4.504  29.835  57.216  1.00  0.00    -0.271 OA
ENDBRANCH   5  33
TORSDOF 8
ENDMDL
MODEL 6
REMARK VINA RESULT:      -8.5      2.109      7.144
REMARK  8 active torsions:
REMARK  status: ('A' for Active; 'I' for Inactive)
REMARK    1  A    between atoms: C_2  and  O_3 
REMARK    2  A    between atoms: O_3  and  C_4 
REMARK    3  A    between atoms: C_4  and  C_5 
REMARK    4  A    between atoms: C_6  and  C_7 
REMARK    5  A    between atoms: C_7  and  N_8 
REMARK    6  A    between atoms: C_12  and  N_13 
REMARK    7  A    between atoms: C_12  and  C_20 
REMARK       I    between atoms: C_20  and  N_21 
REMARK    8  A    between atoms: N_25  and  C_26 
ROOT
HETATM    1  N   UNL     1       5.842  26.430  54.290  1.00  0.00    -0.066 N 
HETATM    2  H   UNL     1       6.049  27.113  55.047  1.00  0.00     0.280 HD
HETATM    3  C   UNL     1       6.841  26.592  53.186  1.00  0.00     0.238 C 
HETATM    4  C   UNL     1       6.774  28.022  52.644  1.00  0.00     0.077 C 
HETATM    5  C   UNL     1       5.360  28.404  52.151  1.00  0.00     0.210 C 
HETATM    6  C   UNL     1       4.360  28.136  53.311  1.00  0.00     0.077 C 
HETATM    7  C   UNL     1       4.437  26.705  53.842  1.00  0.00     0.238 C 
ENDROOT
BRANCH   1   8
HETATM    8  C   UNL     1       5.947  25.082  55.005  1.00  0.00     0.294 C 
BRANCH   8   9
HETATM    9  C   UNL     1       7.102  24.972  55.937  1.00  0.00     0.080 C 
HETATM   10  C   UNL     1       7.527  25.782  56.994  1.00  0.00     0.085 C 
HETATM   11  C   UNL     1       8.768  25.241  57.373  1.00  0.00     0.159 C 
HETATM   12  N   UNL     1       9.124  24.222  56.601  1.00  0.00    -0.178 NA
HETATM   13  N   UNL     1       8.027  23.926  55.872  1.00  0.00    -0.235 N 
BRANCH  10  14
HETATM   14  C   UNL     1       6.884  26.973  57.515  1.00  0.00     0.296 C 
HETATM   15  O   UNL     1       5.727  27.254  57.209  1.00  0.00    -0.259 OA
BRANCH  14  16
HETATM   16  O   UNL     1       7.707  27.737  58.271  1.00  0.00    -0.318 OA
BRANCH  16  17
HETATM   17  C   UNL     1       8.173  28.965  57.688  1.00  0.00     0.174 C 
HETATM   18  C   UNL     1       7.449  30.151  58.301  1.00  0.00     0.034 C 
ENDBRANCH  16  17
ENDBRANCH  14  16
ENDBRANCH  10  14
BRANCH  13  19
HETATM   19  C   UNL     1       8.024  22.764  55.051  1.00  0.00     0.064 A 
HETATM   20  C   UNL     1       8.010  21.451  55.563  1.00  0.00    -0.033 A 
HETATM   21  C   UNL     1       8.236  21.075  57.000  1.00  0.00     0.050 C 
HETATM   22  C   UNL     1       7.905  20.382  54.649  1.00  0.00     0.009 A 
HETATM   23  C   UNL     1       7.885  20.604  53.272  1.00  0.00     0.001 A 
HETATM   24  C   UNL     1       7.987  21.897  52.777  1.00  0.00     0.002 A 
HETATM   25  C   UNL     1       8.064  22.973  53.659  1.00  0.00     0.032 A 
ENDBRANCH  13  19
ENDBRANCH   8   9
ENDBRANCH   1   8
BRANCH   5  26
HETATM   26  N   UNL     1       5.306  29.973  51.839  1.00  0.00    -0.053 N 
HETATM   27  H   UNL     1       6.026  30.421  52.422  1.00  0.00     0.281 HD
HETATM   28  C   UNL     1       5.622  30.373  50.402  1.00  0.00     0.236 C 
HETATM   29  C   UNL     1       5.747  31.887  50.298  1.00  0.00     0.028 C 
HETATM   30  C   UNL     1       4.482  32.592  50.763  1.00  0.00     0.003 C 
HETATM   31  C   UNL     1       4.096  32.139  52.163  1.00  0.00     0.028 C 
HETATM   32  C   UNL     1       3.974  30.623  52.253  1.00  0.00     0.236 C 
ENDBRANCH   5  26
BRANCH   5  33
HETATM   33  C   UNL     1       4.939  27.567  50.906  1.00  0.00     0.252 C 
HETATM   34  N   UNL     1       5.854  26.761  50.307  1.00  0.00    -0.368 N 
HETATM   35  H   UNL     1       6.818  26.597  50.570  1.00  0.00     0.159 HD
HETATM   36  H   UNL     1       5.544  26.254  49.477  1.00  0.00     0.159 HD
HETATM   37  O   UNL     1       3.808  27.657  50.437  1.00  0.00    -0.271 OA
ENDBRANCH   5  33
TORSDOF 8
ENDMDL
MODEL 7
REMARK VINA RESULT:      -8.2      2.730      7.602
REMARK  8 active torsions:
REMARK  status: ('A' for Active; 'I' for Inactive)
REMARK    1  A    between atoms: C_2  and  O_3 
REMARK    2  A    between atoms: O_3  and  C_4 
REMARK    3  A    between atoms: C_4  and  C_5 
REMARK    4  A    between atoms: C_6  and  C_7 
REMARK    5  A    between atoms: C_7  and  N_8 
REMARK    6  A    between atoms: C_12  and  N_13 
REMARK    7  A    between atoms: C_12  and  C_20 
REMARK       I    between atoms: C_20  and  N_21 
REMARK    8  A    between atoms: N_25  and  C_26 
ROOT
HETATM    1  N   UNL     1       4.542  28.914  54.916  1.00  0.00    -0.066 N 
HETATM    2  H   UNL     1       5.506  28.582  54.708  1.00  0.00     0.280 HD
HETATM    3  C   UNL     1       4.534  30.410  54.977  1.00  0.00     0.238 C 
HETATM    4  C   UNL     1       5.504  30.882  56.062  1.00  0.00     0.077 C 
HETATM    5  C   UNL     1       5.178  30.286  57.449  1.00  0.00     0.210 C 
HETATM    6  C   UNL     1       5.120  28.739  57.304  1.00  0.00     0.077 C 
HETATM    7  C   UNL     1       4.147  28.282  56.218  1.00  0.00     0.238 C 
ENDROOT
BRANCH   1   8
HETATM    8  C   UNL     1       3.726  28.352  53.751  1.00  0.00     0.294 C 
BRANCH   8   9
HETATM    9  C   UNL     1       4.545  27.867  52.608  1.00  0.00     0.080 C 
HETATM   10  C   UNL     1       4.484  28.136  51.237  1.00  0.00     0.085 C 
HETATM   11  C   UNL     1       5.411  27.249  50.664  1.00  0.00     0.159 C 
HETATM   12  N   UNL     1       5.968  26.456  51.571  1.00  0.00    -0.178 NA
HETATM   13  N   UNL     1       5.604  26.969  52.765  1.00  0.00    -0.235 N 
BRANCH  10  14
HETATM   14  C   UNL     1       3.593  29.052  50.550  1.00  0.00     0.296 C 
HETATM   15  O   UNL     1       2.378  29.015  50.738  1.00  0.00    -0.259 OA
BRANCH  14  16
HETATM   16  O   UNL     1       4.229  29.849  49.660  1.00  0.00    -0.318 OA
BRANCH  16  17
HETATM   17  C   UNL     1       4.495  31.200  50.071  1.00  0.00     0.174 C 
HETATM   18  C   UNL     1       5.949  31.555  49.815  1.00  0.00     0.034 C 
ENDBRANCH  16  17
ENDBRANCH  14  16
ENDBRANCH  10  14
BRANCH  13  19
HETATM   19  C   UNL     1       6.173  26.440  53.957  1.00  0.00     0.064 A 
HETATM   20  C   UNL     1       7.223  27.064  54.660  1.00  0.00    -0.033 A 
HETATM   21  C   UNL     1       8.046  28.216  54.153  1.00  0.00     0.050 C 
HETATM   22  C   UNL     1       7.634  26.498  55.884  1.00  0.00     0.009 A 
HETATM   23  C   UNL     1       7.071  25.313  56.360  1.00  0.00     0.001 A 
HETATM   24  C   UNL     1       6.098  24.660  55.615  1.00  0.00     0.002 A 
HETATM   25  C   UNL     1       5.655  25.214  54.416  1.00  0.00     0.032 A 
ENDBRANCH  13  19
ENDBRANCH   8   9
ENDBRANCH   1   8
BRANCH   5  26
HETATM   26  N   UNL     1       6.368  30.616  58.469  1.00  0.00    -0.053 N 
HETATM   27  H   UNL     1       6.178  30.089  59.332  1.00  0.00     0.281 HD
HETATM   28  C   UNL     1       7.762  30.197  58.017  1.00  0.00     0.236 C 
HETATM   29  C   UNL     1       8.754  30.371  59.160  1.00  0.00     0.028 C 
HETATM   30  C   UNL     1       8.785  31.805  59.668  1.00  0.00     0.003 C 
HETATM   31  C   UNL     1       7.387  32.276  60.039  1.00  0.00     0.028 C 
HETATM   32  C   UNL     1       6.406  32.097  58.888  1.00  0.00     0.236 C 
ENDBRANCH   5  26
BRANCH   5  33
HETATM   33  C   UNL     1       3.812  30.803  57.992  1.00  0.00     0.252 C 
HETATM   34  N   UNL     1       3.282  30.234  59.105  1.00  0.00    -0.368 N 
HETATM   35  H   UNL     1       3.667  29.496  59.682  1.00  0.00     0.159 HD
HETATM   36  H   UNL     1       2.371  30.583  59.408  1.00  0.00     0.159 HD
HETATM   37  O   UNL     1       3.192  31.685  57.405  1.00  0.00    -0.271 OA
ENDBRANCH   5  33
TORSDOF 8
ENDMDL
MODEL 8
REMARK VINA RESULT:      -7.9      2.665      6.601
REMARK  8 active torsions:
REMARK  status: ('A' for Active; 'I' for Inactive)
REMARK    1  A    between atoms: C_2  and  O_3 
REMARK    2  A    between atoms: O_3  and  C_4 
REMARK    3  A    between atoms: C_4  and  C_5 
REMARK    4  A    between atoms: C_6  and  C_7 
REMARK    5  A    between atoms: C_7  and  N_8 
REMARK    6  A    between atoms: C_12  and  N_13 
REMARK    7  A    between atoms: C_12  and  C_20 
REMARK       I    between atoms: C_20  and  N_21 
REMARK    8  A    between atoms: N_25  and  C_26 
ROOT
HETATM    1  N   UNL     1       5.624  28.472  54.222  1.00  0.00    -0.066 N 
HETATM    2  H   UNL     1       5.309  27.482  54.273  1.00  0.00     0.280 HD
HETATM    3  C   UNL     1       4.461  29.347  53.870  1.00  0.00     0.238 C 
HETATM    4  C   UNL     1       3.879  28.905  52.525  1.00  0.00     0.077 C 
HETATM    5  C   UNL     1       4.927  28.922  51.391  1.00  0.00     0.210 C 
HETATM    6  C   UNL     1       6.142  28.066  51.848  1.00  0.00     0.077 C 
HETATM    7  C   UNL     1       6.713  28.519  53.191  1.00  0.00     0.238 C 
ENDROOT
BRANCH   1   8
HETATM    8  C   UNL     1       6.172  28.732  55.626  1.00  0.00     0.294 C 
BRANCH   8   9
HETATM    9  C   UNL     1       7.045  27.648  56.153  1.00  0.00     0.080 C 
HETATM   10  C   UNL     1       7.116  26.283  55.858  1.00  0.00     0.085 C 
HETATM   11  C   UNL     1       8.021  25.767  56.802  1.00  0.00     0.159 C 
HETATM   12  N   UNL     1       8.444  26.699  57.647  1.00  0.00    -0.178 NA
HETATM   13  N   UNL     1       8.021  27.871  57.128  1.00  0.00    -0.235 N 
BRANCH  10  14
HETATM   14  C   UNL     1       6.352  25.546  54.870  1.00  0.00     0.296 C 
HETATM   15  O   UNL     1       5.126  25.480  54.936  1.00  0.00    -0.259 OA
BRANCH  14  16
HETATM   16  O   UNL     1       7.128  24.904  53.965  1.00  0.00    -0.318 OA
BRANCH  16  17
HETATM   17  C   UNL     1       7.004  23.474  53.900  1.00  0.00     0.174 C 
HETATM   18  C   UNL     1       8.011  22.899  52.919  1.00  0.00     0.034 C 
ENDBRANCH  16  17
ENDBRANCH  14  16
ENDBRANCH  10  14
BRANCH  13  19
HETATM   19  C   UNL     1       8.451  29.093  57.715  1.00  0.00     0.064 A 
HETATM   20  C   UNL     1       9.661  29.732  57.380  1.00  0.00    -0.033 A 
HETATM   21  C   UNL     1      10.767  29.127  56.562  1.00  0.00     0.050 C 
HETATM   22  C   UNL     1       9.930  30.992  57.955  1.00  0.00     0.009 A 
HETATM   23  C   UNL     1       9.062  31.566  58.884  1.00  0.00     0.001 A 
HETATM   24  C   UNL     1       7.914  30.886  59.272  1.00  0.00     0.002 A 
HETATM   25  C   UNL     1       7.612  29.653  58.698  1.00  0.00     0.032 A 
ENDBRANCH  13  19
ENDBRANCH   8   9
ENDBRANCH   1   8
BRANCH   5  26
HETATM   26  N   UNL     1       4.320  28.216  50.089  1.00  0.00    -0.053 N 
HETATM   27  H   UNL     1       4.777  28.646  49.273  1.00  0.00     0.281 HD
HETATM   28  C   UNL     1       4.572  26.717  49.970  1.00  0.00     0.236 C 
HETATM   29  C   UNL     1       4.136  26.222  48.598  1.00  0.00     0.028 C 
HETATM   30  C   UNL     1       2.668  26.521  48.329  1.00  0.00     0.003 C 
HETATM   31  C   UNL     1       2.374  27.999  48.531  1.00  0.00     0.028 C 
HETATM   32  C   UNL     1       2.814  28.481  49.908  1.00  0.00     0.236 C 
ENDBRANCH   5  26
BRANCH   5  33
HETATM   33  C   UNL     1       5.408  30.369  51.073  1.00  0.00     0.252 C 
HETATM   34  N   UNL     1       4.778  31.422  51.656  1.00  0.00    -0.368 N 
HETATM   35  H   UNL     1       4.011  31.411  52.317  1.00  0.00     0.159 HD
HETATM   36  H   UNL     1       5.107  32.353  51.397  1.00  0.00     0.159 HD
HETATM   37  O   UNL     1       6.320  30.572  50.276  1.00  0.00    -0.271 OA
ENDBRANCH   5  33
TORSDOF 8
ENDMDL
MODEL 9
REMARK VINA RESULT:      -7.9      2.835      7.721
REMARK  8 active torsions:
REMARK  status: ('A' for Active; 'I' for Inactive)
REMARK    1  A    between atoms: C_2  and  O_3 
REMARK    2  A    between atoms: O_3  and  C_4 
REMARK    3  A    between atoms: C_4  and  C_5 
REMARK    4  A    between atoms: C_6  and  C_7 
REMARK    5  A    between atoms: C_7  and  N_8 
REMARK    6  A    between atoms: C_12  and  N_13 
REMARK    7  A    between atoms: C_12  and  C_20 
REMARK       I    between atoms: C_20  and  N_21 
REMARK    8  A    between atoms: N_25  and  C_26 
ROOT
HETATM    1  N   UNL     1       4.613  29.445  54.935  1.00  0.00    -0.066 N 
HETATM    2  H   UNL     1       5.588  29.165  54.705  1.00  0.00     0.280 HD
HETATM    3  C   UNL     1       4.561  30.923  55.170  1.00  0.00     0.238 C 
HETATM    4  C   UNL     1       5.504  31.290  56.319  1.00  0.00     0.077 C 
HETATM    5  C   UNL     1       5.178  30.526  57.621  1.00  0.00     0.210 C 
HETATM    6  C   UNL     1       5.165  29.006  57.295  1.00  0.00     0.077 C 
HETATM    7  C   UNL     1       4.219  28.654  56.148  1.00  0.00     0.238 C 
ENDROOT
BRANCH   1   8
HETATM    8  C   UNL     1       3.827  29.002  53.700  1.00  0.00     0.294 C 
BRANCH   8   9
HETATM    9  C   UNL     1       4.577  29.126  52.421  1.00  0.00     0.080 C 
HETATM   10  C   UNL     1       4.605  30.133  51.451  1.00  0.00     0.085 C 
HETATM   11  C   UNL     1       5.372  29.592  50.405  1.00  0.00     0.159 C 
HETATM   12  N   UNL     1       5.751  28.345  50.659  1.00  0.00    -0.178 NA
HETATM   13  N   UNL     1       5.451  28.138  51.959  1.00  0.00    -0.235 N 
BRANCH  10  14
HETATM   14  C   UNL     1       3.914  31.408  51.473  1.00  0.00     0.296 C 
HETATM   15  O   UNL     1       4.538  32.466  51.545  1.00  0.00    -0.259 OA
BRANCH  14  16
HETATM   16  O   UNL     1       2.566  31.285  51.491  1.00  0.00    -0.318 OA
BRANCH  16  17
HETATM   17  C   UNL     1       1.948  30.731  50.318  1.00  0.00     0.174 C 
HETATM   18  C   UNL     1       1.340  31.834  49.469  1.00  0.00     0.034 C 
ENDBRANCH  16  17
ENDBRANCH  14  16
ENDBRANCH  10  14
BRANCH  13  19
HETATM   19  C   UNL     1       5.881  26.941  52.595  1.00  0.00     0.064 A 
HETATM   20  C   UNL     1       6.863  26.907  53.606  1.00  0.00    -0.033 A 
HETATM   21  C   UNL     1       7.757  28.054  53.989  1.00  0.00     0.050 C 
HETATM   22  C   UNL     1       7.131  25.673  54.233  1.00  0.00     0.009 A 
HETATM   23  C   UNL     1       6.499  24.499  53.823  1.00  0.00     0.001 A 
HETATM   24  C   UNL     1       5.596  24.530  52.767  1.00  0.00     0.002 A 
HETATM   25  C   UNL     1       5.294  25.742  52.150  1.00  0.00     0.032 A 
ENDBRANCH  13  19
ENDBRANCH   8   9
ENDBRANCH   1   8
BRANCH   5  26
HETATM   26  N   UNL     1       6.344  30.766  58.691  1.00  0.00    -0.053 N 
HETATM   27  H   UNL     1       6.108  30.208  59.524  1.00  0.00     0.281 HD
HETATM   28  C   UNL     1       7.736  30.314  58.264  1.00  0.00     0.236 C 
HETATM   29  C   UNL     1       8.696  30.400  59.444  1.00  0.00     0.028 C 
HETATM   30  C   UNL     1       8.763  31.808  60.017  1.00  0.00     0.003 C 
HETATM   31  C   UNL     1       7.372  32.315  60.366  1.00  0.00     0.028 C 
HETATM   32  C   UNL     1       6.423  32.224  59.177  1.00  0.00     0.236 C 
ENDBRANCH   5  26
BRANCH   5  33
HETATM   33  C   UNL     1       3.791  30.939  58.199  1.00  0.00     0.252 C 
HETATM   34  N   UNL     1       3.264  30.231  59.231  1.00  0.00    -0.368 N 
HETATM   35  H   UNL     1       3.664  29.442  59.724  1.00  0.00     0.159 HD
HETATM   36  H   UNL     1       2.340  30.517  59.558  1.00  0.00     0.159 HD
HETATM   37  O   UNL     1       3.152  31.866  57.709  1.00  0.00    -0.271 OA
ENDBRANCH   5  33
TORSDOF 8
ENDMDL
MODEL 10
REMARK VINA RESULT:      -7.9      1.801      2.186
REMARK  8 active torsions:
REMARK  status: ('A' for Active; 'I' for Inactive)
REMARK    1  A    between atoms: C_2  and  O_3 
REMARK    2  A    between atoms: O_3  and  C_4 
REMARK    3  A    between atoms: C_4  and  C_5 
REMARK    4  A    between atoms: C_6  and  C_7 
REMARK    5  A    between atoms: C_7  and  N_8 
REMARK    6  A    between atoms: C_12  and  N_13 
REMARK    7  A    between atoms: C_12  and  C_20 
REMARK       I    between atoms: C_20  and  N_21 
REMARK    8  A    between atoms: N_25  and  C_26 
ROOT
HETATM    1  N   UNL     1       6.246  28.394  55.164  1.00  0.00    -0.066 N 
HETATM    2  H   UNL     1       6.989  28.314  55.888  1.00  0.00     0.280 HD
HETATM    3  C   UNL     1       5.130  27.450  55.489  1.00  0.00     0.238 C 
HETATM    4  C   UNL     1       5.671  26.018  55.539  1.00  0.00     0.077 C 
HETATM    5  C   UNL     1       6.364  25.600  54.223  1.00  0.00     0.210 C 
HETATM    6  C   UNL     1       7.453  26.660  53.897  1.00  0.00     0.077 C 
HETATM    7  C   UNL     1       6.899  28.084  53.849  1.00  0.00     0.238 C 
ENDROOT
BRANCH   1   8
HETATM    8  C   UNL     1       5.837  29.865  55.252  1.00  0.00     0.294 C 
BRANCH   8   9
HETATM    9  C   UNL     1       5.926  30.444  56.620  1.00  0.00     0.080 C 
HETATM   10  C   UNL     1       6.799  30.194  57.683  1.00  0.00     0.085 C 
HETATM   11  C   UNL     1       6.268  30.932  58.754  1.00  0.00     0.159 C 
HETATM   12  N   UNL     1       5.140  31.548  58.424  1.00  0.00    -0.178 NA
HETATM   13  N   UNL     1       5.046  31.427  57.082  1.00  0.00    -0.235 N 
BRANCH  10  14
HETATM   14  C   UNL     1       7.938  29.295  57.705  1.00  0.00     0.296 C 
HETATM   15  O   UNL     1       7.789  28.081  57.582  1.00  0.00    -0.259 OA
BRANCH  14  16
HETATM   16  O   UNL     1       9.110  29.924  57.953  1.00  0.00    -0.318 OA
BRANCH  16  17
HETATM   17  C   UNL     1       9.976  30.153  56.829  1.00  0.00     0.174 C 
HETATM   18  C   UNL     1      11.385  29.681  57.141  1.00  0.00     0.034 C 
ENDBRANCH  16  17
ENDBRANCH  14  16
ENDBRANCH  10  14
BRANCH  13  19
HETATM   19  C   UNL     1       4.021  32.124  56.386  1.00  0.00     0.064 A 
HETATM   20  C   UNL     1       4.104  33.489  56.044  1.00  0.00    -0.033 A 
HETATM   21  C   UNL     1       5.139  34.452  56.555  1.00  0.00     0.050 C 
HETATM   22  C   UNL     1       3.069  34.044  55.264  1.00  0.00     0.009 A 
HETATM   23  C   UNL     1       1.955  33.290  54.894  1.00  0.00     0.001 A 
HETATM   24  C   UNL     1       1.843  31.969  55.310  1.00  0.00     0.002 A 
HETATM   25  C   UNL     1       2.865  31.390  56.059  1.00  0.00     0.032 A 
ENDBRANCH  13  19
ENDBRANCH   8   9
ENDBRANCH   1   8
BRANCH   5  26
HETATM   26  N   UNL     1       7.117  24.203  54.434  1.00  0.00    -0.053 N 
HETATM   27  H   UNL     1       6.393  23.496  54.619  1.00  0.00     0.281 HD
HETATM   28  C   UNL     1       7.908  23.691  53.235  1.00  0.00     0.236 C 
HETATM   29  C   UNL     1       8.387  22.269  53.497  1.00  0.00     0.028 C 
HETATM   30  C   UNL     1       9.240  22.182  54.753  1.00  0.00     0.003 C 
HETATM   31  C   UNL     1       8.505  22.773  55.946  1.00  0.00     0.028 C 
HETATM   32  C   UNL     1       8.032  24.195  55.672  1.00  0.00     0.236 C 
ENDBRANCH   5  26
BRANCH   5  33
HETATM   33  C   UNL     1       5.353  25.522  53.040  1.00  0.00     0.252 C 
HETATM   34  N   UNL     1       4.115  25.007  53.257  1.00  0.00    -0.368 N 
HETATM   35  H   UNL     1       3.718  24.662  54.123  1.00  0.00     0.159 HD
HETATM   36  H   UNL     1       3.496  24.946  52.448  1.00  0.00     0.159 HD
HETATM   37  O   UNL     1       5.673  25.880  51.910  1.00  0.00    -0.271 OA
ENDBRANCH   5  33
TORSDOF 8
ENDMDL
