MODEL 1
REMARK VINA RESULT:      -8.1      0.000      0.000
REMARK  5 active torsions:
REMARK  status: ('A' for Active; 'I' for Inactive)
REMARK    1  A    between atoms: C_8  and  N_9 
REMARK       I    between atoms: N_9  and  C_10 
REMARK       I    between atoms: C_10  and  N_11 
REMARK    2  A    between atoms: N_11  and  C_12 
REMARK    3  A    between atoms: C_13  and  O_14 
REMARK    4  A    between atoms: O_14  and  C_15 
REMARK    5  A    between atoms: C_15  and  C_16 
ROOT
HETATM    1  N   UNL     1       5.819  26.746  50.980  1.00  0.00    -0.305 N 
HETATM    2  C   UNL     1       5.858  25.613  51.770  1.00  0.00     0.325 C 
HETATM    3  N   UNL     1       7.167  25.293  52.081  1.00  0.00    -0.306 N 
HETATM    4  O   UNL     1       4.881  24.983  52.151  1.00  0.00    -0.247 OA
HETATM    5  H   UNL     1       6.616  27.361  51.047  1.00  0.00     0.171 HD
HETATM    6  H   UNL     1       7.884  25.695  51.490  1.00  0.00     0.171 HD
ENDROOT
BRANCH   3   7
HETATM    7  C   UNL     1       7.627  24.295  52.970  1.00  0.00     0.071 A 
HETATM    8  C   UNL     1       7.833  24.673  54.310  1.00  0.00     0.096 A 
HETATM    9  C   UNL     1       8.238  23.739  55.265  1.00  0.00     0.041 A 
HETATM   10  C   UNL     1       8.475  22.420  54.878  1.00  0.00     0.026 A 
HETATM   11  C   UNL     1       8.291  22.045  53.548  1.00  0.00     0.036 A 
HETATM   12 CL   UNL     1       8.577  20.411  53.085  1.00  0.00    -0.084 Cl
HETATM   13  C   UNL     1       7.865  22.971  52.594  1.00  0.00     0.056 A 
BRANCH   8  14
HETATM   14  O   UNL     1       7.570  25.978  54.651  1.00  0.00    -0.340 OA
BRANCH  14  15
HETATM   15  C   UNL     1       7.131  26.106  56.018  1.00  0.00     0.293 C 
BRANCH  15  16
HETATM   16  C   UNL     1       5.615  26.206  56.067  1.00  0.00     0.408 C 
HETATM   17  F   UNL     1       5.213  27.108  56.991  1.00  0.00    -0.169 F 
HETATM   18  F   UNL     1       5.101  26.579  54.875  1.00  0.00    -0.169 F 
HETATM   19  F   UNL     1       5.067  25.014  56.393  1.00  0.00    -0.169 F 
ENDBRANCH  15  16
ENDBRANCH  14  15
ENDBRANCH   8  14
ENDBRANCH   3   7
BRANCH   1  20
HETATM   20  C   UNL     1       4.705  27.272  50.347  1.00  0.00     0.086 A 
HETATM   21  C   UNL     1       3.835  28.134  50.989  1.00  0.00     0.052 A 
HETATM   22  C   UNL     1       3.801  28.681  52.365  1.00  0.00     0.072 C 
HETATM   23  N   UNL     1       2.874  28.445  50.071  1.00  0.00    -0.280 N 
HETATM   24  H   UNL     1       2.064  29.044  50.189  1.00  0.00     0.189 HD
HETATM   25  N   UNL     1       3.064  27.880  48.875  1.00  0.00    -0.177 NA
HETATM   26  C   UNL     1       4.186  27.159  49.023  1.00  0.00     0.079 A 
HETATM   27  C   UNL     1       4.717  26.436  47.839  1.00  0.00     0.075 C 
ENDBRANCH   1  20
TORSDOF 5
ENDMDL
MODEL 2
REMARK VINA RESULT:      -7.9      0.376      1.808
REMARK  5 active torsions:
REMARK  status: ('A' for Active; 'I' for Inactive)
REMARK    1  A    between atoms: C_8  and  N_9 
REMARK       I    between atoms: N_9  and  C_10 
REMARK       I    between atoms: C_10  and  N_11 
REMARK    2  A    between atoms: N_11  and  C_12 
REMARK    3  A    between atoms: C_13  and  O_14 
REMARK    4  A    between atoms: O_14  and  C_15 
REMARK    5  A    between atoms: C_15  and  C_16 
ROOT
HETATM    1  N   UNL     1       5.779  26.920  50.828  1.00  0.00    -0.305 N 
HETATM    2  C   UNL     1       5.804  25.834  51.683  1.00  0.00     0.325 C 
HETATM    3  N   UNL     1       7.105  25.400  51.864  1.00  0.00    -0.306 N 
HETATM    4  O   UNL     1       4.825  25.328  52.213  1.00  0.00    -0.247 OA
HETATM    5  H   UNL     1       6.632  27.453  50.764  1.00  0.00     0.171 HD
HETATM    6  H   UNL     1       7.781  25.695  51.170  1.00  0.00     0.171 HD
ENDROOT
BRANCH   3   7
HETATM    7  C   UNL     1       7.571  24.411  52.760  1.00  0.00     0.071 A 
HETATM    8  C   UNL     1       7.850  24.818  54.078  1.00  0.00     0.096 A 
HETATM    9  C   UNL     1       8.267  23.897  55.041  1.00  0.00     0.041 A 
HETATM   10  C   UNL     1       8.442  22.561  54.682  1.00  0.00     0.026 A 
HETATM   11  C   UNL     1       8.186  22.156  53.372  1.00  0.00     0.036 A 
HETATM   12 CL   UNL     1       8.397  20.502  52.944  1.00  0.00    -0.084 Cl
HETATM   13  C   UNL     1       7.748  23.070  52.412  1.00  0.00     0.056 A 
BRANCH   8  14
HETATM   14  O   UNL     1       7.646  26.141  54.393  1.00  0.00    -0.340 OA
BRANCH  14  15
HETATM   15  C   UNL     1       7.102  26.307  55.718  1.00  0.00     0.293 C 
BRANCH  15  16
HETATM   16  C   UNL     1       5.586  26.372  55.650  1.00  0.00     0.408 C 
HETATM   17  F   UNL     1       5.174  27.231  54.689  1.00  0.00    -0.169 F 
HETATM   18  F   UNL     1       5.046  25.163  55.382  1.00  0.00    -0.169 F 
HETATM   19  F   UNL     1       5.072  26.797  56.826  1.00  0.00    -0.169 F 
ENDBRANCH  15  16
ENDBRANCH  14  15
ENDBRANCH   8  14
ENDBRANCH   3   7
BRANCH   1  20
HETATM   20  C   UNL     1       4.651  27.519  50.292  1.00  0.00     0.086 A 
HETATM   21  C   UNL     1       4.237  27.275  48.996  1.00  0.00     0.052 A 
HETATM   22  C   UNL     1       4.791  26.437  47.908  1.00  0.00     0.072 C 
HETATM   23  N   UNL     1       3.107  28.021  48.819  1.00  0.00    -0.280 N 
HETATM   24  H   UNL     1       2.533  28.104  47.988  1.00  0.00     0.189 HD
HETATM   25  N   UNL     1       2.736  28.707  49.904  1.00  0.00    -0.177 NA
HETATM   26  C   UNL     1       3.669  28.407  50.822  1.00  0.00     0.079 A 
HETATM   27  C   UNL     1       3.517  28.973  52.187  1.00  0.00     0.075 C 
ENDBRANCH   1  20
TORSDOF 5
ENDMDL
MODEL 3
REMARK VINA RESULT:      -7.9      3.263      4.236
REMARK  5 active torsions:
REMARK  status: ('A' for Active; 'I' for Inactive)
REMARK    1  A    between atoms: C_8  and  N_9 
REMARK       I    between atoms: N_9  and  C_10 
REMARK       I    between atoms: C_10  and  N_11 
REMARK    2  A    between atoms: N_11  and  C_12 
REMARK    3  A    between atoms: C_13  and  O_14 
REMARK    4  A    between atoms: O_14  and  C_15 
REMARK    5  A    between atoms: C_15  and  C_16 
ROOT
HETATM    1  N   UNL     1       5.378  25.996  50.088  1.00  0.00    -0.305 N 
HETATM    2  C   UNL     1       5.236  26.137  51.456  1.00  0.00     0.325 C 
HETATM    3  N   UNL     1       5.846  25.080  52.109  1.00  0.00    -0.306 N 
HETATM    4  O   UNL     1       4.664  27.061  52.017  1.00  0.00    -0.247 OA
HETATM    5  H   UNL     1       6.154  25.431  49.778  1.00  0.00     0.171 HD
HETATM    6  H   UNL     1       6.024  24.250  51.558  1.00  0.00     0.171 HD
ENDROOT
BRANCH   3   7
HETATM    7  C   UNL     1       6.042  24.919  53.499  1.00  0.00     0.071 A 
HETATM    8  C   UNL     1       6.859  23.851  53.913  1.00  0.00     0.096 A 
HETATM    9  C   UNL     1       7.146  23.649  55.265  1.00  0.00     0.041 A 
HETATM   10  C   UNL     1       6.587  24.498  56.220  1.00  0.00     0.026 A 
HETATM   11  C   UNL     1       5.761  25.546  55.816  1.00  0.00     0.036 A 
HETATM   12 CL   UNL     1       5.085  26.593  57.004  1.00  0.00    -0.084 Cl
HETATM   13  C   UNL     1       5.489  25.765  54.464  1.00  0.00     0.056 A 
BRANCH   8  14
HETATM   14  O   UNL     1       7.404  23.050  52.938  1.00  0.00    -0.340 OA
BRANCH  14  15
HETATM   15  C   UNL     1       8.485  22.239  53.441  1.00  0.00     0.293 C 
BRANCH  15  16
HETATM   16  C   UNL     1       8.069  20.778  53.460  1.00  0.00     0.408 C 
HETATM   17  F   UNL     1       7.585  20.421  54.672  1.00  0.00    -0.169 F 
HETATM   18  F   UNL     1       7.111  20.520  52.542  1.00  0.00    -0.169 F 
HETATM   19  F   UNL     1       9.122  19.976  53.187  1.00  0.00    -0.169 F 
ENDBRANCH  15  16
ENDBRANCH  14  15
ENDBRANCH   8  14
ENDBRANCH   3   7
BRANCH   1  20
HETATM   20  C   UNL     1       4.768  26.769  49.113  1.00  0.00     0.086 A 
HETATM   21  C   UNL     1       3.790  26.260  48.280  1.00  0.00     0.052 A 
HETATM   22  C   UNL     1       3.179  24.916  48.155  1.00  0.00     0.072 C 
HETATM   23  N   UNL     1       3.422  27.291  47.464  1.00  0.00    -0.280 N 
HETATM   24  H   UNL     1       2.737  27.286  46.717  1.00  0.00     0.189 HD
HETATM   25  N   UNL     1       4.059  28.437  47.720  1.00  0.00    -0.177 NA
HETATM   26  C   UNL     1       4.886  28.138  48.734  1.00  0.00     0.079 A 
HETATM   27  C   UNL     1       5.715  29.229  49.307  1.00  0.00     0.075 C 
ENDBRANCH   1  20
TORSDOF 5
ENDMDL
MODEL 4
REMARK VINA RESULT:      -7.8      3.524      6.638
REMARK  5 active torsions:
REMARK  status: ('A' for Active; 'I' for Inactive)
REMARK    1  A    between atoms: C_8  and  N_9 
REMARK       I    between atoms: N_9  and  C_10 
REMARK       I    between atoms: C_10  and  N_11 
REMARK    2  A    between atoms: N_11  and  C_12 
REMARK    3  A    between atoms: C_13  and  O_14 
REMARK    4  A    between atoms: O_14  and  C_15 
REMARK    5  A    between atoms: C_15  and  C_16 
ROOT
HETATM    1  N   UNL     1       7.192  22.639  54.971  1.00  0.00    -0.305 N 
HETATM    2  C   UNL     1       7.302  23.642  54.026  1.00  0.00     0.325 C 
HETATM    3  N   UNL     1       6.259  24.541  54.162  1.00  0.00    -0.306 N 
HETATM    4  O   UNL     1       8.192  23.734  53.192  1.00  0.00    -0.247 OA
HETATM    5  H   UNL     1       6.664  22.866  55.800  1.00  0.00     0.171 HD
HETATM    6  H   UNL     1       5.447  24.217  54.673  1.00  0.00     0.171 HD
ENDROOT
BRANCH   3   7
HETATM    7  C   UNL     1       6.081  25.769  53.486  1.00  0.00     0.071 A 
HETATM    8  C   UNL     1       6.512  26.935  54.147  1.00  0.00     0.096 A 
HETATM    9  C   UNL     1       6.419  28.185  53.531  1.00  0.00     0.041 A 
HETATM   10  C   UNL     1       5.860  28.282  52.257  1.00  0.00     0.026 A 
HETATM   11  C   UNL     1       5.414  27.133  51.606  1.00  0.00     0.036 A 
HETATM   12 CL   UNL     1       4.735  27.266  50.029  1.00  0.00    -0.084 Cl
HETATM   13  C   UNL     1       5.525  25.878  52.209  1.00  0.00     0.056 A 
BRANCH   8  14
HETATM   14  O   UNL     1       7.073  26.790  55.393  1.00  0.00    -0.340 OA
BRANCH  14  15
HETATM   15  C   UNL     1       7.650  28.020  55.876  1.00  0.00     0.293 C 
BRANCH  15  16
HETATM   16  C   UNL     1       8.408  27.763  57.167  1.00  0.00     0.408 C 
HETATM   17  F   UNL     1       9.626  28.352  57.146  1.00  0.00    -0.169 F 
HETATM   18  F   UNL     1       7.739  28.236  58.241  1.00  0.00    -0.169 F 
HETATM   19  F   UNL     1       8.598  26.438  57.356  1.00  0.00    -0.169 F 
ENDBRANCH  15  16
ENDBRANCH  14  15
ENDBRANCH   8  14
ENDBRANCH   3   7
BRANCH   1  20
HETATM   20  C   UNL     1       7.957  21.486  55.041  1.00  0.00     0.086 A 
HETATM   21  C   UNL     1       8.462  21.013  56.237  1.00  0.00     0.052 A 
HETATM   22  C   UNL     1       8.384  21.518  57.628  1.00  0.00     0.072 C 
HETATM   23  N   UNL     1       9.150  19.875  55.927  1.00  0.00    -0.280 N 
HETATM   24  H   UNL     1       9.665  19.264  56.551  1.00  0.00     0.189 HD
HETATM   25  N   UNL     1       9.107  19.553  54.631  1.00  0.00    -0.177 NA
HETATM   26  C   UNL     1       8.374  20.528  54.071  1.00  0.00     0.079 A 
HETATM   27  C   UNL     1       8.083  20.438  52.617  1.00  0.00     0.075 C 
ENDBRANCH   1  20
TORSDOF 5
ENDMDL
MODEL 5
REMARK VINA RESULT:      -7.7      3.118      6.377
REMARK  5 active torsions:
REMARK  status: ('A' for Active; 'I' for Inactive)
REMARK    1  A    between atoms: C_8  and  N_9 
REMARK       I    between atoms: N_9  and  C_10 
REMARK       I    between atoms: C_10  and  N_11 
REMARK    2  A    between atoms: N_11  and  C_12 
REMARK    3  A    between atoms: C_13  and  O_14 
REMARK    4  A    between atoms: O_14  and  C_15 
REMARK    5  A    between atoms: C_15  and  C_16 
ROOT
HETATM    1  N   UNL     1       6.736  23.458  54.355  1.00  0.00    -0.305 N 
HETATM    2  C   UNL     1       6.806  24.324  53.280  1.00  0.00     0.325 C 
HETATM    3  N   UNL     1       5.584  24.945  53.088  1.00  0.00    -0.306 N 
HETATM    4  O   UNL     1       7.800  24.525  52.596  1.00  0.00    -0.247 OA
HETATM    5  H   UNL     1       6.019  23.654  55.036  1.00  0.00     0.171 HD
HETATM    6  H   UNL     1       4.779  24.499  53.511  1.00  0.00     0.171 HD
ENDROOT
BRANCH   3   7
HETATM    7  C   UNL     1       5.276  25.990  52.188  1.00  0.00     0.071 A 
HETATM    8  C   UNL     1       5.104  27.277  52.732  1.00  0.00     0.096 A 
HETATM    9  C   UNL     1       4.847  28.375  51.909  1.00  0.00     0.041 A 
HETATM   10  C   UNL     1       4.725  28.188  50.533  1.00  0.00     0.026 A 
HETATM   11  C   UNL     1       4.876  26.912  49.991  1.00  0.00     0.036 A 
HETATM   12 CL   UNL     1       4.733  26.696  48.288  1.00  0.00    -0.084 Cl
HETATM   13  C   UNL     1       5.154  25.814  50.808  1.00  0.00     0.056 A 
BRANCH   8  14
HETATM   14  O   UNL     1       5.251  27.419  54.091  1.00  0.00    -0.340 OA
BRANCH  14  15
HETATM   15  C   UNL     1       6.190  28.458  54.431  1.00  0.00     0.293 C 
BRANCH  15  16
HETATM   16  C   UNL     1       7.560  27.855  54.687  1.00  0.00     0.408 C 
HETATM   17  F   UNL     1       8.359  28.717  55.357  1.00  0.00    -0.169 F 
HETATM   18  F   UNL     1       7.478  26.719  55.414  1.00  0.00    -0.169 F 
HETATM   19  F   UNL     1       8.174  27.549  53.522  1.00  0.00    -0.169 F 
ENDBRANCH  15  16
ENDBRANCH  14  15
ENDBRANCH   8  14
ENDBRANCH   3   7
BRANCH   1  20
HETATM   20  C   UNL     1       7.708  22.552  54.747  1.00  0.00     0.086 A 
HETATM   21  C   UNL     1       8.397  22.685  55.938  1.00  0.00     0.052 A 
HETATM   22  C   UNL     1       8.347  23.699  57.017  1.00  0.00     0.072 C 
HETATM   23  N   UNL     1       9.256  21.625  55.992  1.00  0.00    -0.280 N 
HETATM   24  H   UNL     1       9.930  21.400  56.715  1.00  0.00     0.189 HD
HETATM   25  N   UNL     1       9.161  20.798  54.947  1.00  0.00    -0.177 NA
HETATM   26  C   UNL     1       8.212  21.348  54.173  1.00  0.00     0.079 A 
HETATM   27  C   UNL     1       7.816  20.632  52.934  1.00  0.00     0.075 C 
ENDBRANCH   1  20
TORSDOF 5
ENDMDL
MODEL 6
REMARK VINA RESULT:      -7.7      1.507      2.201
REMARK  5 active torsions:
REMARK  status: ('A' for Active; 'I' for Inactive)
REMARK    1  A    between atoms: C_8  and  N_9 
REMARK       I    between atoms: N_9  and  C_10 
REMARK       I    between atoms: C_10  and  N_11 
REMARK    2  A    between atoms: N_11  and  C_12 
REMARK    3  A    between atoms: C_13  and  O_14 
REMARK    4  A    between atoms: O_14  and  C_15 
REMARK    5  A    between atoms: C_15  and  C_16 
ROOT
HETATM    1  N   UNL     1       4.852  25.908  51.334  1.00  0.00    -0.305 N 
HETATM    2  C   UNL     1       6.037  25.460  51.887  1.00  0.00     0.325 C 
HETATM    3  N   UNL     1       5.777  24.551  52.897  1.00  0.00    -0.306 N 
HETATM    4  O   UNL     1       7.157  25.805  51.535  1.00  0.00    -0.247 OA
HETATM    5  H   UNL     1       4.054  25.300  51.441  1.00  0.00     0.171 HD
HETATM    6  H   UNL     1       4.843  24.564  53.288  1.00  0.00     0.171 HD
ENDROOT
BRANCH   3   7
HETATM    7  C   UNL     1       6.708  23.767  53.616  1.00  0.00     0.071 A 
HETATM    8  C   UNL     1       7.036  24.190  54.917  1.00  0.00     0.096 A 
HETATM    9  C   UNL     1       7.908  23.447  55.715  1.00  0.00     0.041 A 
HETATM   10  C   UNL     1       8.488  22.287  55.202  1.00  0.00     0.026 A 
HETATM   11  C   UNL     1       8.181  21.874  53.906  1.00  0.00     0.036 A 
HETATM   12 CL   UNL     1       8.897  20.435  53.288  1.00  0.00    -0.084 Cl
HETATM   13  C   UNL     1       7.293  22.603  53.112  1.00  0.00     0.056 A 
BRANCH   8  14
HETATM   14  O   UNL     1       6.427  25.328  55.390  1.00  0.00    -0.340 OA
BRANCH  14  15
HETATM   15  C   UNL     1       7.372  26.386  55.643  1.00  0.00     0.293 C 
BRANCH  15  16
HETATM   16  C   UNL     1       6.983  27.627  54.857  1.00  0.00     0.408 C 
HETATM   17  F   UNL     1       7.053  28.737  55.626  1.00  0.00    -0.169 F 
HETATM   18  F   UNL     1       7.789  27.814  53.788  1.00  0.00    -0.169 F 
HETATM   19  F   UNL     1       5.715  27.525  54.399  1.00  0.00    -0.169 F 
ENDBRANCH  15  16
ENDBRANCH  14  15
ENDBRANCH   8  14
ENDBRANCH   3   7
BRANCH   1  20
HETATM   20  C   UNL     1       4.709  26.933  50.413  1.00  0.00     0.086 A 
HETATM   21  C   UNL     1       4.132  26.731  49.174  1.00  0.00     0.052 A 
HETATM   22  C   UNL     1       3.579  25.527  48.510  1.00  0.00     0.072 C 
HETATM   23  N   UNL     1       4.154  27.944  48.549  1.00  0.00    -0.280 N 
HETATM   24  H   UNL     1       3.826  28.177  47.618  1.00  0.00     0.189 HD
HETATM   25  N   UNL     1       4.672  28.926  49.293  1.00  0.00    -0.177 NA
HETATM   26  C   UNL     1       5.013  28.326  50.444  1.00  0.00     0.079 A 
HETATM   27  C   UNL     1       5.577  29.165  51.532  1.00  0.00     0.075 C 
ENDBRANCH   1  20
TORSDOF 5
ENDMDL
MODEL 7
REMARK VINA RESULT:      -7.7      3.346      5.231
REMARK  5 active torsions:
REMARK  status: ('A' for Active; 'I' for Inactive)
REMARK    1  A    between atoms: C_8  and  N_9 
REMARK       I    between atoms: N_9  and  C_10 
REMARK       I    between atoms: C_10  and  N_11 
REMARK    2  A    between atoms: N_11  and  C_12 
REMARK    3  A    between atoms: C_13  and  O_14 
REMARK    4  A    between atoms: O_14  and  C_15 
REMARK    5  A    between atoms: C_15  and  C_16 
ROOT
HETATM    1  N   UNL     1       7.140  27.690  56.235  1.00  0.00    -0.305 N 
HETATM    2  C   UNL     1       6.728  26.412  55.907  1.00  0.00     0.325 C 
HETATM    3  N   UNL     1       7.699  25.777  55.151  1.00  0.00    -0.306 N 
HETATM    4  O   UNL     1       5.666  25.903  56.238  1.00  0.00    -0.247 OA
HETATM    5  H   UNL     1       8.136  27.850  56.231  1.00  0.00     0.171 HD
HETATM    6  H   UNL     1       8.384  26.373  54.703  1.00  0.00     0.171 HD
ENDROOT
BRANCH   3   7
HETATM    7  C   UNL     1       7.726  24.428  54.733  1.00  0.00     0.071 A 
HETATM    8  C   UNL     1       7.775  24.185  53.348  1.00  0.00     0.096 A 
HETATM    9  C   UNL     1       7.853  22.883  52.849  1.00  0.00     0.041 A 
HETATM   10  C   UNL     1       7.849  21.807  53.737  1.00  0.00     0.026 A 
HETATM   11  C   UNL     1       7.781  22.042  55.110  1.00  0.00     0.036 A 
HETATM   12 CL   UNL     1       7.786  20.705  56.195  1.00  0.00    -0.084 Cl
HETATM   13  C   UNL     1       7.724  23.343  55.613  1.00  0.00     0.056 A 
BRANCH   8  14
HETATM   14  O   UNL     1       7.796  25.275  52.510  1.00  0.00    -0.340 OA
BRANCH  14  15
HETATM   15  C   UNL     1       6.648  25.315  51.640  1.00  0.00     0.293 C 
BRANCH  15  16
HETATM   16  C   UNL     1       5.583  26.225  52.229  1.00  0.00     0.408 C 
HETATM   17  F   UNL     1       4.869  25.589  53.186  1.00  0.00    -0.169 F 
HETATM   18  F   UNL     1       6.125  27.331  52.785  1.00  0.00    -0.169 F 
HETATM   19  F   UNL     1       4.718  26.630  51.273  1.00  0.00    -0.169 F 
ENDBRANCH  15  16
ENDBRANCH  14  15
ENDBRANCH   8  14
ENDBRANCH   3   7
BRANCH   1  20
HETATM   20  C   UNL     1       6.374  28.671  56.843  1.00  0.00     0.086 A 
HETATM   21  C   UNL     1       6.867  29.455  57.869  1.00  0.00     0.052 A 
HETATM   22  C   UNL     1       8.173  29.486  58.567  1.00  0.00     0.072 C 
HETATM   23  N   UNL     1       5.852  30.301  58.212  1.00  0.00    -0.280 N 
HETATM   24  H   UNL     1       5.845  31.011  58.935  1.00  0.00     0.189 HD
HETATM   25  N   UNL     1       4.750  30.151  57.473  1.00  0.00    -0.177 NA
HETATM   26  C   UNL     1       5.052  29.158  56.622  1.00  0.00     0.079 A 
HETATM   27  C   UNL     1       4.041  28.773  55.605  1.00  0.00     0.075 C 
ENDBRANCH   1  20
TORSDOF 5
ENDMDL
MODEL 8
REMARK VINA RESULT:      -7.6      2.986      6.489
REMARK  5 active torsions:
REMARK  status: ('A' for Active; 'I' for Inactive)
REMARK    1  A    between atoms: C_8  and  N_9 
REMARK       I    between atoms: N_9  and  C_10 
REMARK       I    between atoms: C_10  and  N_11 
REMARK    2  A    between atoms: N_11  and  C_12 
REMARK    3  A    between atoms: C_13  and  O_14 
REMARK    4  A    between atoms: O_14  and  C_15 
REMARK    5  A    between atoms: C_15  and  C_16 
ROOT
HETATM    1  N   UNL     1       8.169  23.457  53.767  1.00  0.00    -0.305 N 
HETATM    2  C   UNL     1       7.066  24.268  53.579  1.00  0.00     0.325 C 
HETATM    3  N   UNL     1       7.386  25.323  52.743  1.00  0.00    -0.306 N 
HETATM    4  O   UNL     1       5.961  24.084  54.070  1.00  0.00    -0.247 OA
HETATM    5  H   UNL     1       8.875  23.495  53.047  1.00  0.00     0.171 HD
HETATM    6  H   UNL     1       8.371  25.534  52.638  1.00  0.00     0.171 HD
ENDROOT
BRANCH   3   7
HETATM    7  C   UNL     1       6.514  26.293  52.199  1.00  0.00     0.071 A 
HETATM    8  C   UNL     1       6.465  27.545  52.840  1.00  0.00     0.096 A 
HETATM    9  C   UNL     1       5.667  28.577  52.340  1.00  0.00     0.041 A 
HETATM   10  C   UNL     1       4.883  28.351  51.209  1.00  0.00     0.026 A 
HETATM   11  C   UNL     1       4.913  27.105  50.582  1.00  0.00     0.036 A 
HETATM   12 CL   UNL     1       3.946  26.843  49.181  1.00  0.00    -0.084 Cl
HETATM   13  C   UNL     1       5.725  26.078  51.067  1.00  0.00     0.056 A 
BRANCH   8  14
HETATM   14  O   UNL     1       7.268  27.730  53.939  1.00  0.00    -0.340 OA
BRANCH  14  15
HETATM   15  C   UNL     1       6.507  28.030  55.126  1.00  0.00     0.293 C 
BRANCH  15  16
HETATM   16  C   UNL     1       6.860  27.046  56.229  1.00  0.00     0.408 C 
HETATM   17  F   UNL     1       7.999  26.376  55.942  1.00  0.00    -0.169 F 
HETATM   18  F   UNL     1       7.035  27.670  57.415  1.00  0.00    -0.169 F 
HETATM   19  F   UNL     1       5.876  26.133  56.390  1.00  0.00    -0.169 F 
ENDBRANCH  15  16
ENDBRANCH  14  15
ENDBRANCH   8  14
ENDBRANCH   3   7
BRANCH   1  20
HETATM   20  C   UNL     1       8.274  22.402  54.658  1.00  0.00     0.086 A 
HETATM   21  C   UNL     1       8.337  21.088  54.235  1.00  0.00     0.052 A 
HETATM   22  C   UNL     1       8.297  20.465  52.891  1.00  0.00     0.072 C 
HETATM   23  N   UNL     1       8.439  20.335  55.370  1.00  0.00    -0.280 N 
HETATM   24  H   UNL     1       8.494  19.327  55.450  1.00  0.00     0.189 HD
HETATM   25  N   UNL     1       8.477  21.055  56.494  1.00  0.00    -0.177 NA
HETATM   26  C   UNL     1       8.382  22.328  56.078  1.00  0.00     0.079 A 
HETATM   27  C   UNL     1       8.452  23.406  57.097  1.00  0.00     0.075 C 
ENDBRANCH   1  20
TORSDOF 5
ENDMDL
MODEL 9
REMARK VINA RESULT:      -7.5      4.768      6.957
REMARK  5 active torsions:
REMARK  status: ('A' for Active; 'I' for Inactive)
REMARK    1  A    between atoms: C_8  and  N_9 
REMARK       I    between atoms: N_9  and  C_10 
REMARK       I    between atoms: C_10  and  N_11 
REMARK    2  A    between atoms: N_11  and  C_12 
REMARK    3  A    between atoms: C_13  and  O_14 
REMARK    4  A    between atoms: O_14  and  C_15 
REMARK    5  A    between atoms: C_15  and  C_16 
ROOT
HETATM    1  N   UNL     1       8.129  28.943  57.130  1.00  0.00    -0.305 N 
HETATM    2  C   UNL     1       8.209  28.495  55.825  1.00  0.00     0.325 C 
HETATM    3  N   UNL     1       7.499  27.316  55.681  1.00  0.00    -0.306 N 
HETATM    4  O   UNL     1       8.812  29.055  54.920  1.00  0.00    -0.247 OA
HETATM    5  H   UNL     1       7.335  28.621  57.661  1.00  0.00     0.171 HD
HETATM    6  H   UNL     1       7.294  26.805  56.531  1.00  0.00     0.171 HD
ENDROOT
BRANCH   3   7
HETATM    7  C   UNL     1       7.221  26.612  54.487  1.00  0.00     0.071 A 
HETATM    8  C   UNL     1       7.606  25.260  54.435  1.00  0.00     0.096 A 
HETATM    9  C   UNL     1       7.326  24.477  53.313  1.00  0.00     0.041 A 
HETATM   10  C   UNL     1       6.686  25.053  52.216  1.00  0.00     0.026 A 
HETATM   11  C   UNL     1       6.320  26.398  52.256  1.00  0.00     0.036 A 
HETATM   12 CL   UNL     1       5.522  27.096  50.899  1.00  0.00    -0.084 Cl
HETATM   13  C   UNL     1       6.579  27.179  53.384  1.00  0.00     0.056 A 
BRANCH   8  14
HETATM   14  O   UNL     1       8.217  24.727  55.545  1.00  0.00    -0.340 OA
BRANCH  14  15
HETATM   15  C   UNL     1       7.406  23.721  56.183  1.00  0.00     0.293 C 
BRANCH  15  16
HETATM   16  C   UNL     1       8.146  22.394  56.199  1.00  0.00     0.408 C 
HETATM   17  F   UNL     1       7.436  21.428  55.573  1.00  0.00    -0.169 F 
HETATM   18  F   UNL     1       9.347  22.485  55.587  1.00  0.00    -0.169 F 
HETATM   19  F   UNL     1       8.365  21.983  57.468  1.00  0.00    -0.169 F 
ENDBRANCH  15  16
ENDBRANCH  14  15
ENDBRANCH   8  14
ENDBRANCH   3   7
BRANCH   1  20
HETATM   20  C   UNL     1       8.838  29.997  57.683  1.00  0.00     0.086 A 
HETATM   21  C   UNL     1       8.225  30.972  58.447  1.00  0.00     0.052 A 
HETATM   22  C   UNL     1       6.815  31.192  58.848  1.00  0.00     0.072 C 
HETATM   23  N   UNL     1       9.218  31.831  58.823  1.00  0.00    -0.280 N 
HETATM   24  H   UNL     1       9.140  32.673  59.381  1.00  0.00     0.189 HD
HETATM   25  N   UNL     1      10.431  31.477  58.390  1.00  0.00    -0.177 NA
HETATM   26  C   UNL     1      10.219  30.350  57.692  1.00  0.00     0.079 A 
HETATM   27  C   UNL     1      11.396  29.653  57.112  1.00  0.00     0.075 C 
ENDBRANCH   1  20
TORSDOF 5
ENDMDL
MODEL 10
REMARK VINA RESULT:      -7.5      3.934      6.174
REMARK  5 active torsions:
REMARK  status: ('A' for Active; 'I' for Inactive)
REMARK    1  A    between atoms: C_8  and  N_9 
REMARK       I    between atoms: N_9  and  C_10 
REMARK       I    between atoms: C_10  and  N_11 
REMARK    2  A    between atoms: N_11  and  C_12 
REMARK    3  A    between atoms: C_13  and  O_14 
REMARK    4  A    between atoms: O_14  and  C_15 
REMARK    5  A    between atoms: C_15  and  C_16 
ROOT
HETATM    1  N   UNL     1       7.479  28.518  56.373  1.00  0.00    -0.305 N 
HETATM    2  C   UNL     1       7.797  27.186  56.557  1.00  0.00     0.325 C 
HETATM    3  N   UNL     1       7.412  26.447  55.453  1.00  0.00    -0.306 N 
HETATM    4  O   UNL     1       8.346  26.720  57.546  1.00  0.00    -0.247 OA
HETATM    5  H   UNL     1       7.384  28.823  55.416  1.00  0.00     0.171 HD
HETATM    6  H   UNL     1       6.724  26.870  54.842  1.00  0.00     0.171 HD
ENDROOT
BRANCH   3   7
HETATM    7  C   UNL     1       7.677  25.084  55.188  1.00  0.00     0.071 A 
HETATM    8  C   UNL     1       7.804  24.704  53.839  1.00  0.00     0.096 A 
HETATM    9  C   UNL     1       8.114  23.388  53.489  1.00  0.00     0.041 A 
HETATM   10  C   UNL     1       8.266  22.430  54.491  1.00  0.00     0.026 A 
HETATM   11  C   UNL     1       8.122  22.797  55.829  1.00  0.00     0.036 A 
HETATM   12 CL   UNL     1       8.323  21.606  57.057  1.00  0.00    -0.084 Cl
HETATM   13  C   UNL     1       7.833  24.117  56.183  1.00  0.00     0.056 A 
BRANCH   8  14
HETATM   14  O   UNL     1       7.664  25.684  52.885  1.00  0.00    -0.340 OA
BRANCH  14  15
HETATM   15  C   UNL     1       6.944  25.218  51.727  1.00  0.00     0.293 C 
BRANCH  15  16
HETATM   16  C   UNL     1       5.504  25.701  51.784  1.00  0.00     0.408 C 
HETATM   17  F   UNL     1       5.122  26.246  50.606  1.00  0.00    -0.169 F 
HETATM   18  F   UNL     1       4.651  24.692  52.068  1.00  0.00    -0.169 F 
HETATM   19  F   UNL     1       5.353  26.645  52.740  1.00  0.00    -0.169 F 
ENDBRANCH  15  16
ENDBRANCH  14  15
ENDBRANCH   8  14
ENDBRANCH   3   7
BRANCH   1  20
HETATM   20  C   UNL     1       7.568  29.525  57.320  1.00  0.00     0.086 A 
HETATM   21  C   UNL     1       6.445  30.107  57.879  1.00  0.00     0.052 A 
HETATM   22  C   UNL     1       4.995  29.896  57.665  1.00  0.00     0.072 C 
HETATM   23  N   UNL     1       6.910  31.040  58.762  1.00  0.00    -0.280 N 
HETATM   24  H   UNL     1       6.374  31.671  59.346  1.00  0.00     0.189 HD
HETATM   25  N   UNL     1       8.242  31.090  58.844  1.00  0.00    -0.177 NA
HETATM   26  C   UNL     1       8.665  30.163  57.970  1.00  0.00     0.079 A 
HETATM   27  C   UNL     1      10.125  29.921  57.856  1.00  0.00     0.075 C 
ENDBRANCH   1  20
TORSDOF 5
ENDMDL
