MODEL 1
REMARK VINA RESULT:      -8.5      0.000      0.000
REMARK  5 active torsions:
REMARK  status: ('A' for Active; 'I' for Inactive)
REMARK    1  A    between atoms: C_10  and  N_11 
REMARK    2  A    between atoms: N_11  and  C_12 
REMARK    3  A    between atoms: C_12  and  C_13 
REMARK    4  A    between atoms: C_13  and  N_14 
REMARK       I    between atoms: N_14  and  C_15 
REMARK    5  A    between atoms: C_15  and  C_16 
ROOT
HETATM    1  C   UNL     1       8.808  20.511  53.012  1.00  0.00     0.048 C 
HETATM    2  C   UNL     1       8.358  21.788  53.664  1.00  0.00    -0.060 A 
HETATM    3  C   UNL     1       7.309  22.539  53.121  1.00  0.00     0.037 A 
HETATM    4  C   UNL     1       6.880  23.716  53.751  1.00  0.00     0.044 A 
HETATM    5  C   UNL     1       7.489  24.148  54.943  1.00  0.00    -0.009 A 
HETATM    6  C   UNL     1       8.530  23.384  55.490  1.00  0.00     0.014 A 
HETATM    7  C   UNL     1       8.956  22.214  54.856  1.00  0.00     0.007 A 
HETATM    8  N   UNL     1       5.886  24.447  53.222  1.00  0.00    -0.346 N 
HETATM    9  H   UNL     1       5.464  24.099  52.369  1.00  0.00     0.167 HD
HETATM   10  C   UNL     1       5.423  25.599  53.739  1.00  0.00     0.086 A 
HETATM   11  C   UNL     1       5.972  26.045  54.957  1.00  0.00    -0.023 A 
HETATM   12  C   UNL     1       5.495  27.303  55.633  1.00  0.00     0.052 C 
HETATM   13  C   UNL     1       7.023  25.322  55.539  1.00  0.00     0.023 A 
ENDROOT
BRANCH  10  14
HETATM   14  N   UNL     1       4.369  26.287  53.131  1.00  0.00    -0.277 NA
HETATM   15  H   UNL     1       3.720  26.657  53.830  1.00  0.00     0.129 HD
BRANCH  14  16
HETATM   16  C   UNL     1       4.682  27.262  52.086  1.00  0.00     0.113 C 
BRANCH  16  17
HETATM   17  C   UNL     1       5.273  26.625  50.822  1.00  0.00     0.137 C 
BRANCH  17  18
HETATM   18  N   UNL     1       4.311  26.212  49.803  1.00  0.00    -0.360 N 
HETATM   19  C   UNL     1       4.309  26.608  48.479  1.00  0.00     0.221 C 
HETATM   20  O   UNL     1       5.130  27.395  48.014  1.00  0.00    -0.273 OA
HETATM   21  H   UNL     1       3.619  25.527  50.086  1.00  0.00     0.162 HD
BRANCH  19  22
HETATM   22  C   UNL     1       3.197  25.974  47.645  1.00  0.00     0.070 C 
HETATM   23  C   UNL     1       2.990  24.514  48.043  1.00  0.00     0.019 C 
HETATM   24  C   UNL     1       1.892  26.754  47.796  1.00  0.00     0.019 C 
ENDBRANCH  19  22
ENDBRANCH  17  18
ENDBRANCH  16  17
ENDBRANCH  14  16
ENDBRANCH  10  14
TORSDOF 5
ENDMDL
MODEL 2
REMARK VINA RESULT:      -8.5      2.887      5.725
REMARK  5 active torsions:
REMARK  status: ('A' for Active; 'I' for Inactive)
REMARK    1  A    between atoms: C_10  and  N_11 
REMARK    2  A    between atoms: N_11  and  C_12 
REMARK    3  A    between atoms: C_12  and  C_13 
REMARK    4  A    between atoms: C_13  and  N_14 
REMARK       I    between atoms: N_14  and  C_15 
REMARK    5  A    between atoms: C_15  and  C_16 
ROOT
HETATM    1  C   UNL     1       8.298  22.101  56.445  1.00  0.00     0.048 C 
HETATM    2  C   UNL     1       7.839  22.855  55.228  1.00  0.00    -0.060 A 
HETATM    3  C   UNL     1       6.765  23.750  55.301  1.00  0.00     0.037 A 
HETATM    4  C   UNL     1       6.362  24.466  54.166  1.00  0.00     0.044 A 
HETATM    5  C   UNL     1       7.040  24.305  52.944  1.00  0.00    -0.009 A 
HETATM    6  C   UNL     1       8.123  23.418  52.880  1.00  0.00     0.014 A 
HETATM    7  C   UNL     1       8.520  22.704  54.014  1.00  0.00     0.007 A 
HETATM    8  N   UNL     1       5.320  25.312  54.230  1.00  0.00    -0.346 N 
HETATM    9  H   UNL     1       4.863  25.410  55.128  1.00  0.00     0.167 HD
HETATM   10  C   UNL     1       4.846  26.023  53.191  1.00  0.00     0.086 A 
HETATM   11  C   UNL     1       5.523  25.928  51.959  1.00  0.00    -0.023 A 
HETATM   12  C   UNL     1       5.090  26.712  50.749  1.00  0.00     0.052 C 
HETATM   13  C   UNL     1       6.607  25.047  51.842  1.00  0.00     0.023 A 
ENDROOT
BRANCH  10  14
HETATM   14  N   UNL     1       3.766  26.896  53.352  1.00  0.00    -0.277 NA
HETATM   15  H   UNL     1       3.057  26.493  53.968  1.00  0.00     0.129 HD
BRANCH  14  16
HETATM   16  C   UNL     1       4.043  28.299  53.660  1.00  0.00     0.113 C 
BRANCH  16  17
HETATM   17  C   UNL     1       4.191  28.572  55.162  1.00  0.00     0.137 C 
BRANCH  17  18
HETATM   18  N   UNL     1       5.554  28.560  55.686  1.00  0.00    -0.360 N 
HETATM   19  C   UNL     1       6.086  27.619  56.548  1.00  0.00     0.221 C 
HETATM   20  O   UNL     1       5.434  26.679  56.997  1.00  0.00    -0.273 OA
HETATM   21  H   UNL     1       6.179  29.276  55.334  1.00  0.00     0.162 HD
BRANCH  19  22
HETATM   22  C   UNL     1       7.557  27.852  56.886  1.00  0.00     0.070 C 
HETATM   23  C   UNL     1       7.697  28.882  58.005  1.00  0.00     0.019 C 
HETATM   24  C   UNL     1       8.237  26.542  57.284  1.00  0.00     0.019 C 
ENDBRANCH  19  22
ENDBRANCH  17  18
ENDBRANCH  16  17
ENDBRANCH  14  16
ENDBRANCH  10  14
TORSDOF 5
ENDMDL
MODEL 3
REMARK VINA RESULT:      -8.4      5.081      8.129
REMARK  5 active torsions:
REMARK  status: ('A' for Active; 'I' for Inactive)
REMARK    1  A    between atoms: C_10  and  N_11 
REMARK    2  A    between atoms: N_11  and  C_12 
REMARK    3  A    between atoms: C_12  and  C_13 
REMARK    4  A    between atoms: C_13  and  N_14 
REMARK       I    between atoms: N_14  and  C_15 
REMARK    5  A    between atoms: C_15  and  C_16 
ROOT
HETATM    1  C   UNL     1       8.738  20.657  56.516  1.00  0.00     0.048 C 
HETATM    2  C   UNL     1       8.327  21.895  55.770  1.00  0.00    -0.060 A 
HETATM    3  C   UNL     1       8.288  23.139  56.411  1.00  0.00     0.037 A 
HETATM    4  C   UNL     1       7.927  24.292  55.700  1.00  0.00     0.044 A 
HETATM    5  C   UNL     1       7.613  24.214  54.331  1.00  0.00    -0.009 A 
HETATM    6  C   UNL     1       7.667  22.968  53.690  1.00  0.00     0.014 A 
HETATM    7  C   UNL     1       8.025  21.822  54.405  1.00  0.00     0.007 A 
HETATM    8  N   UNL     1       7.872  25.483  56.317  1.00  0.00    -0.346 N 
HETATM    9  H   UNL     1       8.115  25.502  57.300  1.00  0.00     0.167 HD
HETATM   10  C   UNL     1       7.515  26.637  55.725  1.00  0.00     0.086 A 
HETATM   11  C   UNL     1       7.237  26.614  54.344  1.00  0.00    -0.023 A 
HETATM   12  C   UNL     1       6.863  27.860  53.586  1.00  0.00     0.052 C 
HETATM   13  C   UNL     1       7.267  25.391  53.661  1.00  0.00     0.023 A 
ENDROOT
BRANCH  10  14
HETATM   14  N   UNL     1       7.503  27.838  56.442  1.00  0.00    -0.277 NA
HETATM   15  H   UNL     1       6.639  27.937  56.978  1.00  0.00     0.129 HD
BRANCH  14  16
HETATM   16  C   UNL     1       8.689  28.198  57.217  1.00  0.00     0.113 C 
BRANCH  16  17
HETATM   17  C   UNL     1       8.927  29.712  57.293  1.00  0.00     0.137 C 
BRANCH  17  18
HETATM   18  N   UNL     1       8.940  30.293  58.633  1.00  0.00    -0.360 N 
HETATM   19  C   UNL     1       9.704  31.368  59.045  1.00  0.00     0.221 C 
HETATM   20  O   UNL     1      10.497  31.949  58.308  1.00  0.00    -0.273 OA
HETATM   21  H   UNL     1       8.282  29.905  59.300  1.00  0.00     0.162 HD
BRANCH  19  22
HETATM   22  C   UNL     1       9.469  31.773  60.500  1.00  0.00     0.070 C 
HETATM   23  C   UNL     1       8.148  32.526  60.644  1.00  0.00     0.019 C 
HETATM   24  C   UNL     1       9.482  30.548  61.413  1.00  0.00     0.019 C 
ENDBRANCH  19  22
ENDBRANCH  17  18
ENDBRANCH  16  17
ENDBRANCH  14  16
ENDBRANCH  10  14
TORSDOF 5
ENDMDL
MODEL 4
REMARK VINA RESULT:      -8.4      3.106      6.062
REMARK  5 active torsions:
REMARK  status: ('A' for Active; 'I' for Inactive)
REMARK    1  A    between atoms: C_10  and  N_11 
REMARK    2  A    between atoms: N_11  and  C_12 
REMARK    3  A    between atoms: C_12  and  C_13 
REMARK    4  A    between atoms: C_13  and  N_14 
REMARK       I    between atoms: N_14  and  C_15 
REMARK    5  A    between atoms: C_15  and  C_16 
ROOT
HETATM    1  C   UNL     1       8.613  20.797  56.271  1.00  0.00     0.048 C 
HETATM    2  C   UNL     1       8.099  21.804  55.280  1.00  0.00    -0.060 A 
HETATM    3  C   UNL     1       7.366  22.918  55.703  1.00  0.00     0.037 A 
HETATM    4  C   UNL     1       6.912  23.863  54.773  1.00  0.00     0.044 A 
HETATM    5  C   UNL     1       7.201  23.711  53.405  1.00  0.00    -0.009 A 
HETATM    6  C   UNL     1       7.948  22.600  52.987  1.00  0.00     0.014 A 
HETATM    7  C   UNL     1       8.395  21.659  53.919  1.00  0.00     0.007 A 
HETATM    8  N   UNL     1       6.194  24.924  55.176  1.00  0.00    -0.346 N 
HETATM    9  H   UNL     1       6.014  25.006  56.169  1.00  0.00     0.167 HD
HETATM   10  C   UNL     1       5.697  25.868  54.357  1.00  0.00     0.086 A 
HETATM   11  C   UNL     1       6.001  25.781  52.984  1.00  0.00    -0.023 A 
HETATM   12  C   UNL     1       5.521  26.809  51.994  1.00  0.00     0.052 C 
HETATM   13  C   UNL     1       6.736  24.683  52.515  1.00  0.00     0.023 A 
ENDROOT
BRANCH  10  14
HETATM   14  N   UNL     1       4.973  26.952  54.865  1.00  0.00    -0.277 NA
HETATM   15  H   UNL     1       4.025  26.971  54.483  1.00  0.00     0.129 HD
BRANCH  14  16
HETATM   16  C   UNL     1       5.002  27.194  56.307  1.00  0.00     0.113 C 
BRANCH  16  17
HETATM   17  C   UNL     1       5.431  28.620  56.673  1.00  0.00     0.137 C 
BRANCH  17  18
HETATM   18  N   UNL     1       6.824  28.786  57.081  1.00  0.00    -0.360 N 
HETATM   19  C   UNL     1       7.923  28.765  56.244  1.00  0.00     0.221 C 
HETATM   20  O   UNL     1       7.840  28.571  55.033  1.00  0.00    -0.273 OA
HETATM   21  H   UNL     1       6.987  28.995  58.059  1.00  0.00     0.162 HD
BRANCH  19  22
HETATM   22  C   UNL     1       9.251  29.009  56.959  1.00  0.00     0.070 C 
HETATM   23  C   UNL     1      10.244  29.706  56.032  1.00  0.00     0.019 C 
HETATM   24  C   UNL     1       9.041  29.834  58.228  1.00  0.00     0.019 C 
ENDBRANCH  19  22
ENDBRANCH  17  18
ENDBRANCH  16  17
ENDBRANCH  14  16
ENDBRANCH  10  14
TORSDOF 5
ENDMDL
MODEL 5
REMARK VINA RESULT:      -8.1      3.915      5.871
REMARK  5 active torsions:
REMARK  status: ('A' for Active; 'I' for Inactive)
REMARK    1  A    between atoms: C_10  and  N_11 
REMARK    2  A    between atoms: N_11  and  C_12 
REMARK    3  A    between atoms: C_12  and  C_13 
REMARK    4  A    between atoms: C_13  and  N_14 
REMARK       I    between atoms: N_14  and  C_15 
REMARK    5  A    between atoms: C_15  and  C_16 
ROOT
HETATM    1  C   UNL     1       8.659  20.353  52.624  1.00  0.00     0.048 C 
HETATM    2  C   UNL     1       8.176  21.374  53.616  1.00  0.00    -0.060 A 
HETATM    3  C   UNL     1       7.524  22.537  53.190  1.00  0.00     0.037 A 
HETATM    4  C   UNL     1       7.056  23.470  54.125  1.00  0.00     0.044 A 
HETATM    5  C   UNL     1       7.224  23.243  55.503  1.00  0.00    -0.009 A 
HETATM    6  C   UNL     1       7.867  22.070  55.925  1.00  0.00     0.014 A 
HETATM    7  C   UNL     1       8.334  21.144  54.988  1.00  0.00     0.007 A 
HETATM    8  N   UNL     1       6.445  24.594  53.717  1.00  0.00    -0.346 N 
HETATM    9  H   UNL     1       6.332  24.719  52.718  1.00  0.00     0.167 HD
HETATM   10  C   UNL     1       5.985  25.557  54.536  1.00  0.00     0.086 A 
HETATM   11  C   UNL     1       6.091  25.350  55.925  1.00  0.00    -0.023 A 
HETATM   12  C   UNL     1       5.572  26.352  56.922  1.00  0.00     0.052 C 
HETATM   13  C   UNL     1       6.734  24.197  56.398  1.00  0.00     0.023 A 
ENDROOT
BRANCH  10  14
HETATM   14  N   UNL     1       5.343  26.689  54.025  1.00  0.00    -0.277 NA
HETATM   15  H   UNL     1       4.592  26.997  54.646  1.00  0.00     0.129 HD
BRANCH  14  16
HETATM   16  C   UNL     1       6.165  27.799  53.545  1.00  0.00     0.113 C 
BRANCH  16  17
HETATM   17  C   UNL     1       6.304  28.935  54.567  1.00  0.00     0.137 C 
BRANCH  17  18
HETATM   18  N   UNL     1       7.581  29.010  55.273  1.00  0.00    -0.360 N 
HETATM   19  C   UNL     1       7.758  29.358  56.598  1.00  0.00     0.221 C 
HETATM   20  O   UNL     1       6.829  29.677  57.337  1.00  0.00    -0.273 OA
HETATM   21  H   UNL     1       8.402  28.721  54.752  1.00  0.00     0.162 HD
BRANCH  19  22
HETATM   22  C   UNL     1       9.212  29.306  57.063  1.00  0.00     0.070 C 
HETATM   23  C   UNL     1      10.156  29.686  55.924  1.00  0.00     0.019 C 
HETATM   24  C   UNL     1       9.433  30.226  58.263  1.00  0.00     0.019 C 
ENDBRANCH  19  22
ENDBRANCH  17  18
ENDBRANCH  16  17
ENDBRANCH  14  16
ENDBRANCH  10  14
TORSDOF 5
ENDMDL
MODEL 6
REMARK VINA RESULT:      -7.9      9.261     12.700
REMARK  5 active torsions:
REMARK  status: ('A' for Active; 'I' for Inactive)
REMARK    1  A    between atoms: C_10  and  N_11 
REMARK    2  A    between atoms: N_11  and  C_12 
REMARK    3  A    between atoms: C_12  and  C_13 
REMARK    4  A    between atoms: C_13  and  N_14 
REMARK       I    between atoms: N_14  and  C_15 
REMARK    5  A    between atoms: C_15  and  C_16 
ROOT
HETATM    1  C   UNL     1       3.399  34.934  66.471  1.00  0.00     0.048 C 
HETATM    2  C   UNL     1       4.604  34.340  65.797  1.00  0.00    -0.060 A 
HETATM    3  C   UNL     1       4.502  33.756  64.529  1.00  0.00     0.037 A 
HETATM    4  C   UNL     1       5.637  33.227  63.899  1.00  0.00     0.044 A 
HETATM    5  C   UNL     1       6.894  33.290  64.528  1.00  0.00    -0.009 A 
HETATM    6  C   UNL     1       6.993  33.889  65.792  1.00  0.00     0.014 A 
HETATM    7  C   UNL     1       5.858  34.411  66.416  1.00  0.00     0.007 A 
HETATM    8  N   UNL     1       5.538  32.651  62.691  1.00  0.00    -0.346 N 
HETATM    9  H   UNL     1       4.619  32.633  62.265  1.00  0.00     0.167 HD
HETATM   10  C   UNL     1       6.563  32.096  62.020  1.00  0.00     0.086 A 
HETATM   11  C   UNL     1       7.849  32.177  62.590  1.00  0.00    -0.023 A 
HETATM   12  C   UNL     1       9.065  31.619  61.899  1.00  0.00     0.052 C 
HETATM   13  C   UNL     1       7.999  32.758  63.858  1.00  0.00     0.023 A 
ENDROOT
BRANCH  10  14
HETATM   14  N   UNL     1       6.373  31.532  60.754  1.00  0.00    -0.277 NA
HETATM   15  H   UNL     1       5.666  30.795  60.784  1.00  0.00     0.129 HD
BRANCH  14  16
HETATM   16  C   UNL     1       6.202  32.428  59.611  1.00  0.00     0.113 C 
BRANCH  16  17
HETATM   17  C   UNL     1       6.211  31.697  58.262  1.00  0.00     0.137 C 
BRANCH  17  18
HETATM   18  N   UNL     1       7.287  30.729  58.064  1.00  0.00    -0.360 N 
HETATM   19  C   UNL     1       7.130  29.395  57.742  1.00  0.00     0.221 C 
HETATM   20  O   UNL     1       6.030  28.862  57.609  1.00  0.00    -0.273 OA
HETATM   21  H   UNL     1       8.233  31.090  58.111  1.00  0.00     0.162 HD
BRANCH  19  22
HETATM   22  C   UNL     1       8.447  28.643  57.560  1.00  0.00     0.070 C 
HETATM   23  C   UNL     1       8.189  27.192  57.159  1.00  0.00     0.019 C 
HETATM   24  C   UNL     1       9.326  29.332  56.517  1.00  0.00     0.019 C 
ENDBRANCH  19  22
ENDBRANCH  17  18
ENDBRANCH  16  17
ENDBRANCH  14  16
ENDBRANCH  10  14
TORSDOF 5
ENDMDL
MODEL 7
REMARK VINA RESULT:      -7.6      5.711      8.640
REMARK  5 active torsions:
REMARK  status: ('A' for Active; 'I' for Inactive)
REMARK    1  A    between atoms: C_10  and  N_11 
REMARK    2  A    between atoms: N_11  and  C_12 
REMARK    3  A    between atoms: C_12  and  C_13 
REMARK    4  A    between atoms: C_13  and  N_14 
REMARK       I    between atoms: N_14  and  C_15 
REMARK    5  A    between atoms: C_15  and  C_16 
ROOT
HETATM    1  C   UNL     1       7.354  32.758  63.261  1.00  0.00     0.048 C 
HETATM    2  C   UNL     1       7.995  32.171  62.035  1.00  0.00    -0.060 A 
HETATM    3  C   UNL     1       7.219  31.566  61.039  1.00  0.00     0.037 A 
HETATM    4  C   UNL     1       7.825  31.044  59.888  1.00  0.00     0.044 A 
HETATM    5  C   UNL     1       9.218  31.135  59.713  1.00  0.00    -0.009 A 
HETATM    6  C   UNL     1       9.989  31.754  60.706  1.00  0.00     0.014 A 
HETATM    7  C   UNL     1       9.380  32.270  61.854  1.00  0.00     0.007 A 
HETATM    8  N   UNL     1       7.084  30.448  58.940  1.00  0.00    -0.346 N 
HETATM    9  H   UNL     1       6.083  30.411  59.095  1.00  0.00     0.167 HD
HETATM   10  C   UNL     1       7.576  29.898  57.816  1.00  0.00     0.086 A 
HETATM   11  C   UNL     1       8.960  30.006  57.576  1.00  0.00    -0.023 A 
HETATM   12  C   UNL     1       9.599  29.455  56.330  1.00  0.00     0.052 C 
HETATM   13  C   UNL     1       9.776  30.608  58.545  1.00  0.00     0.023 A 
ENDROOT
BRANCH  10  14
HETATM   14  N   UNL     1       6.727  29.312  56.871  1.00  0.00    -0.277 NA
HETATM   15  H   UNL     1       7.206  28.569  56.358  1.00  0.00     0.129 HD
BRANCH  14  16
HETATM   16  C   UNL     1       5.379  28.928  57.288  1.00  0.00     0.113 C 
BRANCH  16  17
HETATM   17  C   UNL     1       4.472  28.531  56.116  1.00  0.00     0.137 C 
BRANCH  17  18
HETATM   18  N   UNL     1       4.630  27.168  55.616  1.00  0.00    -0.360 N 
HETATM   19  C   UNL     1       5.617  26.727  54.756  1.00  0.00     0.221 C 
HETATM   20  O   UNL     1       6.478  27.469  54.287  1.00  0.00    -0.273 OA
HETATM   21  H   UNL     1       3.989  26.475  55.985  1.00  0.00     0.162 HD
BRANCH  19  22
HETATM   22  C   UNL     1       5.545  25.233  54.445  1.00  0.00     0.070 C 
HETATM   23  C   UNL     1       4.825  24.993  53.119  1.00  0.00     0.019 C 
HETATM   24  C   UNL     1       6.943  24.618  54.407  1.00  0.00     0.019 C 
ENDBRANCH  19  22
ENDBRANCH  17  18
ENDBRANCH  16  17
ENDBRANCH  14  16
ENDBRANCH  10  14
TORSDOF 5
ENDMDL
MODEL 8
REMARK VINA RESULT:      -7.5      1.817      2.472
REMARK  5 active torsions:
REMARK  status: ('A' for Active; 'I' for Inactive)
REMARK    1  A    between atoms: C_10  and  N_11 
REMARK    2  A    between atoms: N_11  and  C_12 
REMARK    3  A    between atoms: C_12  and  C_13 
REMARK    4  A    between atoms: C_13  and  N_14 
REMARK       I    between atoms: N_14  and  C_15 
REMARK    5  A    between atoms: C_15  and  C_16 
ROOT
HETATM    1  C   UNL     1       7.999  20.697  52.899  1.00  0.00     0.048 C 
HETATM    2  C   UNL     1       8.050  21.855  53.856  1.00  0.00    -0.060 A 
HETATM    3  C   UNL     1       7.476  23.087  53.523  1.00  0.00     0.037 A 
HETATM    4  C   UNL     1       7.508  24.153  54.432  1.00  0.00     0.044 A 
HETATM    5  C   UNL     1       8.104  23.992  55.696  1.00  0.00    -0.009 A 
HETATM    6  C   UNL     1       8.665  22.752  56.031  1.00  0.00     0.014 A 
HETATM    7  C   UNL     1       8.633  21.694  55.119  1.00  0.00     0.007 A 
HETATM    8  N   UNL     1       6.974  25.341  54.107  1.00  0.00    -0.346 N 
HETATM    9  H   UNL     1       6.544  25.417  53.193  1.00  0.00     0.167 HD
HETATM   10  C   UNL     1       6.977  26.426  54.902  1.00  0.00     0.086 A 
HETATM   11  C   UNL     1       7.522  26.298  56.195  1.00  0.00    -0.023 A 
HETATM   12  C   UNL     1       7.539  27.445  57.170  1.00  0.00     0.052 C 
HETATM   13  C   UNL     1       8.104  25.080  56.573  1.00  0.00     0.023 A 
ENDROOT
BRANCH  10  14
HETATM   14  N   UNL     1       6.380  27.621  54.489  1.00  0.00    -0.277 NA
HETATM   15  H   UNL     1       6.626  27.839  53.521  1.00  0.00     0.129 HD
BRANCH  14  16
HETATM   16  C   UNL     1       4.957  27.821  54.765  1.00  0.00     0.113 C 
BRANCH  16  17
HETATM   17  C   UNL     1       4.086  27.788  53.503  1.00  0.00     0.137 C 
BRANCH  17  18
HETATM   18  N   UNL     1       4.801  27.728  52.231  1.00  0.00    -0.360 N 
HETATM   19  C   UNL     1       4.316  28.145  51.005  1.00  0.00     0.221 C 
HETATM   20  O   UNL     1       3.185  28.601  50.852  1.00  0.00    -0.273 OA
HETATM   21  H   UNL     1       5.761  27.405  52.267  1.00  0.00     0.162 HD
BRANCH  19  22
HETATM   22  C   UNL     1       5.316  27.993  49.860  1.00  0.00     0.070 C 
HETATM   23  C   UNL     1       4.713  27.169  48.724  1.00  0.00     0.019 C 
HETATM   24  C   UNL     1       5.764  29.360  49.344  1.00  0.00     0.019 C 
ENDBRANCH  19  22
ENDBRANCH  17  18
ENDBRANCH  16  17
ENDBRANCH  14  16
ENDBRANCH  10  14
TORSDOF 5
ENDMDL
MODEL 9
REMARK VINA RESULT:      -7.5      5.524      8.676
REMARK  5 active torsions:
REMARK  status: ('A' for Active; 'I' for Inactive)
REMARK    1  A    between atoms: C_10  and  N_11 
REMARK    2  A    between atoms: N_11  and  C_12 
REMARK    3  A    between atoms: C_12  and  C_13 
REMARK    4  A    between atoms: C_13  and  N_14 
REMARK       I    between atoms: N_14  and  C_15 
REMARK    5  A    between atoms: C_15  and  C_16 
ROOT
HETATM    1  C   UNL     1       5.454  33.299  61.482  1.00  0.00     0.048 C 
HETATM    2  C   UNL     1       6.571  32.611  60.750  1.00  0.00    -0.060 A 
HETATM    3  C   UNL     1       6.326  31.904  59.567  1.00  0.00     0.037 A 
HETATM    4  C   UNL     1       7.380  31.287  58.879  1.00  0.00     0.044 A 
HETATM    5  C   UNL     1       8.698  31.384  59.361  1.00  0.00    -0.009 A 
HETATM    6  C   UNL     1       8.940  32.105  60.539  1.00  0.00     0.014 A 
HETATM    7  C   UNL     1       7.885  32.715  61.222  1.00  0.00     0.007 A 
HETATM    8  N   UNL     1       7.144  30.594  57.754  1.00  0.00    -0.346 N 
HETATM    9  H   UNL     1       6.185  30.555  57.431  1.00  0.00     0.167 HD
HETATM   10  C   UNL     1       8.085  29.950  57.039  1.00  0.00     0.086 A 
HETATM   11  C   UNL     1       9.425  30.058  57.459  1.00  0.00    -0.023 A 
HETATM   12  C   UNL     1      10.552  29.403  56.705  1.00  0.00     0.052 C 
HETATM   13  C   UNL     1       9.717  30.760  58.637  1.00  0.00     0.023 A 
ENDROOT
BRANCH  10  14
HETATM   14  N   UNL     1       7.752  29.265  55.865  1.00  0.00    -0.277 NA
HETATM   15  H   UNL     1       8.586  29.062  55.311  1.00  0.00     0.129 HD
BRANCH  14  16
HETATM   16  C   UNL     1       6.847  28.120  55.959  1.00  0.00     0.113 C 
BRANCH  16  17
HETATM   17  C   UNL     1       7.573  26.770  55.918  1.00  0.00     0.137 C 
BRANCH  17  18
HETATM   18  N   UNL     1       7.362  25.964  54.718  1.00  0.00    -0.360 N 
HETATM   19  C   UNL     1       7.746  24.647  54.546  1.00  0.00     0.221 C 
HETATM   20  O   UNL     1       8.347  24.006  55.405  1.00  0.00    -0.273 OA
HETATM   21  H   UNL     1       6.833  26.398  53.970  1.00  0.00     0.162 HD
BRANCH  19  22
HETATM   22  C   UNL     1       7.349  24.060  53.192  1.00  0.00     0.070 C 
HETATM   23  C   UNL     1       7.857  24.941  52.053  1.00  0.00     0.019 C 
HETATM   24  C   UNL     1       7.884  22.637  53.040  1.00  0.00     0.019 C 
ENDBRANCH  19  22
ENDBRANCH  17  18
ENDBRANCH  16  17
ENDBRANCH  14  16
ENDBRANCH  10  14
TORSDOF 5
ENDMDL
MODEL 10
REMARK VINA RESULT:      -7.5     10.380     12.663
REMARK  5 active torsions:
REMARK  status: ('A' for Active; 'I' for Inactive)
REMARK    1  A    between atoms: C_10  and  N_11 
REMARK    2  A    between atoms: N_11  and  C_12 
REMARK    3  A    between atoms: C_12  and  C_13 
REMARK    4  A    between atoms: C_13  and  N_14 
REMARK       I    between atoms: N_14  and  C_15 
REMARK    5  A    between atoms: C_15  and  C_16 
ROOT
HETATM    1  C   UNL     1       8.152  30.818  58.374  1.00  0.00     0.048 C 
HETATM    2  C   UNL     1       8.140  31.321  59.790  1.00  0.00    -0.060 A 
HETATM    3  C   UNL     1       7.098  32.132  60.255  1.00  0.00     0.037 A 
HETATM    4  C   UNL     1       7.084  32.574  61.585  1.00  0.00     0.044 A 
HETATM    5  C   UNL     1       8.109  32.197  62.472  1.00  0.00    -0.009 A 
HETATM    6  C   UNL     1       9.143  31.374  62.005  1.00  0.00     0.014 A 
HETATM    7  C   UNL     1       9.154  30.938  60.677  1.00  0.00     0.007 A 
HETATM    8  N   UNL     1       6.095  33.367  62.028  1.00  0.00    -0.346 N 
HETATM    9  H   UNL     1       5.369  33.609  61.364  1.00  0.00     0.167 HD
HETATM   10  C   UNL     1       6.009  33.860  63.276  1.00  0.00     0.086 A 
HETATM   11  C   UNL     1       6.988  33.471  64.211  1.00  0.00    -0.023 A 
HETATM   12  C   UNL     1       6.957  33.940  65.641  1.00  0.00     0.052 C 
HETATM   13  C   UNL     1       8.049  32.656  63.790  1.00  0.00     0.023 A 
ENDROOT
BRANCH  10  14
HETATM   14  N   UNL     1       4.930  34.665  63.658  1.00  0.00    -0.277 NA
HETATM   15  H   UNL     1       4.844  35.478  63.044  1.00  0.00     0.129 HD
BRANCH  14  16
HETATM   16  C   UNL     1       3.643  34.024  63.926  1.00  0.00     0.113 C 
BRANCH  16  17
HETATM   17  C   UNL     1       2.552  34.413  62.919  1.00  0.00     0.137 C 
BRANCH  17  18
HETATM   18  N   UNL     1       2.625  33.765  61.612  1.00  0.00    -0.360 N 
HETATM   19  C   UNL     1       3.393  34.179  60.541  1.00  0.00     0.221 C 
HETATM   20  O   UNL     1       4.097  35.186  60.571  1.00  0.00    -0.273 OA
HETATM   21  H   UNL     1       2.108  32.899  61.509  1.00  0.00     0.162 HD
BRANCH  19  22
HETATM   22  C   UNL     1       3.290  33.270  59.317  1.00  0.00     0.070 C 
HETATM   23  C   UNL     1       4.340  33.647  58.275  1.00  0.00     0.019 C 
HETATM   24  C   UNL     1       3.442  31.802  59.717  1.00  0.00     0.019 C 
ENDBRANCH  19  22
ENDBRANCH  17  18
ENDBRANCH  16  17
ENDBRANCH  14  16
ENDBRANCH  10  14
TORSDOF 5
ENDMDL
