MODEL 1
REMARK VINA RESULT:      -9.1      0.000      0.000
REMARK  3 active torsions:
REMARK  status: ('A' for Active; 'I' for Inactive)
REMARK    1  A    between atoms: C_11  and  N_12 
REMARK       I    between atoms: N_12  and  C_13 
REMARK    2  A    between atoms: C_13  and  C_14 
REMARK    3  A    between atoms: C_15  and  C_16 
ROOT
HETATM    1  N   UNL     1       6.745  26.895  55.533  1.00  0.00    -0.352 N 
HETATM    2  C   UNL     1       6.160  25.781  54.942  1.00  0.00     0.255 C 
HETATM    3  O   UNL     1       5.358  25.074  55.536  1.00  0.00    -0.268 OA
HETATM    4  H   UNL     1       7.635  27.135  55.109  1.00  0.00     0.163 HD
ENDROOT
BRANCH   2   5
HETATM    5  C   UNL     1       6.580  25.539  53.572  1.00  0.00     0.080 A 
HETATM    6  C   UNL     1       7.299  24.424  53.028  1.00  0.00     0.104 A 
HETATM    7  N   UNL     1       7.424  24.547  51.696  1.00  0.00    -0.174 NA
HETATM    8  N   UNL     1       6.820  25.697  51.392  1.00  0.00    -0.288 N 
HETATM    9  H   UNL     1       6.789  25.973  50.414  1.00  0.00     0.188 HD
HETATM   10  C   UNL     1       6.309  26.341  52.476  1.00  0.00     0.128 A 
BRANCH   6  11
HETATM   11  C   UNL     1       7.890  23.265  53.706  1.00  0.00    -0.004 A 
HETATM   12  C   UNL     1       8.491  23.426  54.966  1.00  0.00     0.017 A 
HETATM   13  C   UNL     1       9.034  22.329  55.641  1.00  0.00     0.043 A 
HETATM   14  C   UNL     1       8.971  21.070  55.060  1.00  0.00     0.116 A 
HETATM   15  F   UNL     1       9.487  20.017  55.706  1.00  0.00    -0.206 F 
HETATM   16  C   UNL     1       8.371  20.885  53.820  1.00  0.00     0.043 A 
HETATM   17  C   UNL     1       7.827  21.981  53.145  1.00  0.00     0.017 A 
ENDBRANCH   6  11
ENDBRANCH   2   5
BRANCH   1  18
HETATM   18  C   UNL     1       6.557  27.184  56.947  1.00  0.00     0.089 C 
HETATM   19  C   UNL     1       5.367  28.101  57.269  1.00  0.00     0.063 C 
HETATM   20  C   UNL     1       5.549  29.569  56.870  1.00  0.00     0.121 C 
HETATM   21  N   UNL     1       6.878  30.073  57.395  1.00  0.00    -0.059 N 
HETATM   22  C   UNL     1       5.438  29.831  55.365  1.00  0.00     0.046 C 
HETATM   23  C   UNL     1       4.467  30.420  57.566  1.00  0.00     0.046 C 
HETATM   24  C   UNL     1       8.128  29.230  57.259  1.00  0.00     0.121 C 
HETATM   25  H   UNL     1       6.746  30.256  58.401  1.00  0.00     0.279 HD
HETATM   26  H   UNL     1       7.056  31.005  56.996  1.00  0.00     0.279 HD
HETATM   27  C   UNL     1       8.750  29.430  55.872  1.00  0.00     0.046 C 
HETATM   28  C   UNL     1       9.130  29.782  58.294  1.00  0.00     0.046 C 
HETATM   29  C   UNL     1       7.824  27.758  57.590  1.00  0.00     0.063 C 
ENDBRANCH   1  18
TORSDOF 3
ENDMDL
MODEL 2
REMARK VINA RESULT:      -8.8      2.362      3.683
REMARK  3 active torsions:
REMARK  status: ('A' for Active; 'I' for Inactive)
REMARK    1  A    between atoms: C_11  and  N_12 
REMARK       I    between atoms: N_12  and  C_13 
REMARK    2  A    between atoms: C_13  and  C_14 
REMARK    3  A    between atoms: C_15  and  C_16 
ROOT
HETATM    1  N   UNL     1       5.636  26.784  55.945  1.00  0.00    -0.352 N 
HETATM    2  C   UNL     1       5.940  25.438  55.780  1.00  0.00     0.255 C 
HETATM    3  O   UNL     1       5.340  24.727  54.984  1.00  0.00    -0.268 OA
HETATM    4  H   UNL     1       5.906  27.132  56.859  1.00  0.00     0.163 HD
ENDROOT
BRANCH   2   5
HETATM    5  C   UNL     1       7.022  24.960  56.623  1.00  0.00     0.080 A 
HETATM    6  C   UNL     1       7.920  23.862  56.410  1.00  0.00     0.104 A 
HETATM    7  N   UNL     1       8.831  23.799  57.397  1.00  0.00    -0.174 NA
HETATM    8  N   UNL     1       8.530  24.805  58.217  1.00  0.00    -0.288 N 
HETATM    9  H   UNL     1       9.118  24.945  59.034  1.00  0.00     0.188 HD
HETATM   10  C   UNL     1       7.448  25.527  57.813  1.00  0.00     0.128 A 
BRANCH   6  11
HETATM   11  C   UNL     1       7.945  22.863  55.337  1.00  0.00    -0.004 A 
HETATM   12  C   UNL     1       8.190  23.266  54.014  1.00  0.00     0.017 A 
HETATM   13  C   UNL     1       8.247  22.326  52.982  1.00  0.00     0.043 A 
HETATM   14  C   UNL     1       8.065  20.981  53.272  1.00  0.00     0.116 A 
HETATM   15  F   UNL     1       8.122  20.077  52.286  1.00  0.00    -0.206 F 
HETATM   16  C   UNL     1       7.832  20.557  54.574  1.00  0.00     0.043 A 
HETATM   17  C   UNL     1       7.777  21.497  55.608  1.00  0.00     0.017 A 
ENDBRANCH   6  11
ENDBRANCH   2   5
BRANCH   1  18
HETATM   18  C   UNL     1       4.477  27.381  55.297  1.00  0.00     0.089 C 
HETATM   19  C   UNL     1       4.585  27.514  53.770  1.00  0.00     0.063 C 
HETATM   20  C   UNL     1       5.561  28.586  53.277  1.00  0.00     0.121 C 
HETATM   21  N   UNL     1       5.281  29.891  53.994  1.00  0.00    -0.059 N 
HETATM   22  C   UNL     1       7.038  28.206  53.422  1.00  0.00     0.046 C 
HETATM   23  C   UNL     1       5.301  28.858  51.781  1.00  0.00     0.046 C 
HETATM   24  C   UNL     1       5.036  29.911  55.488  1.00  0.00     0.121 C 
HETATM   25  H   UNL     1       4.446  30.299  53.546  1.00  0.00     0.279 HD
HETATM   26  H   UNL     1       6.033  30.557  53.768  1.00  0.00     0.279 HD
HETATM   27  C   UNL     1       6.370  29.936  56.241  1.00  0.00     0.046 C 
HETATM   28  C   UNL     1       4.317  31.243  55.784  1.00  0.00     0.046 C 
HETATM   29  C   UNL     1       4.120  28.744  55.898  1.00  0.00     0.063 C 
ENDBRANCH   1  18
TORSDOF 3
ENDMDL
MODEL 3
REMARK VINA RESULT:      -8.5      2.640      3.671
REMARK  3 active torsions:
REMARK  status: ('A' for Active; 'I' for Inactive)
REMARK    1  A    between atoms: C_11  and  N_12 
REMARK       I    between atoms: N_12  and  C_13 
REMARK    2  A    between atoms: C_13  and  C_14 
REMARK    3  A    between atoms: C_15  and  C_16 
ROOT
HETATM    1  N   UNL     1       7.389  26.502  56.880  1.00  0.00    -0.352 N 
HETATM    2  C   UNL     1       6.809  25.240  56.866  1.00  0.00     0.255 C 
HETATM    3  O   UNL     1       5.733  25.011  57.402  1.00  0.00    -0.268 OA
HETATM    4  H   UNL     1       8.397  26.466  56.768  1.00  0.00     0.163 HD
ENDROOT
BRANCH   2   5
HETATM    5  C   UNL     1       7.583  24.231  56.162  1.00  0.00     0.080 A 
HETATM    6  C   UNL     1       7.646  23.955  54.757  1.00  0.00     0.104 A 
HETATM    7  N   UNL     1       8.544  22.987  54.506  1.00  0.00    -0.174 NA
HETATM    8  N   UNL     1       9.034  22.645  55.698  1.00  0.00    -0.288 N 
HETATM    9  H   UNL     1       9.751  21.926  55.729  1.00  0.00     0.188 HD
HETATM   10  C   UNL     1       8.486  23.346  56.728  1.00  0.00     0.128 A 
BRANCH   6  11
HETATM   11  C   UNL     1       6.887  24.542  53.648  1.00  0.00    -0.004 A 
HETATM   12  C   UNL     1       7.562  24.972  52.492  1.00  0.00     0.017 A 
HETATM   13  C   UNL     1       6.854  25.508  51.413  1.00  0.00     0.043 A 
HETATM   14  C   UNL     1       5.471  25.609  51.484  1.00  0.00     0.116 A 
HETATM   15  F   UNL     1       4.791  26.119  50.450  1.00  0.00    -0.206 F 
HETATM   16  C   UNL     1       4.782  25.180  52.612  1.00  0.00     0.043 A 
HETATM   17  C   UNL     1       5.489  24.642  53.692  1.00  0.00     0.017 A 
ENDBRANCH   6  11
ENDBRANCH   2   5
BRANCH   1  18
HETATM   18  C   UNL     1       6.826  27.583  57.676  1.00  0.00     0.089 C 
HETATM   19  C   UNL     1       5.661  28.335  57.015  1.00  0.00     0.063 C 
HETATM   20  C   UNL     1       6.052  29.242  55.844  1.00  0.00     0.121 C 
HETATM   21  N   UNL     1       7.208  30.131  56.259  1.00  0.00    -0.059 N 
HETATM   22  C   UNL     1       6.395  28.491  54.554  1.00  0.00     0.046 C 
HETATM   23  C   UNL     1       4.879  30.192  55.525  1.00  0.00     0.046 C 
HETATM   24  C   UNL     1       8.382  29.559  57.023  1.00  0.00     0.121 C 
HETATM   25  H   UNL     1       6.806  30.882  56.840  1.00  0.00     0.279 HD
HETATM   26  H   UNL     1       7.557  30.624  55.425  1.00  0.00     0.279 HD
HETATM   27  C   UNL     1       9.386  28.928  56.052  1.00  0.00     0.046 C 
HETATM   28  C   UNL     1       9.081  30.760  57.692  1.00  0.00     0.046 C 
HETATM   29  C   UNL     1       7.893  28.591  58.116  1.00  0.00     0.063 C 
ENDBRANCH   1  18
TORSDOF 3
ENDMDL
MODEL 4
REMARK VINA RESULT:      -8.4      3.808      6.504
REMARK  3 active torsions:
REMARK  status: ('A' for Active; 'I' for Inactive)
REMARK    1  A    between atoms: C_11  and  N_12 
REMARK       I    between atoms: N_12  and  C_13 
REMARK    2  A    between atoms: C_13  and  C_14 
REMARK    3  A    between atoms: C_15  and  C_16 
ROOT
HETATM    1  N   UNL     1       5.642  27.479  50.161  1.00  0.00    -0.352 N 
HETATM    2  C   UNL     1       5.550  26.622  51.251  1.00  0.00     0.255 C 
HETATM    3  O   UNL     1       5.025  25.520  51.171  1.00  0.00    -0.268 OA
HETATM    4  H   UNL     1       5.722  28.452  50.439  1.00  0.00     0.163 HD
ENDROOT
BRANCH   2   5
HETATM    5  C   UNL     1       6.131  27.146  52.476  1.00  0.00     0.080 A 
HETATM    6  C   UNL     1       6.871  26.460  53.494  1.00  0.00     0.104 A 
HETATM    7  N   UNL     1       7.299  27.323  54.430  1.00  0.00    -0.174 NA
HETATM    8  N   UNL     1       6.846  28.515  54.041  1.00  0.00    -0.288 N 
HETATM    9  H   UNL     1       7.077  29.322  54.615  1.00  0.00     0.188 HD
HETATM   10  C   UNL     1       6.128  28.469  52.886  1.00  0.00     0.128 A 
BRANCH   6  11
HETATM   11  C   UNL     1       7.175  25.031  53.635  1.00  0.00    -0.004 A 
HETATM   12  C   UNL     1       7.847  24.356  52.601  1.00  0.00     0.017 A 
HETATM   13  C   UNL     1       8.171  23.003  52.728  1.00  0.00     0.043 A 
HETATM   14  C   UNL     1       7.829  22.324  53.890  1.00  0.00     0.116 A 
HETATM   15  F   UNL     1       8.142  21.029  54.016  1.00  0.00    -0.206 F 
HETATM   16  C   UNL     1       7.174  22.974  54.929  1.00  0.00     0.043 A 
HETATM   17  C   UNL     1       6.851  24.328  54.804  1.00  0.00     0.017 A 
ENDBRANCH   6  11
ENDBRANCH   2   5
BRANCH   1  18
HETATM   18  C   UNL     1       4.971  27.176  48.905  1.00  0.00     0.089 C 
HETATM   19  C   UNL     1       5.277  28.150  47.756  1.00  0.00     0.063 C 
HETATM   20  C   UNL     1       4.649  29.540  47.895  1.00  0.00     0.121 C 
HETATM   21  N   UNL     1       3.173  29.397  48.209  1.00  0.00    -0.059 N 
HETATM   22  C   UNL     1       5.329  30.437  48.933  1.00  0.00     0.046 C 
HETATM   23  C   UNL     1       4.725  30.267  46.536  1.00  0.00     0.046 C 
HETATM   24  C   UNL     1       2.700  28.393  49.239  1.00  0.00     0.121 C 
HETATM   25  H   UNL     1       2.705  29.161  47.321  1.00  0.00     0.279 HD
HETATM   26  H   UNL     1       2.797  30.326  48.448  1.00  0.00     0.279 HD
HETATM   27  C   UNL     1       2.807  28.991  50.646  1.00  0.00     0.046 C 
HETATM   28  C   UNL     1       1.202  28.162  48.952  1.00  0.00     0.046 C 
HETATM   29  C   UNL     1       3.453  27.061  49.078  1.00  0.00     0.063 C 
ENDBRANCH   1  18
TORSDOF 3
ENDMDL
MODEL 5
REMARK VINA RESULT:      -8.3      4.316      6.896
REMARK  3 active torsions:
REMARK  status: ('A' for Active; 'I' for Inactive)
REMARK    1  A    between atoms: C_11  and  N_12 
REMARK       I    between atoms: N_12  and  C_13 
REMARK    2  A    between atoms: C_13  and  C_14 
REMARK    3  A    between atoms: C_15  and  C_16 
ROOT
HETATM    1  N   UNL     1       5.305  26.837  52.706  1.00  0.00    -0.352 N 
HETATM    2  C   UNL     1       4.343  27.830  52.561  1.00  0.00     0.255 C 
HETATM    3  O   UNL     1       3.279  27.800  53.165  1.00  0.00    -0.268 OA
HETATM    4  H   UNL     1       5.917  26.770  51.899  1.00  0.00     0.163 HD
ENDROOT
BRANCH   2   5
HETATM    5  C   UNL     1       4.713  28.894  51.642  1.00  0.00     0.080 A 
HETATM    6  C   UNL     1       4.530  28.969  50.222  1.00  0.00     0.104 A 
HETATM    7  N   UNL     1       4.944  30.160  49.756  1.00  0.00    -0.174 NA
HETATM    8  N   UNL     1       5.385  30.822  50.826  1.00  0.00    -0.288 N 
HETATM    9  H   UNL     1       5.734  31.766  50.690  1.00  0.00     0.188 HD
HETATM   10  C   UNL     1       5.285  30.109  51.981  1.00  0.00     0.128 A 
BRANCH   6  11
HETATM   11  C   UNL     1       4.006  27.969  49.287  1.00  0.00    -0.004 A 
HETATM   12  C   UNL     1       2.638  27.966  48.963  1.00  0.00     0.017 A 
HETATM   13  C   UNL     1       2.124  27.040  48.052  1.00  0.00     0.043 A 
HETATM   14  C   UNL     1       2.977  26.119  47.459  1.00  0.00     0.116 A 
HETATM   15  F   UNL     1       2.488  25.232  46.583  1.00  0.00    -0.206 F 
HETATM   16  C   UNL     1       4.335  26.110  47.755  1.00  0.00     0.043 A 
HETATM   17  C   UNL     1       4.850  27.037  48.665  1.00  0.00     0.017 A 
ENDBRANCH   6  11
ENDBRANCH   2   5
BRANCH   1  18
HETATM   18  C   UNL     1       5.028  25.623  53.460  1.00  0.00     0.089 C 
HETATM   19  C   UNL     1       5.343  25.707  54.961  1.00  0.00     0.063 C 
HETATM   20  C   UNL     1       6.833  25.729  55.314  1.00  0.00     0.121 C 
HETATM   21  N   UNL     1       7.538  24.595  54.596  1.00  0.00    -0.059 N 
HETATM   22  C   UNL     1       7.530  27.061  55.019  1.00  0.00     0.046 C 
HETATM   23  C   UNL     1       7.001  25.446  56.822  1.00  0.00     0.046 C 
HETATM   24  C   UNL     1       7.247  24.310  53.138  1.00  0.00     0.121 C 
HETATM   25  H   UNL     1       7.321  23.735  55.122  1.00  0.00     0.279 HD
HETATM   26  H   UNL     1       8.554  24.711  54.720  1.00  0.00     0.279 HD
HETATM   27  C   UNL     1       8.088  25.226  52.243  1.00  0.00     0.046 C 
HETATM   28  C   UNL     1       7.717  22.862  52.886  1.00  0.00     0.046 C 
HETATM   29  C   UNL     1       5.735  24.401  52.864  1.00  0.00     0.063 C 
ENDBRANCH   1  18
TORSDOF 3
ENDMDL
MODEL 6
REMARK VINA RESULT:      -8.2      3.871      8.049
REMARK  3 active torsions:
REMARK  status: ('A' for Active; 'I' for Inactive)
REMARK    1  A    between atoms: C_11  and  N_12 
REMARK       I    between atoms: N_12  and  C_13 
REMARK    2  A    between atoms: C_13  and  C_14 
REMARK    3  A    between atoms: C_15  and  C_16 
ROOT
HETATM    1  N   UNL     1       7.546  27.468  57.196  1.00  0.00    -0.352 N 
HETATM    2  C   UNL     1       7.440  28.814  57.527  1.00  0.00     0.255 C 
HETATM    3  O   UNL     1       6.378  29.322  57.861  1.00  0.00    -0.268 OA
HETATM    4  H   UNL     1       8.334  27.281  56.584  1.00  0.00     0.163 HD
ENDROOT
BRANCH   2   5
HETATM    5  C   UNL     1       8.690  29.552  57.445  1.00  0.00     0.080 A 
HETATM    6  C   UNL     1       9.269  30.460  58.391  1.00  0.00     0.104 A 
HETATM    7  N   UNL     1      10.476  30.874  57.969  1.00  0.00    -0.174 NA
HETATM    8  N   UNL     1      10.665  30.268  56.797  1.00  0.00    -0.288 N 
HETATM    9  H   UNL     1      11.540  30.438  56.309  1.00  0.00     0.188 HD
HETATM   10  C   UNL     1       9.624  29.475  56.425  1.00  0.00     0.128 A 
BRANCH   6  11
HETATM   11  C   UNL     1       8.731  30.970  59.656  1.00  0.00    -0.004 A 
HETATM   12  C   UNL     1       7.704  31.930  59.641  1.00  0.00     0.017 A 
HETATM   13  C   UNL     1       7.158  32.406  60.836  1.00  0.00     0.043 A 
HETATM   14  C   UNL     1       7.633  31.920  62.046  1.00  0.00     0.116 A 
HETATM   15  F   UNL     1       7.109  32.373  63.192  1.00  0.00    -0.206 F 
HETATM   16  C   UNL     1       8.639  30.963  62.086  1.00  0.00     0.043 A 
HETATM   17  C   UNL     1       9.185  30.484  60.891  1.00  0.00     0.017 A 
ENDBRANCH   6  11
ENDBRANCH   2   5
BRANCH   1  18
HETATM   18  C   UNL     1       6.364  26.628  57.070  1.00  0.00     0.089 C 
HETATM   19  C   UNL     1       6.623  25.120  57.218  1.00  0.00     0.063 C 
HETATM   20  C   UNL     1       7.359  24.467  56.044  1.00  0.00     0.121 C 
HETATM   21  N   UNL     1       6.680  24.855  54.745  1.00  0.00    -0.059 N 
HETATM   22  C   UNL     1       8.854  24.792  55.980  1.00  0.00     0.046 C 
HETATM   23  C   UNL     1       7.225  22.934  56.152  1.00  0.00     0.046 C 
HETATM   24  C   UNL     1       6.256  26.287  54.496  1.00  0.00     0.121 C 
HETATM   25  H   UNL     1       5.832  24.272  54.672  1.00  0.00     0.279 HD
HETATM   26  H   UNL     1       7.267  24.537  53.961  1.00  0.00     0.279 HD
HETATM   27  C   UNL     1       7.441  27.103  53.969  1.00  0.00     0.046 C 
HETATM   28  C   UNL     1       5.200  26.230  53.373  1.00  0.00     0.046 C 
HETATM   29  C   UNL     1       5.612  26.884  55.760  1.00  0.00     0.063 C 
ENDBRANCH   1  18
TORSDOF 3
ENDMDL
MODEL 7
REMARK VINA RESULT:      -8.1      5.150      8.183
REMARK  3 active torsions:
REMARK  status: ('A' for Active; 'I' for Inactive)
REMARK    1  A    between atoms: C_11  and  N_12 
REMARK       I    between atoms: N_12  and  C_13 
REMARK    2  A    between atoms: C_13  and  C_14 
REMARK    3  A    between atoms: C_15  and  C_16 
ROOT
HETATM    1  N   UNL     1       6.762  29.574  57.183  1.00  0.00    -0.352 N 
HETATM    2  C   UNL     1       7.865  29.066  57.860  1.00  0.00     0.255 C 
HETATM    3  O   UNL     1       7.830  27.997  58.454  1.00  0.00    -0.268 OA
HETATM    4  H   UNL     1       6.796  30.584  57.090  1.00  0.00     0.163 HD
ENDROOT
BRANCH   2   5
HETATM    5  C   UNL     1       9.048  29.907  57.793  1.00  0.00     0.080 A 
HETATM    6  C   UNL     1       9.466  30.956  58.678  1.00  0.00     0.104 A 
HETATM    7  N   UNL     1      10.664  31.438  58.306  1.00  0.00    -0.174 NA
HETATM    8  N   UNL     1      11.002  30.740  57.222  1.00  0.00    -0.288 N 
HETATM    9  H   UNL     1      11.897  30.943  56.785  1.00  0.00     0.188 HD
HETATM   10  C   UNL     1      10.068  29.819  56.859  1.00  0.00     0.128 A 
BRANCH   6  11
HETATM   11  C   UNL     1       8.781  31.535  59.839  1.00  0.00    -0.004 A 
HETATM   12  C   UNL     1       7.499  32.089  59.687  1.00  0.00     0.017 A 
HETATM   13  C   UNL     1       6.818  32.620  60.786  1.00  0.00     0.043 A 
HETATM   14  C   UNL     1       7.416  32.591  62.039  1.00  0.00     0.116 A 
HETATM   15  F   UNL     1       6.764  33.095  63.094  1.00  0.00    -0.206 F 
HETATM   16  C   UNL     1       8.678  32.038  62.215  1.00  0.00     0.043 A 
HETATM   17  C   UNL     1       9.359  31.505  61.116  1.00  0.00     0.017 A 
ENDBRANCH   6  11
ENDBRANCH   2   5
BRANCH   1  18
HETATM   18  C   UNL     1       5.457  28.938  57.285  1.00  0.00     0.089 C 
HETATM   19  C   UNL     1       5.181  27.851  56.234  1.00  0.00     0.063 C 
HETATM   20  C   UNL     1       4.952  28.366  54.810  1.00  0.00     0.121 C 
HETATM   21  N   UNL     1       3.923  29.478  54.835  1.00  0.00    -0.059 N 
HETATM   22  C   UNL     1       6.225  28.835  54.098  1.00  0.00     0.046 C 
HETATM   23  C   UNL     1       4.337  27.237  53.956  1.00  0.00     0.046 C 
HETATM   24  C   UNL     1       3.990  30.564  55.887  1.00  0.00     0.121 C 
HETATM   25  H   UNL     1       3.002  29.023  54.929  1.00  0.00     0.279 HD
HETATM   26  H   UNL     1       3.889  29.914  53.903  1.00  0.00     0.279 HD
HETATM   27  C   UNL     1       4.970  31.659  55.452  1.00  0.00     0.046 C 
HETATM   28  C   UNL     1       2.584  31.198  55.936  1.00  0.00     0.046 C 
HETATM   29  C   UNL     1       4.315  29.959  57.265  1.00  0.00     0.063 C 
ENDBRANCH   1  18
TORSDOF 3
ENDMDL
MODEL 8
REMARK VINA RESULT:      -8.1      2.265      3.529
REMARK  3 active torsions:
REMARK  status: ('A' for Active; 'I' for Inactive)
REMARK    1  A    between atoms: C_11  and  N_12 
REMARK       I    between atoms: N_12  and  C_13 
REMARK    2  A    between atoms: C_13  and  C_14 
REMARK    3  A    between atoms: C_15  and  C_16 
ROOT
HETATM    1  N   UNL     1       6.167  28.854  54.757  1.00  0.00    -0.352 N 
HETATM    2  C   UNL     1       5.020  28.723  53.982  1.00  0.00     0.255 C 
HETATM    3  O   UNL     1       3.898  28.754  54.469  1.00  0.00    -0.268 OA
HETATM    4  H   UNL     1       6.979  28.429  54.322  1.00  0.00     0.163 HD
ENDROOT
BRANCH   2   5
HETATM    5  C   UNL     1       5.273  28.552  52.561  1.00  0.00     0.080 A 
HETATM    6  C   UNL     1       5.695  27.381  51.850  1.00  0.00     0.104 A 
HETATM    7  N   UNL     1       5.740  27.622  50.529  1.00  0.00    -0.174 NA
HETATM    8  N   UNL     1       5.374  28.897  50.391  1.00  0.00    -0.288 N 
HETATM    9  H   UNL     1       5.327  29.280  49.452  1.00  0.00     0.188 HD
HETATM   10  C   UNL     1       5.095  29.509  51.575  1.00  0.00     0.128 A 
BRANCH   6  11
HETATM   11  C   UNL     1       6.075  26.059  52.358  1.00  0.00    -0.004 A 
HETATM   12  C   UNL     1       7.271  25.462  51.922  1.00  0.00     0.017 A 
HETATM   13  C   UNL     1       7.666  24.217  52.416  1.00  0.00     0.043 A 
HETATM   14  C   UNL     1       6.870  23.568  53.350  1.00  0.00     0.116 A 
HETATM   15  F   UNL     1       7.247  22.375  53.827  1.00  0.00    -0.206 F 
HETATM   16  C   UNL     1       5.689  24.143  53.803  1.00  0.00     0.043 A 
HETATM   17  C   UNL     1       5.294  25.390  53.311  1.00  0.00     0.017 A 
ENDBRANCH   6  11
ENDBRANCH   2   5
BRANCH   1  18
HETATM   18  C   UNL     1       6.096  28.871  56.211  1.00  0.00     0.089 C 
HETATM   19  C   UNL     1       7.145  29.758  56.901  1.00  0.00     0.063 C 
HETATM   20  C   UNL     1       8.580  29.225  56.857  1.00  0.00     0.121 C 
HETATM   21  N   UNL     1       8.595  27.780  57.313  1.00  0.00    -0.059 N 
HETATM   22  C   UNL     1       9.259  29.358  55.490  1.00  0.00     0.046 C 
HETATM   23  C   UNL     1       9.440  30.001  57.876  1.00  0.00     0.046 C 
HETATM   24  C   UNL     1       7.552  26.804  56.812  1.00  0.00     0.121 C 
HETATM   25  H   UNL     1       8.523  27.796  58.342  1.00  0.00     0.279 HD
HETATM   26  H   UNL     1       9.532  27.390  57.137  1.00  0.00     0.279 HD
HETATM   27  C   UNL     1       7.969  26.241  55.449  1.00  0.00     0.046 C 
HETATM   28  C   UNL     1       7.551  25.630  57.813  1.00  0.00     0.046 C 
HETATM   29  C   UNL     1       6.160  27.460  56.806  1.00  0.00     0.063 C 
ENDBRANCH   1  18
TORSDOF 3
ENDMDL
MODEL 9
REMARK VINA RESULT:      -8.0      5.535      7.857
REMARK  3 active torsions:
REMARK  status: ('A' for Active; 'I' for Inactive)
REMARK    1  A    between atoms: C_11  and  N_12 
REMARK       I    between atoms: N_12  and  C_13 
REMARK    2  A    between atoms: C_13  and  C_14 
REMARK    3  A    between atoms: C_15  and  C_16 
ROOT
HETATM    1  N   UNL     1       5.855  32.147  59.832  1.00  0.00    -0.352 N 
HETATM    2  C   UNL     1       5.716  32.105  58.450  1.00  0.00     0.255 C 
HETATM    3  O   UNL     1       5.810  33.107  57.754  1.00  0.00    -0.268 OA
HETATM    4  H   UNL     1       5.381  31.377  60.292  1.00  0.00     0.163 HD
ENDROOT
BRANCH   2   5
HETATM    5  C   UNL     1       5.459  30.779  57.913  1.00  0.00     0.080 A 
HETATM    6  C   UNL     1       6.392  29.762  57.524  1.00  0.00     0.104 A 
HETATM    7  N   UNL     1       5.744  28.646  57.147  1.00  0.00    -0.174 NA
HETATM    8  N   UNL     1       4.448  28.932  57.278  1.00  0.00    -0.288 N 
HETATM    9  H   UNL     1       3.776  28.204  57.054  1.00  0.00     0.188 HD
HETATM   10  C   UNL     1       4.216  30.198  57.719  1.00  0.00     0.128 A 
BRANCH   6  11
HETATM   11  C   UNL     1       7.857  29.801  57.470  1.00  0.00    -0.004 A 
HETATM   12  C   UNL     1       8.522  29.422  56.291  1.00  0.00     0.017 A 
HETATM   13  C   UNL     1       9.915  29.479  56.209  1.00  0.00     0.043 A 
HETATM   14  C   UNL     1      10.646  29.922  57.304  1.00  0.00     0.116 A 
HETATM   15  F   UNL     1      11.981  29.981  57.227  1.00  0.00    -0.206 F 
HETATM   16  C   UNL     1      10.010  30.312  58.475  1.00  0.00     0.043 A 
HETATM   17  C   UNL     1       8.616  30.257  58.557  1.00  0.00     0.017 A 
ENDBRANCH   6  11
ENDBRANCH   2   5
BRANCH   1  18
HETATM   18  C   UNL     1       5.954  33.414  60.541  1.00  0.00     0.089 C 
HETATM   19  C   UNL     1       7.034  33.462  61.634  1.00  0.00     0.063 C 
HETATM   20  C   UNL     1       6.725  32.645  62.892  1.00  0.00     0.121 C 
HETATM   21  N   UNL     1       5.331  32.985  63.383  1.00  0.00    -0.059 N 
HETATM   22  C   UNL     1       6.871  31.132  62.712  1.00  0.00     0.046 C 
HETATM   23  C   UNL     1       7.687  33.070  64.021  1.00  0.00     0.046 C 
HETATM   24  C   UNL     1       4.177  33.090  62.409  1.00  0.00     0.121 C 
HETATM   25  H   UNL     1       5.403  33.893  63.866  1.00  0.00     0.279 HD
HETATM   26  H   UNL     1       5.079  32.325  64.133  1.00  0.00     0.279 HD
HETATM   27  C   UNL     1       3.597  31.701  62.126  1.00  0.00     0.046 C 
HETATM   28  C   UNL     1       3.084  33.906  63.131  1.00  0.00     0.046 C 
HETATM   29  C   UNL     1       4.612  33.846  61.140  1.00  0.00     0.063 C 
ENDBRANCH   1  18
TORSDOF 3
ENDMDL
MODEL 10
REMARK VINA RESULT:      -7.9      8.411     10.691
REMARK  3 active torsions:
REMARK  status: ('A' for Active; 'I' for Inactive)
REMARK    1  A    between atoms: C_11  and  N_12 
REMARK       I    between atoms: N_12  and  C_13 
REMARK    2  A    between atoms: C_13  and  C_14 
REMARK    3  A    between atoms: C_15  and  C_16 
ROOT
HETATM    1  N   UNL     1       4.154  33.368  62.134  1.00  0.00    -0.352 N 
HETATM    2  C   UNL     1       4.734  32.429  62.979  1.00  0.00     0.255 C 
HETATM    3  O   UNL     1       4.345  31.270  63.030  1.00  0.00    -0.268 OA
HETATM    4  H   UNL     1       4.286  34.318  62.463  1.00  0.00     0.163 HD
ENDROOT
BRANCH   2   5
HETATM    5  C   UNL     1       5.831  32.941  63.782  1.00  0.00     0.080 A 
HETATM    6  C   UNL     1       7.240  32.907  63.518  1.00  0.00     0.104 A 
HETATM    7  N   UNL     1       7.916  33.560  64.479  1.00  0.00    -0.174 NA
HETATM    8  N   UNL     1       6.987  33.989  65.332  1.00  0.00    -0.288 N 
HETATM    9  H   UNL     1       7.293  34.529  66.137  1.00  0.00     0.188 HD
HETATM   10  C   UNL     1       5.722  33.637  64.975  1.00  0.00     0.128 A 
BRANCH   6  11
HETATM   11  C   UNL     1       7.976  32.272  62.420  1.00  0.00    -0.004 A 
HETATM   12  C   UNL     1       8.546  31.000  62.605  1.00  0.00     0.017 A 
HETATM   13  C   UNL     1       9.225  30.366  61.563  1.00  0.00     0.043 A 
HETATM   14  C   UNL     1       9.331  30.998  60.331  1.00  0.00     0.116 A 
HETATM   15  F   UNL     1       9.979  30.391  59.329  1.00  0.00    -0.206 F 
HETATM   16  C   UNL     1       8.767  32.250  60.121  1.00  0.00     0.043 A 
HETATM   17  C   UNL     1       8.085  32.885  61.163  1.00  0.00     0.017 A 
ENDBRANCH   6  11
ENDBRANCH   2   5
BRANCH   1  18
HETATM   18  C   UNL     1       2.945  33.062  61.384  1.00  0.00     0.089 C 
HETATM   19  C   UNL     1       3.168  32.256  60.095  1.00  0.00     0.063 C 
HETATM   20  C   UNL     1       3.827  33.029  58.948  1.00  0.00     0.121 C 
HETATM   21  N   UNL     1       3.097  34.340  58.740  1.00  0.00    -0.059 N 
HETATM   22  C   UNL     1       5.326  33.279  59.138  1.00  0.00     0.046 C 
HETATM   23  C   UNL     1       3.655  32.234  57.637  1.00  0.00     0.046 C 
HETATM   24  C   UNL     1       2.702  35.197  59.923  1.00  0.00     0.121 C 
HETATM   25  H   UNL     1       2.231  34.116  58.227  1.00  0.00     0.279 HD
HETATM   26  H   UNL     1       3.636  34.913  58.075  1.00  0.00     0.279 HD
HETATM   27  C   UNL     1       3.881  36.074  60.357  1.00  0.00     0.046 C 
HETATM   28  C   UNL     1       1.591  36.140  59.415  1.00  0.00     0.046 C 
HETATM   29  C   UNL     1       2.137  34.322  61.056  1.00  0.00     0.063 C 
ENDBRANCH   1  18
TORSDOF 3
ENDMDL
