MODEL 1
REMARK VINA RESULT:      -9.2      0.000      0.000
REMARK  4 active torsions:
REMARK  status: ('A' for Active; 'I' for Inactive)
REMARK    1  A    between atoms: C_8  and  N_9 
REMARK       I    between atoms: N_9  and  C_10 
REMARK       I    between atoms: C_10  and  N_11 
REMARK    2  A    between atoms: N_11  and  C_12 
REMARK    3  A    between atoms: C_15  and  O_16 
REMARK    4  A    between atoms: O_16  and  C_17 
ROOT
HETATM    1  C   UNL     1       5.152  26.608  52.350  1.00  0.00     0.054 A 
HETATM    2  C   UNL     1       6.437  27.080  52.606  1.00  0.00     0.149 A 
HETATM    3  N   UNL     1       7.346  26.435  53.382  1.00  0.00    -0.235 NA
HETATM    4  C   UNL     1       6.965  25.261  53.927  1.00  0.00     0.169 A 
HETATM    5  C   UNL     1       5.716  24.698  53.722  1.00  0.00     0.060 A 
HETATM    6  C   UNL     1       4.800  25.384  52.923  1.00  0.00     0.035 A 
ENDROOT
BRANCH   1   7
HETATM    7  N   UNL     1       4.180  27.270  51.569  1.00  0.00    -0.307 N 
HETATM    8  C   UNL     1       4.222  27.482  50.199  1.00  0.00     0.325 C 
HETATM    9  N   UNL     1       3.112  28.193  49.781  1.00  0.00    -0.305 N 
HETATM   10  O   UNL     1       5.121  27.090  49.470  1.00  0.00    -0.247 OA
HETATM   11  H   UNL     1       2.307  28.187  50.386  1.00  0.00     0.171 HD
HETATM   12  H   UNL     1       3.435  27.725  52.074  1.00  0.00     0.170 HD
BRANCH   9  13
HETATM   13  C   UNL     1       2.905  28.738  48.523  1.00  0.00     0.086 A 
HETATM   14  C   UNL     1       1.919  28.265  47.676  1.00  0.00     0.052 A 
HETATM   15  C   UNL     1       0.920  27.177  47.807  1.00  0.00     0.072 C 
HETATM   16  N   UNL     1       2.001  29.024  46.545  1.00  0.00    -0.280 N 
HETATM   17  H   UNL     1       1.441  28.958  45.701  1.00  0.00     0.189 HD
HETATM   18  N   UNL     1       2.939  29.973  46.597  1.00  0.00    -0.177 NA
HETATM   19  C   UNL     1       3.502  29.818  47.805  1.00  0.00     0.079 A 
HETATM   20  C   UNL     1       4.572  30.769  48.199  1.00  0.00     0.075 C 
ENDBRANCH   9  13
ENDBRANCH   1   7
BRANCH   4  21
HETATM   21  O   UNL     1       7.831  24.546  54.750  1.00  0.00    -0.292 OA
BRANCH  21  22
HETATM   22  C   UNL     1       7.931  23.198  54.511  1.00  0.00     0.080 A 
HETATM   23  C   UNL     1       7.653  22.315  55.551  1.00  0.00     0.079 A 
HETATM   24  C   UNL     1       7.705  20.948  55.304  1.00  0.00     0.119 A 
HETATM   25  F   UNL     1       7.448  20.089  56.299  1.00  0.00    -0.206 F 
HETATM   26  C   UNL     1       8.010  20.456  54.038  1.00  0.00     0.042 A 
HETATM   27  C   UNL     1       8.266  21.345  52.995  1.00  0.00     0.006 A 
HETATM   28  C   UNL     1       8.217  22.720  53.228  1.00  0.00     0.037 A 
ENDBRANCH  21  22
ENDBRANCH   4  21
TORSDOF 4
ENDMDL
MODEL 2
REMARK VINA RESULT:      -9.1      5.508      8.382
REMARK  4 active torsions:
REMARK  status: ('A' for Active; 'I' for Inactive)
REMARK    1  A    between atoms: C_8  and  N_9 
REMARK       I    between atoms: N_9  and  C_10 
REMARK       I    between atoms: C_10  and  N_11 
REMARK    2  A    between atoms: N_11  and  C_12 
REMARK    3  A    between atoms: C_15  and  O_16 
REMARK    4  A    between atoms: O_16  and  C_17 
ROOT
HETATM    1  C   UNL     1       6.431  27.992  55.998  1.00  0.00     0.054 A 
HETATM    2  C   UNL     1       5.491  27.037  56.376  1.00  0.00     0.149 A 
HETATM    3  N   UNL     1       5.368  25.816  55.795  1.00  0.00    -0.235 NA
HETATM    4  C   UNL     1       6.224  25.523  54.794  1.00  0.00     0.169 A 
HETATM    5  C   UNL     1       7.205  26.396  54.353  1.00  0.00     0.060 A 
HETATM    6  C   UNL     1       7.306  27.647  54.965  1.00  0.00     0.035 A 
ENDROOT
BRANCH   1   7
HETATM    7  N   UNL     1       6.563  29.278  56.566  1.00  0.00    -0.307 N 
HETATM    8  C   UNL     1       7.259  29.606  57.720  1.00  0.00     0.325 C 
HETATM    9  N   UNL     1       7.145  30.957  57.992  1.00  0.00    -0.305 N 
HETATM   10  O   UNL     1       7.885  28.803  58.397  1.00  0.00    -0.247 OA
HETATM   11  H   UNL     1       6.887  31.560  57.227  1.00  0.00     0.171 HD
HETATM   12  H   UNL     1       6.008  30.010  56.150  1.00  0.00     0.170 HD
BRANCH   9  13
HETATM   13  C   UNL     1       7.554  31.605  59.147  1.00  0.00     0.086 A 
HETATM   14  C   UNL     1       8.888  31.865  59.404  1.00  0.00     0.052 A 
HETATM   15  C   UNL     1      10.132  31.569  58.653  1.00  0.00     0.072 C 
HETATM   16  N   UNL     1       8.920  32.506  60.609  1.00  0.00    -0.280 N 
HETATM   17  H   UNL     1       9.728  32.842  61.122  1.00  0.00     0.189 HD
HETATM   18  N   UNL     1       7.714  32.713  61.142  1.00  0.00    -0.177 NA
HETATM   19  C   UNL     1       6.861  32.173  60.258  1.00  0.00     0.079 A 
HETATM   20  C   UNL     1       5.407  32.279  60.541  1.00  0.00     0.075 C 
ENDBRANCH   9  13
ENDBRANCH   1   7
BRANCH   4  21
HETATM   21  O   UNL     1       6.153  24.299  54.134  1.00  0.00    -0.292 OA
BRANCH  21  22
HETATM   22  C   UNL     1       7.164  23.406  54.390  1.00  0.00     0.080 A 
HETATM   23  C   UNL     1       7.341  22.957  55.696  1.00  0.00     0.079 A 
HETATM   24  C   UNL     1       8.330  22.015  55.955  1.00  0.00     0.119 A 
HETATM   25  F   UNL     1       8.515  21.582  57.209  1.00  0.00    -0.206 F 
HETATM   26  C   UNL     1       9.127  21.508  54.933  1.00  0.00     0.042 A 
HETATM   27  C   UNL     1       8.931  21.945  53.623  1.00  0.00     0.006 A 
HETATM   28  C   UNL     1       7.940  22.889  53.348  1.00  0.00     0.037 A 
ENDBRANCH  21  22
ENDBRANCH   4  21
TORSDOF 4
ENDMDL
MODEL 3
REMARK VINA RESULT:      -9.0      1.584      2.303
REMARK  4 active torsions:
REMARK  status: ('A' for Active; 'I' for Inactive)
REMARK    1  A    between atoms: C_8  and  N_9 
REMARK       I    between atoms: N_9  and  C_10 
REMARK       I    between atoms: C_10  and  N_11 
REMARK    2  A    between atoms: N_11  and  C_12 
REMARK    3  A    between atoms: C_15  and  O_16 
REMARK    4  A    between atoms: O_16  and  C_17 
ROOT
HETATM    1  C   UNL     1       5.691  25.445  52.197  1.00  0.00     0.054 A 
HETATM    2  C   UNL     1       5.318  25.168  53.510  1.00  0.00     0.149 A 
HETATM    3  N   UNL     1       6.171  24.719  54.467  1.00  0.00    -0.235 NA
HETATM    4  C   UNL     1       7.459  24.543  54.108  1.00  0.00     0.169 A 
HETATM    5  C   UNL     1       7.935  24.804  52.833  1.00  0.00     0.060 A 
HETATM    6  C   UNL     1       7.036  25.261  51.868  1.00  0.00     0.035 A 
ENDROOT
BRANCH   1   7
HETATM    7  N   UNL     1       4.820  25.887  51.177  1.00  0.00    -0.307 N 
HETATM    8  C   UNL     1       4.815  27.137  50.576  1.00  0.00     0.325 C 
HETATM    9  N   UNL     1       3.802  27.224  49.639  1.00  0.00    -0.305 N 
HETATM   10  O   UNL     1       5.602  28.032  50.846  1.00  0.00    -0.247 OA
HETATM   11  H   UNL     1       3.432  26.359  49.280  1.00  0.00     0.171 HD
HETATM   12  H   UNL     1       4.061  25.268  50.938  1.00  0.00     0.170 HD
BRANCH   9  13
HETATM   13  C   UNL     1       3.385  28.369  48.978  1.00  0.00     0.086 A 
HETATM   14  C   UNL     1       4.012  28.818  47.830  1.00  0.00     0.052 A 
HETATM   15  C   UNL     1       5.170  28.311  47.055  1.00  0.00     0.072 C 
HETATM   16  N   UNL     1       3.346  29.949  47.456  1.00  0.00    -0.280 N 
HETATM   17  H   UNL     1       3.531  30.556  46.666  1.00  0.00     0.189 HD
HETATM   18  N   UNL     1       2.317  30.256  48.249  1.00  0.00    -0.177 NA
HETATM   19  C   UNL     1       2.319  29.295  49.186  1.00  0.00     0.079 A 
HETATM   20  C   UNL     1       1.247  29.325  50.214  1.00  0.00     0.075 C 
ENDBRANCH   9  13
ENDBRANCH   1   7
BRANCH   4  21
HETATM   21  O   UNL     1       8.394  24.069  55.024  1.00  0.00    -0.292 OA
BRANCH  21  22
HETATM   22  C   UNL     1       8.447  22.708  55.197  1.00  0.00     0.080 A 
HETATM   23  C   UNL     1       8.658  21.902  54.081  1.00  0.00     0.079 A 
HETATM   24  C   UNL     1       8.762  20.527  54.255  1.00  0.00     0.119 A 
HETATM   25  F   UNL     1       8.957  19.741  53.187  1.00  0.00    -0.206 F 
HETATM   26  C   UNL     1       8.674  19.952  55.519  1.00  0.00     0.042 A 
HETATM   27  C   UNL     1       8.484  20.766  56.636  1.00  0.00     0.006 A 
HETATM   28  C   UNL     1       8.380  22.149  56.477  1.00  0.00     0.037 A 
ENDBRANCH  21  22
ENDBRANCH   4  21
TORSDOF 4
ENDMDL
MODEL 4
REMARK VINA RESULT:      -8.5      5.455      8.152
REMARK  4 active torsions:
REMARK  status: ('A' for Active; 'I' for Inactive)
REMARK    1  A    between atoms: C_8  and  N_9 
REMARK       I    between atoms: N_9  and  C_10 
REMARK       I    between atoms: C_10  and  N_11 
REMARK    2  A    between atoms: N_11  and  C_12 
REMARK    3  A    between atoms: C_15  and  O_16 
REMARK    4  A    between atoms: O_16  and  C_17 
ROOT
HETATM    1  C   UNL     1       6.411  28.204  55.599  1.00  0.00     0.054 A 
HETATM    2  C   UNL     1       7.290  27.787  54.603  1.00  0.00     0.149 A 
HETATM    3  N   UNL     1       7.253  26.562  54.017  1.00  0.00    -0.235 NA
HETATM    4  C   UNL     1       6.294  25.710  54.434  1.00  0.00     0.169 A 
HETATM    5  C   UNL     1       5.361  26.033  55.407  1.00  0.00     0.060 A 
HETATM    6  C   UNL     1       5.425  27.297  55.995  1.00  0.00     0.035 A 
ENDROOT
BRANCH   1   7
HETATM    7  N   UNL     1       6.444  29.460  56.243  1.00  0.00    -0.307 N 
HETATM    8  C   UNL     1       7.089  29.765  57.433  1.00  0.00     0.325 C 
HETATM    9  N   UNL     1       6.879  31.087  57.777  1.00  0.00    -0.305 N 
HETATM   10  O   UNL     1       7.750  28.966  58.080  1.00  0.00    -0.247 OA
HETATM   11  H   UNL     1       6.600  31.716  57.041  1.00  0.00     0.171 HD
HETATM   12  H   UNL     1       5.852  30.178  55.854  1.00  0.00     0.170 HD
BRANCH   9  13
HETATM   13  C   UNL     1       7.216  31.692  58.978  1.00  0.00     0.086 A 
HETATM   14  C   UNL     1       6.255  32.186  59.841  1.00  0.00     0.052 A 
HETATM   15  C   UNL     1       4.775  32.239  59.772  1.00  0.00     0.072 C 
HETATM   16  N   UNL     1       6.937  32.700  60.907  1.00  0.00    -0.280 N 
HETATM   17  H   UNL     1       6.563  33.156  61.732  1.00  0.00     0.189 HD
HETATM   18  N   UNL     1       8.261  32.553  60.822  1.00  0.00    -0.177 NA
HETATM   19  C   UNL     1       8.453  31.931  59.649  1.00  0.00     0.079 A 
HETATM   20  C   UNL     1       9.845  31.575  59.272  1.00  0.00     0.075 C 
ENDBRANCH   9  13
ENDBRANCH   1   7
BRANCH   4  21
HETATM   21  O   UNL     1       6.199  24.430  53.897  1.00  0.00    -0.292 OA
BRANCH  21  22
HETATM   22  C   UNL     1       7.157  23.528  54.288  1.00  0.00     0.080 A 
HETATM   23  C   UNL     1       7.611  22.594  53.360  1.00  0.00     0.079 A 
HETATM   24  C   UNL     1       8.616  21.709  53.733  1.00  0.00     0.119 A 
HETATM   25  F   UNL     1       9.055  20.801  52.852  1.00  0.00    -0.206 F 
HETATM   26  C   UNL     1       9.180  21.755  55.005  1.00  0.00     0.042 A 
HETATM   27  C   UNL     1       8.736  22.707  55.923  1.00  0.00     0.006 A 
HETATM   28  C   UNL     1       7.729  23.602  55.562  1.00  0.00     0.037 A 
ENDBRANCH  21  22
ENDBRANCH   4  21
TORSDOF 4
ENDMDL
MODEL 5
REMARK VINA RESULT:      -8.4      2.060      2.420
REMARK  4 active torsions:
REMARK  status: ('A' for Active; 'I' for Inactive)
REMARK    1  A    between atoms: C_8  and  N_9 
REMARK       I    between atoms: N_9  and  C_10 
REMARK       I    between atoms: C_10  and  N_11 
REMARK    2  A    between atoms: N_11  and  C_12 
REMARK    3  A    between atoms: C_15  and  O_16 
REMARK    4  A    between atoms: O_16  and  C_17 
ROOT
HETATM    1  C   UNL     1       4.861  26.574  53.344  1.00  0.00     0.054 A 
HETATM    2  C   UNL     1       4.908  25.185  53.258  1.00  0.00     0.149 A 
HETATM    3  N   UNL     1       5.973  24.432  53.641  1.00  0.00    -0.235 NA
HETATM    4  C   UNL     1       7.041  25.089  54.139  1.00  0.00     0.169 A 
HETATM    5  C   UNL     1       7.088  26.466  54.280  1.00  0.00     0.060 A 
HETATM    6  C   UNL     1       5.982  27.215  53.876  1.00  0.00     0.035 A 
ENDROOT
BRANCH   1   7
HETATM    7  N   UNL     1       3.778  27.380  52.930  1.00  0.00    -0.307 N 
HETATM    8  C   UNL     1       3.684  28.095  51.745  1.00  0.00     0.325 C 
HETATM    9  N   UNL     1       2.494  28.797  51.693  1.00  0.00    -0.305 N 
HETATM   10  O   UNL     1       4.541  28.098  50.874  1.00  0.00    -0.247 OA
HETATM   11  H   UNL     1       1.748  28.484  52.292  1.00  0.00     0.171 HD
HETATM   12  H   UNL     1       3.050  27.535  53.610  1.00  0.00     0.170 HD
BRANCH   9  13
HETATM   13  C   UNL     1       2.139  29.752  50.751  1.00  0.00     0.086 A 
HETATM   14  C   UNL     1       1.672  29.401  49.498  1.00  0.00     0.052 A 
HETATM   15  C   UNL     1       1.447  28.092  48.840  1.00  0.00     0.072 C 
HETATM   16  N   UNL     1       1.422  30.576  48.849  1.00  0.00    -0.280 N 
HETATM   17  H   UNL     1       1.079  30.712  47.904  1.00  0.00     0.189 HD
HETATM   18  N   UNL     1       1.658  31.662  49.588  1.00  0.00    -0.177 NA
HETATM   19  C   UNL     1       2.093  31.178  50.762  1.00  0.00     0.079 A 
HETATM   20  C   UNL     1       2.404  32.150  51.842  1.00  0.00     0.075 C 
ENDBRANCH   9  13
ENDBRANCH   1   7
BRANCH   4  21
HETATM   21  O   UNL     1       8.180  24.394  54.537  1.00  0.00    -0.292 OA
BRANCH  21  22
HETATM   22  C   UNL     1       8.086  23.024  54.558  1.00  0.00     0.080 A 
HETATM   23  C   UNL     1       8.338  22.321  53.383  1.00  0.00     0.079 A 
HETATM   24  C   UNL     1       8.293  20.932  53.409  1.00  0.00     0.119 A 
HETATM   25  F   UNL     1       8.526  20.244  52.282  1.00  0.00    -0.206 F 
HETATM   26  C   UNL     1       8.017  20.241  54.585  1.00  0.00     0.042 A 
HETATM   27  C   UNL     1       7.786  20.951  55.764  1.00  0.00     0.006 A 
HETATM   28  C   UNL     1       7.830  22.346  55.754  1.00  0.00     0.037 A 
ENDBRANCH  21  22
ENDBRANCH   4  21
TORSDOF 4
ENDMDL
MODEL 6
REMARK VINA RESULT:      -8.3     15.674     17.443
REMARK  4 active torsions:
REMARK  status: ('A' for Active; 'I' for Inactive)
REMARK    1  A    between atoms: C_8  and  N_9 
REMARK       I    between atoms: N_9  and  C_10 
REMARK       I    between atoms: C_10  and  N_11 
REMARK    2  A    between atoms: N_11  and  C_12 
REMARK    3  A    between atoms: C_15  and  O_16 
REMARK    4  A    between atoms: O_16  and  C_17 
ROOT
HETATM    1  C   UNL     1       6.178  34.264  66.796  1.00  0.00     0.054 A 
HETATM    2  C   UNL     1       4.923  33.964  67.318  1.00  0.00     0.149 A 
HETATM    3  N   UNL     1       4.644  33.900  68.646  1.00  0.00    -0.235 NA
HETATM    4  C   UNL     1       5.658  34.153  69.499  1.00  0.00     0.169 A 
HETATM    5  C   UNL     1       6.940  34.476  69.082  1.00  0.00     0.060 A 
HETATM    6  C   UNL     1       7.199  34.530  67.712  1.00  0.00     0.035 A 
ENDROOT
BRANCH   1   7
HETATM    7  N   UNL     1       6.501  34.311  65.423  1.00  0.00    -0.307 N 
HETATM    8  C   UNL     1       5.961  33.523  64.417  1.00  0.00     0.325 C 
HETATM    9  N   UNL     1       6.538  33.825  63.197  1.00  0.00    -0.305 N 
HETATM   10  O   UNL     1       5.095  32.679  64.596  1.00  0.00    -0.247 OA
HETATM   11  H   UNL     1       6.990  34.721  63.111  1.00  0.00     0.171 HD
HETATM   12  H   UNL     1       7.276  34.903  65.165  1.00  0.00     0.170 HD
BRANCH   9  13
HETATM   13  C   UNL     1       6.378  33.124  62.012  1.00  0.00     0.086 A 
HETATM   14  C   UNL     1       7.183  32.047  61.687  1.00  0.00     0.052 A 
HETATM   15  C   UNL     1       8.319  31.397  62.383  1.00  0.00     0.072 C 
HETATM   16  N   UNL     1       6.747  31.606  60.471  1.00  0.00    -0.280 N 
HETATM   17  H   UNL     1       7.108  30.839  59.914  1.00  0.00     0.189 HD
HETATM   18  N   UNL     1       5.704  32.288  59.991  1.00  0.00    -0.177 NA
HETATM   19  C   UNL     1       5.458  33.220  60.925  1.00  0.00     0.079 A 
HETATM   20  C   UNL     1       4.304  34.131  60.709  1.00  0.00     0.075 C 
ENDBRANCH   9  13
ENDBRANCH   1   7
BRANCH   4  21
HETATM   21  O   UNL     1       5.461  34.090  70.876  1.00  0.00    -0.292 OA
BRANCH  21  22
HETATM   22  C   UNL     1       6.331  33.300  71.585  1.00  0.00     0.080 A 
HETATM   23  C   UNL     1       6.540  31.991  71.159  1.00  0.00     0.079 A 
HETATM   24  C   UNL     1       7.456  31.200  71.842  1.00  0.00     0.119 A 
HETATM   25  F   UNL     1       7.659  29.936  71.446  1.00  0.00    -0.206 F 
HETATM   26  C   UNL     1       8.173  31.700  72.926  1.00  0.00     0.042 A 
HETATM   27  C   UNL     1       7.975  33.019  73.335  1.00  0.00     0.006 A 
HETATM   28  C   UNL     1       7.059  33.825  72.657  1.00  0.00     0.037 A 
ENDBRANCH  21  22
ENDBRANCH   4  21
TORSDOF 4
ENDMDL
MODEL 7
REMARK VINA RESULT:      -8.2     14.499     16.377
REMARK  4 active torsions:
REMARK  status: ('A' for Active; 'I' for Inactive)
REMARK    1  A    between atoms: C_8  and  N_9 
REMARK       I    between atoms: N_9  and  C_10 
REMARK       I    between atoms: C_10  and  N_11 
REMARK    2  A    between atoms: N_11  and  C_12 
REMARK    3  A    between atoms: C_15  and  O_16 
REMARK    4  A    between atoms: O_16  and  C_17 
ROOT
HETATM    1  C   UNL     1       6.069  33.901  64.905  1.00  0.00     0.054 A 
HETATM    2  C   UNL     1       4.756  33.917  65.368  1.00  0.00     0.149 A 
HETATM    3  N   UNL     1       4.410  34.012  66.678  1.00  0.00    -0.235 NA
HETATM    4  C   UNL     1       5.415  34.101  67.574  1.00  0.00     0.169 A 
HETATM    5  C   UNL     1       6.754  34.110  67.215  1.00  0.00     0.060 A 
HETATM    6  C   UNL     1       7.081  34.008  65.862  1.00  0.00     0.035 A 
ENDROOT
BRANCH   1   7
HETATM    7  N   UNL     1       6.456  33.778  63.553  1.00  0.00    -0.307 N 
HETATM    8  C   UNL     1       6.401  32.629  62.777  1.00  0.00     0.325 C 
HETATM    9  N   UNL     1       6.891  32.874  61.507  1.00  0.00    -0.305 N 
HETATM   10  O   UNL     1       5.977  31.553  63.171  1.00  0.00    -0.247 OA
HETATM   11  H   UNL     1       6.914  33.833  61.200  1.00  0.00     0.171 HD
HETATM   12  H   UNL     1       6.915  34.577  63.144  1.00  0.00     0.170 HD
BRANCH   9  13
HETATM   13  C   UNL     1       7.156  31.929  60.527  1.00  0.00     0.086 A 
HETATM   14  C   UNL     1       6.406  31.853  59.368  1.00  0.00     0.052 A 
HETATM   15  C   UNL     1       5.242  32.624  58.871  1.00  0.00     0.072 C 
HETATM   16  N   UNL     1       6.941  30.826  58.644  1.00  0.00    -0.280 N 
HETATM   17  H   UNL     1       6.644  30.471  57.741  1.00  0.00     0.189 HD
HETATM   18  N   UNL     1       7.997  30.249  59.222  1.00  0.00    -0.177 NA
HETATM   19  C   UNL     1       8.149  30.915  60.377  1.00  0.00     0.079 A 
HETATM   20  C   UNL     1       9.289  30.538  61.252  1.00  0.00     0.075 C 
ENDBRANCH   9  13
ENDBRANCH   1   7
BRANCH   4  21
HETATM   21  O   UNL     1       5.147  34.183  68.937  1.00  0.00    -0.292 OA
BRANCH  21  22
HETATM   22  C   UNL     1       6.234  34.278  69.771  1.00  0.00     0.080 A 
HETATM   23  C   UNL     1       6.663  33.132  70.437  1.00  0.00     0.079 A 
HETATM   24  C   UNL     1       7.791  33.209  71.245  1.00  0.00     0.119 A 
HETATM   25  F   UNL     1       8.210  32.116  71.898  1.00  0.00    -0.206 F 
HETATM   26  C   UNL     1       8.500  34.399  71.383  1.00  0.00     0.042 A 
HETATM   27  C   UNL     1       8.077  35.537  70.697  1.00  0.00     0.006 A 
HETATM   28  C   UNL     1       6.947  35.475  69.881  1.00  0.00     0.037 A 
ENDBRANCH  21  22
ENDBRANCH   4  21
TORSDOF 4
ENDMDL
MODEL 8
REMARK VINA RESULT:      -8.2      5.526      6.601
REMARK  4 active torsions:
REMARK  status: ('A' for Active; 'I' for Inactive)
REMARK    1  A    between atoms: C_8  and  N_9 
REMARK       I    between atoms: N_9  and  C_10 
REMARK       I    between atoms: C_10  and  N_11 
REMARK    2  A    between atoms: N_11  and  C_12 
REMARK    3  A    between atoms: C_15  and  O_16 
REMARK    4  A    between atoms: O_16  and  C_17 
ROOT
HETATM    1  C   UNL     1       5.955  26.821  57.026  1.00  0.00     0.054 A 
HETATM    2  C   UNL     1       5.731  25.673  56.270  1.00  0.00     0.149 A 
HETATM    3  N   UNL     1       6.683  24.745  55.992  1.00  0.00    -0.235 NA
HETATM    4  C   UNL     1       7.917  24.962  56.493  1.00  0.00     0.169 A 
HETATM    5  C   UNL     1       8.239  26.064  57.269  1.00  0.00     0.060 A 
HETATM    6  C   UNL     1       7.242  27.004  57.536  1.00  0.00     0.035 A 
ENDROOT
BRANCH   1   7
HETATM    7  N   UNL     1       4.991  27.813  57.307  1.00  0.00    -0.307 N 
HETATM    8  C   UNL     1       4.930  29.087  56.762  1.00  0.00     0.325 C 
HETATM    9  N   UNL     1       3.868  29.795  57.294  1.00  0.00    -0.305 N 
HETATM   10  O   UNL     1       5.713  29.515  55.927  1.00  0.00    -0.247 OA
HETATM   11  H   UNL     1       3.125  29.263  57.716  1.00  0.00     0.171 HD
HETATM   12  H   UNL     1       4.347  27.611  58.056  1.00  0.00     0.170 HD
BRANCH   9  13
HETATM   13  C   UNL     1       3.606  31.146  57.121  1.00  0.00     0.086 A 
HETATM   14  C   UNL     1       3.856  32.071  58.119  1.00  0.00     0.052 A 
HETATM   15  C   UNL     1       4.388  31.942  59.497  1.00  0.00     0.072 C 
HETATM   16  N   UNL     1       3.488  33.282  57.608  1.00  0.00    -0.280 N 
HETATM   17  H   UNL     1       3.519  34.190  58.058  1.00  0.00     0.189 HD
HETATM   18  N   UNL     1       3.049  33.226  56.348  1.00  0.00    -0.177 NA
HETATM   19  C   UNL     1       3.119  31.925  56.028  1.00  0.00     0.079 A 
HETATM   20  C   UNL     1       2.737  31.527  54.649  1.00  0.00     0.075 C 
ENDBRANCH   9  13
ENDBRANCH   1   7
BRANCH   4  21
HETATM   21  O   UNL     1       8.954  24.069  56.240  1.00  0.00    -0.292 OA
BRANCH  21  22
HETATM   22  C   UNL     1       8.597  22.839  55.744  1.00  0.00     0.080 A 
HETATM   23  C   UNL     1       8.560  22.664  54.362  1.00  0.00     0.079 A 
HETATM   24  C   UNL     1       8.247  21.409  53.853  1.00  0.00     0.119 A 
HETATM   25  F   UNL     1       8.199  21.231  52.526  1.00  0.00    -0.206 F 
HETATM   26  C   UNL     1       7.988  20.333  54.696  1.00  0.00     0.042 A 
HETATM   27  C   UNL     1       8.048  20.509  56.079  1.00  0.00     0.006 A 
HETATM   28  C   UNL     1       8.363  21.763  56.605  1.00  0.00     0.037 A 
ENDBRANCH  21  22
ENDBRANCH   4  21
TORSDOF 4
ENDMDL
MODEL 9
REMARK VINA RESULT:      -8.2      1.568      2.482
REMARK  4 active torsions:
REMARK  status: ('A' for Active; 'I' for Inactive)
REMARK    1  A    between atoms: C_8  and  N_9 
REMARK       I    between atoms: N_9  and  C_10 
REMARK       I    between atoms: C_10  and  N_11 
REMARK    2  A    between atoms: N_11  and  C_12 
REMARK    3  A    between atoms: C_15  and  O_16 
REMARK    4  A    between atoms: O_16  and  C_17 
ROOT
HETATM    1  C   UNL     1       5.369  26.538  50.949  1.00  0.00     0.054 A 
HETATM    2  C   UNL     1       6.189  27.098  51.924  1.00  0.00     0.149 A 
HETATM    3  N   UNL     1       6.407  26.547  53.146  1.00  0.00    -0.235 NA
HETATM    4  C   UNL     1       5.786  25.379  53.413  1.00  0.00     0.169 A 
HETATM    5  C   UNL     1       4.962  24.733  52.506  1.00  0.00     0.060 A 
HETATM    6  C   UNL     1       4.753  25.323  51.259  1.00  0.00     0.035 A 
ENDROOT
BRANCH   1   7
HETATM    7  N   UNL     1       5.105  27.102  49.682  1.00  0.00    -0.307 N 
HETATM    8  C   UNL     1       4.036  27.921  49.346  1.00  0.00     0.325 C 
HETATM    9  N   UNL     1       4.084  28.259  48.006  1.00  0.00    -0.305 N 
HETATM   10  O   UNL     1       3.177  28.287  50.133  1.00  0.00    -0.247 OA
HETATM   11  H   UNL     1       4.973  28.173  47.540  1.00  0.00     0.171 HD
HETATM   12  H   UNL     1       5.693  26.793  48.923  1.00  0.00     0.170 HD
BRANCH   9  13
HETATM   13  C   UNL     1       3.095  28.909  47.282  1.00  0.00     0.086 A 
HETATM   14  C   UNL     1       3.339  30.097  46.617  1.00  0.00     0.052 A 
HETATM   15  C   UNL     1       4.547  30.946  46.490  1.00  0.00     0.072 C 
HETATM   16  N   UNL     1       2.160  30.441  46.021  1.00  0.00    -0.280 N 
HETATM   17  H   UNL     1       1.957  31.258  45.456  1.00  0.00     0.189 HD
HETATM   18  N   UNL     1       1.178  29.559  46.217  1.00  0.00    -0.177 NA
HETATM   19  C   UNL     1       1.732  28.608  46.984  1.00  0.00     0.079 A 
HETATM   20  C   UNL     1       0.896  27.436  47.350  1.00  0.00     0.075 C 
ENDBRANCH   9  13
ENDBRANCH   1   7
BRANCH   4  21
HETATM   21  O   UNL     1       5.942  24.758  54.649  1.00  0.00    -0.292 OA
BRANCH  21  22
HETATM   22  C   UNL     1       7.036  23.942  54.791  1.00  0.00     0.080 A 
HETATM   23  C   UNL     1       7.301  23.004  53.796  1.00  0.00     0.079 A 
HETATM   24  C   UNL     1       8.434  22.207  53.908  1.00  0.00     0.119 A 
HETATM   25  F   UNL     1       8.695  21.295  52.961  1.00  0.00    -0.206 F 
HETATM   26  C   UNL     1       9.308  22.344  54.983  1.00  0.00     0.042 A 
HETATM   27  C   UNL     1       9.049  23.300  55.965  1.00  0.00     0.006 A 
HETATM   28  C   UNL     1       7.916  24.108  55.865  1.00  0.00     0.037 A 
ENDBRANCH  21  22
ENDBRANCH   4  21
TORSDOF 4
ENDMDL
MODEL 10
REMARK VINA RESULT:      -8.1      5.473      6.680
REMARK  4 active torsions:
REMARK  status: ('A' for Active; 'I' for Inactive)
REMARK    1  A    between atoms: C_8  and  N_9 
REMARK       I    between atoms: N_9  and  C_10 
REMARK       I    between atoms: C_10  and  N_11 
REMARK    2  A    between atoms: N_11  and  C_12 
REMARK    3  A    between atoms: C_15  and  O_16 
REMARK    4  A    between atoms: O_16  and  C_17 
ROOT
HETATM    1  C   UNL     1       6.220  26.493  55.958  1.00  0.00     0.054 A 
HETATM    2  C   UNL     1       7.508  25.971  55.869  1.00  0.00     0.149 A 
HETATM    3  N   UNL     1       7.870  24.975  55.019  1.00  0.00    -0.235 NA
HETATM    4  C   UNL     1       6.910  24.475  54.213  1.00  0.00     0.169 A 
HETATM    5  C   UNL     1       5.603  24.935  54.213  1.00  0.00     0.060 A 
HETATM    6  C   UNL     1       5.257  25.957  55.099  1.00  0.00     0.035 A 
ENDROOT
BRANCH   1   7
HETATM    7  N   UNL     1       5.811  27.509  56.849  1.00  0.00    -0.307 N 
HETATM    8  C   UNL     1       5.766  28.871  56.588  1.00  0.00     0.325 C 
HETATM    9  N   UNL     1       5.344  29.567  57.706  1.00  0.00    -0.305 N 
HETATM   10  O   UNL     1       6.061  29.375  55.515  1.00  0.00    -0.247 OA
HETATM   11  H   UNL     1       4.838  29.050  58.407  1.00  0.00     0.171 HD
HETATM   12  H   UNL     1       5.636  27.225  57.801  1.00  0.00     0.170 HD
BRANCH   9  13
HETATM   13  C   UNL     1       5.350  30.944  57.872  1.00  0.00     0.086 A 
HETATM   14  C   UNL     1       4.368  31.749  57.323  1.00  0.00     0.052 A 
HETATM   15  C   UNL     1       3.178  31.455  56.490  1.00  0.00     0.072 C 
HETATM   16  N   UNL     1       4.686  33.026  57.685  1.00  0.00    -0.280 N 
HETATM   17  H   UNL     1       4.197  33.885  57.454  1.00  0.00     0.189 HD
HETATM   18  N   UNL     1       5.776  33.116  58.450  1.00  0.00    -0.177 NA
HETATM   19  C   UNL     1       6.195  31.848  58.582  1.00  0.00     0.079 A 
HETATM   20  C   UNL     1       7.387  31.596  59.432  1.00  0.00     0.075 C 
ENDBRANCH   9  13
ENDBRANCH   1   7
BRANCH   4  21
HETATM   21  O   UNL     1       7.195  23.441  53.327  1.00  0.00    -0.292 OA
BRANCH  21  22
HETATM   22  C   UNL     1       7.722  22.295  53.870  1.00  0.00     0.080 A 
HETATM   23  C   UNL     1       7.608  22.096  55.244  1.00  0.00     0.079 A 
HETATM   24  C   UNL     1       8.096  20.917  55.794  1.00  0.00     0.119 A 
HETATM   25  F   UNL     1       8.000  20.718  57.116  1.00  0.00    -0.206 F 
HETATM   26  C   UNL     1       8.676  19.935  54.996  1.00  0.00     0.042 A 
HETATM   27  C   UNL     1       8.768  20.131  53.618  1.00  0.00     0.006 A 
HETATM   28  C   UNL     1       8.281  21.309  53.051  1.00  0.00     0.037 A 
ENDBRANCH  21  22
ENDBRANCH   4  21
TORSDOF 4
ENDMDL
