MODEL 1
REMARK VINA RESULT:      -9.0      0.000      0.000
REMARK  4 active torsions:
REMARK  status: ('A' for Active; 'I' for Inactive)
REMARK    1  A    between atoms: C_4  and  N_5 
REMARK    2  A    between atoms: C_9  and  N_10 
REMARK    3  A    between atoms: C_13  and  C_14 
REMARK    4  A    between atoms: C_22  and  C_23 
ROOT
HETATM    1  N   UNL     1       7.490  29.840  57.881  1.00  0.00    -0.258 N 
HETATM    2  C   UNL     1       8.898  29.843  57.647  1.00  0.00     0.333 A 
HETATM    3  O   UNL     1       9.744  30.693  57.844  1.00  0.00    -0.246 OA
HETATM    4  N   UNL     1       9.189  28.575  57.131  1.00  0.00    -0.292 N 
HETATM    5  C   UNL     1       8.045  27.829  57.058  1.00  0.00     0.146 A 
HETATM    6  C   UNL     1       7.015  28.589  57.484  1.00  0.00     0.126 A 
HETATM    7  H   UNL     1      10.140  28.302  56.925  1.00  0.00     0.172 HD
ENDROOT
BRANCH   5   8
HETATM    8  N   UNL     1       8.031  26.535  56.528  1.00  0.00    -0.317 N 
HETATM    9  C   UNL     1       8.400  25.491  57.311  1.00  0.00     0.099 A 
HETATM   10  C   UNL     1       8.426  24.189  56.815  1.00  0.00     0.030 A 
HETATM   11  C   UNL     1       8.051  23.928  55.496  1.00  0.00    -0.023 A 
HETATM   12  C   UNL     1       7.629  25.012  54.724  1.00  0.00     0.030 A 
HETATM   13  C   UNL     1       7.619  26.299  55.257  1.00  0.00     0.099 A 
BRANCH  11  14
HETATM   14  C   UNL     1       8.118  22.569  54.934  1.00  0.00    -0.023 A 
HETATM   15  C   UNL     1       8.429  21.462  55.733  1.00  0.00     0.031 A 
HETATM   16  C   UNL     1       8.492  20.204  55.150  1.00  0.00     0.117 A 
HETATM   17  N   UNL     1       8.270  19.978  53.842  1.00  0.00    -0.273 NA
HETATM   18  C   UNL     1       7.971  21.046  53.079  1.00  0.00     0.117 A 
HETATM   19  C   UNL     1       7.885  22.339  53.571  1.00  0.00     0.031 A 
ENDBRANCH  11  14
ENDBRANCH   5   8
BRANCH   6  20
HETATM   20  C   UNL     1       5.589  28.255  57.314  1.00  0.00     0.292 C 
HETATM   21  O   UNL     1       4.988  28.473  56.269  1.00  0.00    -0.300 OA
ENDBRANCH   6  20
BRANCH   1  22
HETATM   22  C   UNL     1       6.796  30.938  58.459  1.00  0.00     0.044 A 
HETATM   23  C   UNL     1       5.840  31.650  57.720  1.00  0.00     0.030 A 
HETATM   24  C   UNL     1       5.135  32.715  58.289  1.00  0.00     0.002 A 
HETATM   25  C   UNL     1       5.385  33.098  59.603  1.00  0.00     0.000 A 
HETATM   26  C   UNL     1       6.349  32.422  60.343  1.00  0.00     0.002 A 
HETATM   27  C   UNL     1       7.053  31.356  59.774  1.00  0.00     0.030 A 
ENDBRANCH   1  22
TORSDOF 4
ENDMDL
MODEL 2
REMARK VINA RESULT:      -8.7      2.203      9.019
REMARK  4 active torsions:
REMARK  status: ('A' for Active; 'I' for Inactive)
REMARK    1  A    between atoms: C_4  and  N_5 
REMARK    2  A    between atoms: C_9  and  N_10 
REMARK    3  A    between atoms: C_13  and  C_14 
REMARK    4  A    between atoms: C_22  and  C_23 
ROOT
HETATM    1  N   UNL     1       7.370  24.023  54.753  1.00  0.00    -0.258 N 
HETATM    2  C   UNL     1       6.421  24.754  53.979  1.00  0.00     0.333 A 
HETATM    3  O   UNL     1       5.768  24.443  53.003  1.00  0.00    -0.246 OA
HETATM    4  N   UNL     1       6.323  26.005  54.601  1.00  0.00    -0.292 N 
HETATM    5  C   UNL     1       7.147  26.048  55.692  1.00  0.00     0.146 A 
HETATM    6  C   UNL     1       7.798  24.869  55.778  1.00  0.00     0.126 A 
HETATM    7  H   UNL     1       5.671  26.702  54.270  1.00  0.00     0.172 HD
ENDROOT
BRANCH   5   8
HETATM    8  N   UNL     1       7.292  27.198  56.474  1.00  0.00    -0.317 N 
HETATM    9  C   UNL     1       8.534  27.679  56.725  1.00  0.00     0.099 A 
HETATM   10  C   UNL     1       8.725  28.807  57.521  1.00  0.00     0.030 A 
HETATM   11  C   UNL     1       7.630  29.479  58.068  1.00  0.00    -0.023 A 
HETATM   12  C   UNL     1       6.360  28.993  57.756  1.00  0.00     0.030 A 
HETATM   13  C   UNL     1       6.212  27.861  56.957  1.00  0.00     0.099 A 
BRANCH  11  14
HETATM   14  C   UNL     1       7.808  30.642  58.953  1.00  0.00    -0.023 A 
HETATM   15  C   UNL     1       9.039  30.914  59.564  1.00  0.00     0.031 A 
HETATM   16  C   UNL     1       9.149  32.016  60.400  1.00  0.00     0.117 A 
HETATM   17  N   UNL     1       8.129  32.853  60.667  1.00  0.00    -0.273 NA
HETATM   18  C   UNL     1       6.949  32.587  60.075  1.00  0.00     0.117 A 
HETATM   19  C   UNL     1       6.743  31.512  59.225  1.00  0.00     0.031 A 
ENDBRANCH  11  14
ENDBRANCH   5   8
BRANCH   6  20
HETATM   20  C   UNL     1       8.961  24.605  56.645  1.00  0.00     0.292 C 
HETATM   21  O   UNL     1       8.838  24.215  57.800  1.00  0.00    -0.300 OA
ENDBRANCH   6  20
BRANCH   1  22
HETATM   22  C   UNL     1       7.718  22.671  54.481  1.00  0.00     0.044 A 
HETATM   23  C   UNL     1       8.089  22.272  53.189  1.00  0.00     0.030 A 
HETATM   24  C   UNL     1       8.456  20.950  52.920  1.00  0.00     0.002 A 
HETATM   25  C   UNL     1       8.443  19.999  53.935  1.00  0.00     0.000 A 
HETATM   26  C   UNL     1       8.050  20.368  55.217  1.00  0.00     0.002 A 
HETATM   27  C   UNL     1       7.686  21.692  55.487  1.00  0.00     0.030 A 
ENDBRANCH   1  22
TORSDOF 4
ENDMDL
MODEL 3
REMARK VINA RESULT:      -8.6      5.100      6.530
REMARK  4 active torsions:
REMARK  status: ('A' for Active; 'I' for Inactive)
REMARK    1  A    between atoms: C_4  and  N_5 
REMARK    2  A    between atoms: C_9  and  N_10 
REMARK    3  A    between atoms: C_13  and  C_14 
REMARK    4  A    between atoms: C_22  and  C_23 
ROOT
HETATM    1  N   UNL     1       5.078  28.436  50.434  1.00  0.00    -0.258 N 
HETATM    2  C   UNL     1       4.712  27.402  49.522  1.00  0.00     0.333 A 
HETATM    3  O   UNL     1       4.148  27.440  48.446  1.00  0.00    -0.246 OA
HETATM    4  N   UNL     1       5.175  26.216  50.103  1.00  0.00    -0.292 N 
HETATM    5  C   UNL     1       5.797  26.491  51.289  1.00  0.00     0.146 A 
HETATM    6  C   UNL     1       5.723  27.821  51.508  1.00  0.00     0.126 A 
HETATM    7  H   UNL     1       5.083  25.330  49.626  1.00  0.00     0.172 HD
ENDROOT
BRANCH   5   8
HETATM    8  N   UNL     1       6.313  25.486  52.114  1.00  0.00    -0.317 N 
HETATM    9  C   UNL     1       7.505  24.918  51.806  1.00  0.00     0.099 A 
HETATM   10  C   UNL     1       8.041  23.895  52.585  1.00  0.00     0.030 A 
HETATM   11  C   UNL     1       7.364  23.442  53.719  1.00  0.00    -0.023 A 
HETATM   12  C   UNL     1       6.162  24.074  54.043  1.00  0.00     0.030 A 
HETATM   13  C   UNL     1       5.659  25.092  53.236  1.00  0.00     0.099 A 
BRANCH  11  14
HETATM   14  C   UNL     1       7.884  22.328  54.529  1.00  0.00    -0.023 A 
HETATM   15  C   UNL     1       8.260  21.112  53.945  1.00  0.00     0.031 A 
HETATM   16  C   UNL     1       8.733  20.090  54.756  1.00  0.00     0.117 A 
HETATM   17  N   UNL     1       8.854  20.196  56.093  1.00  0.00    -0.273 NA
HETATM   18  C   UNL     1       8.492  21.368  56.649  1.00  0.00     0.117 A 
HETATM   19  C   UNL     1       8.010  22.445  55.920  1.00  0.00     0.031 A 
ENDBRANCH  11  14
ENDBRANCH   5   8
BRANCH   6  20
HETATM   20  C   UNL     1       6.033  28.487  52.787  1.00  0.00     0.292 C 
HETATM   21  O   UNL     1       7.143  28.428  53.301  1.00  0.00    -0.300 OA
ENDBRANCH   6  20
BRANCH   1  22
HETATM   22  C   UNL     1       4.832  29.814  50.186  1.00  0.00     0.044 A 
HETATM   23  C   UNL     1       3.546  30.352  50.341  1.00  0.00     0.030 A 
HETATM   24  C   UNL     1       3.302  31.711  50.122  1.00  0.00     0.002 A 
HETATM   25  C   UNL     1       4.336  32.554  49.730  1.00  0.00     0.000 A 
HETATM   26  C   UNL     1       5.612  32.035  49.544  1.00  0.00     0.002 A 
HETATM   27  C   UNL     1       5.857  30.676  49.764  1.00  0.00     0.030 A 
ENDBRANCH   1  22
TORSDOF 4
ENDMDL
MODEL 4
REMARK VINA RESULT:      -8.5      5.865      7.415
REMARK  4 active torsions:
REMARK  status: ('A' for Active; 'I' for Inactive)
REMARK    1  A    between atoms: C_4  and  N_5 
REMARK    2  A    between atoms: C_9  and  N_10 
REMARK    3  A    between atoms: C_13  and  C_14 
REMARK    4  A    between atoms: C_22  and  C_23 
ROOT
HETATM    1  N   UNL     1       4.486  28.588  50.068  1.00  0.00    -0.258 N 
HETATM    2  C   UNL     1       5.046  29.376  51.118  1.00  0.00     0.333 A 
HETATM    3  O   UNL     1       5.042  30.575  51.313  1.00  0.00    -0.246 OA
HETATM    4  N   UNL     1       5.634  28.458  51.995  1.00  0.00    -0.292 N 
HETATM    5  C   UNL     1       5.446  27.185  51.531  1.00  0.00     0.146 A 
HETATM    6  C   UNL     1       4.777  27.254  50.361  1.00  0.00     0.126 A 
HETATM    7  H   UNL     1       6.063  28.762  52.858  1.00  0.00     0.172 HD
ENDROOT
BRANCH   5   8
HETATM    8  N   UNL     1       5.976  26.066  52.182  1.00  0.00    -0.317 N 
HETATM    9  C   UNL     1       7.117  25.503  51.716  1.00  0.00     0.099 A 
HETATM   10  C   UNL     1       7.664  24.372  52.318  1.00  0.00     0.030 A 
HETATM   11  C   UNL     1       7.052  23.801  53.435  1.00  0.00    -0.023 A 
HETATM   12  C   UNL     1       5.905  24.427  53.926  1.00  0.00     0.030 A 
HETATM   13  C   UNL     1       5.389  25.555  53.294  1.00  0.00     0.099 A 
BRANCH  11  14
HETATM   14  C   UNL     1       7.582  22.577  54.058  1.00  0.00    -0.023 A 
HETATM   15  C   UNL     1       8.065  21.513  53.285  1.00  0.00     0.031 A 
HETATM   16  C   UNL     1       8.542  20.377  53.923  1.00  0.00     0.117 A 
HETATM   17  N   UNL     1       8.568  20.229  55.261  1.00  0.00    -0.273 NA
HETATM   18  C   UNL     1       8.103  21.255  55.999  1.00  0.00     0.117 A 
HETATM   19  C   UNL     1       7.608  22.430  55.452  1.00  0.00     0.031 A 
ENDBRANCH  11  14
ENDBRANCH   5   8
BRANCH   6  20
HETATM   20  C   UNL     1       4.611  26.138  49.413  1.00  0.00     0.292 C 
HETATM   21  O   UNL     1       3.530  25.874  48.899  1.00  0.00    -0.300 OA
ENDBRANCH   6  20
BRANCH   1  22
HETATM   22  C   UNL     1       3.745  29.144  48.990  1.00  0.00     0.044 A 
HETATM   23  C   UNL     1       2.353  29.296  49.080  1.00  0.00     0.030 A 
HETATM   24  C   UNL     1       1.620  29.865  48.034  1.00  0.00     0.002 A 
HETATM   25  C   UNL     1       2.264  30.277  46.871  1.00  0.00     0.000 A 
HETATM   26  C   UNL     1       3.639  30.108  46.751  1.00  0.00     0.002 A 
HETATM   27  C   UNL     1       4.372  29.541  47.799  1.00  0.00     0.030 A 
ENDBRANCH   1  22
TORSDOF 4
ENDMDL
MODEL 5
REMARK VINA RESULT:      -8.4      2.280      9.047
REMARK  4 active torsions:
REMARK  status: ('A' for Active; 'I' for Inactive)
REMARK    1  A    between atoms: C_4  and  N_5 
REMARK    2  A    between atoms: C_9  and  N_10 
REMARK    3  A    between atoms: C_13  and  C_14 
REMARK    4  A    between atoms: C_22  and  C_23 
ROOT
HETATM    1  N   UNL     1       7.821  24.496  54.227  1.00  0.00    -0.258 N 
HETATM    2  C   UNL     1       7.929  25.389  53.120  1.00  0.00     0.333 A 
HETATM    3  O   UNL     1       8.290  25.209  51.973  1.00  0.00    -0.246 OA
HETATM    4  N   UNL     1       7.478  26.625  53.597  1.00  0.00    -0.292 N 
HETATM    5  C   UNL     1       7.105  26.510  54.908  1.00  0.00     0.146 A 
HETATM    6  C   UNL     1       7.329  25.239  55.302  1.00  0.00     0.126 A 
HETATM    7  H   UNL     1       7.409  27.427  52.985  1.00  0.00     0.172 HD
ENDROOT
BRANCH   5   8
HETATM    8  N   UNL     1       6.664  27.605  55.658  1.00  0.00    -0.317 N 
HETATM    9  C   UNL     1       7.557  28.546  56.052  1.00  0.00     0.099 A 
HETATM   10  C   UNL     1       7.164  29.637  56.822  1.00  0.00     0.030 A 
HETATM   11  C   UNL     1       5.828  29.796  57.194  1.00  0.00    -0.023 A 
HETATM   12  C   UNL     1       4.919  28.840  56.737  1.00  0.00     0.030 A 
HETATM   13  C   UNL     1       5.352  27.762  55.969  1.00  0.00     0.099 A 
BRANCH  11  14
HETATM   14  C   UNL     1       5.397  30.913  58.051  1.00  0.00    -0.023 A 
HETATM   15  C   UNL     1       4.046  31.265  58.169  1.00  0.00     0.031 A 
HETATM   16  C   UNL     1       3.696  32.335  58.980  1.00  0.00     0.117 A 
HETATM   17  N   UNL     1       4.588  33.069  59.671  1.00  0.00    -0.273 NA
HETATM   18  C   UNL     1       5.884  32.725  59.554  1.00  0.00     0.117 A 
HETATM   19  C   UNL     1       6.330  31.673  58.770  1.00  0.00     0.031 A 
ENDBRANCH  11  14
ENDBRANCH   5   8
BRANCH   6  20
HETATM   20  C   UNL     1       7.313  24.771  56.700  1.00  0.00     0.292 C 
HETATM   21  O   UNL     1       8.214  25.035  57.487  1.00  0.00    -0.300 OA
ENDBRANCH   6  20
BRANCH   1  22
HETATM   22  C   UNL     1       8.133  23.112  54.143  1.00  0.00     0.044 A 
HETATM   23  C   UNL     1       9.021  22.521  55.054  1.00  0.00     0.030 A 
HETATM   24  C   UNL     1       9.314  21.155  54.993  1.00  0.00     0.002 A 
HETATM   25  C   UNL     1       8.737  20.358  54.009  1.00  0.00     0.000 A 
HETATM   26  C   UNL     1       7.877  20.931  53.080  1.00  0.00     0.002 A 
HETATM   27  C   UNL     1       7.581  22.297  53.142  1.00  0.00     0.030 A 
ENDBRANCH   1  22
TORSDOF 4
ENDMDL
MODEL 6
REMARK VINA RESULT:      -8.2      3.525      9.110
REMARK  4 active torsions:
REMARK  status: ('A' for Active; 'I' for Inactive)
REMARK    1  A    between atoms: C_4  and  N_5 
REMARK    2  A    between atoms: C_9  and  N_10 
REMARK    3  A    between atoms: C_13  and  C_14 
REMARK    4  A    between atoms: C_22  and  C_23 
ROOT
HETATM    1  N   UNL     1       7.261  24.284  55.038  1.00  0.00    -0.258 N 
HETATM    2  C   UNL     1       7.910  24.979  56.101  1.00  0.00     0.333 A 
HETATM    3  O   UNL     1       8.785  24.635  56.871  1.00  0.00    -0.246 OA
HETATM    4  N   UNL     1       7.347  26.260  56.102  1.00  0.00    -0.292 N 
HETATM    5  C   UNL     1       6.419  26.362  55.103  1.00  0.00     0.146 A 
HETATM    6  C   UNL     1       6.344  25.171  54.472  1.00  0.00     0.126 A 
HETATM    7  H   UNL     1       7.674  26.973  56.739  1.00  0.00     0.172 HD
ENDROOT
BRANCH   5   8
HETATM    8  N   UNL     1       5.659  27.518  54.903  1.00  0.00    -0.317 N 
HETATM    9  C   UNL     1       4.869  27.977  55.906  1.00  0.00     0.099 A 
HETATM   10  C   UNL     1       4.076  29.110  55.740  1.00  0.00     0.030 A 
HETATM   11  C   UNL     1       4.090  29.812  54.533  1.00  0.00    -0.023 A 
HETATM   12  C   UNL     1       4.947  29.349  53.533  1.00  0.00     0.030 A 
HETATM   13  C   UNL     1       5.723  28.211  53.738  1.00  0.00     0.099 A 
BRANCH  11  14
HETATM   14  C   UNL     1       3.222  30.982  54.317  1.00  0.00    -0.023 A 
HETATM   15  C   UNL     1       3.109  31.584  53.057  1.00  0.00     0.031 A 
HETATM   16  C   UNL     1       2.287  32.692  52.910  1.00  0.00     0.117 A 
HETATM   17  N   UNL     1       1.581  33.235  53.920  1.00  0.00    -0.273 NA
HETATM   18  C   UNL     1       1.694  32.651  55.128  1.00  0.00     0.117 A 
HETATM   19  C   UNL     1       2.488  31.541  55.371  1.00  0.00     0.031 A 
ENDBRANCH  11  14
ENDBRANCH   5   8
BRANCH   6  20
HETATM   20  C   UNL     1       5.287  24.782  53.520  1.00  0.00     0.292 C 
HETATM   21  O   UNL     1       5.427  24.894  52.308  1.00  0.00    -0.300 OA
ENDBRANCH   6  20
BRANCH   1  22
HETATM   22  C   UNL     1       7.589  22.951  54.666  1.00  0.00     0.044 A 
HETATM   23  C   UNL     1       7.531  21.910  55.604  1.00  0.00     0.030 A 
HETATM   24  C   UNL     1       7.828  20.593  55.240  1.00  0.00     0.002 A 
HETATM   25  C   UNL     1       8.205  20.296  53.934  1.00  0.00     0.000 A 
HETATM   26  C   UNL     1       8.295  21.318  52.996  1.00  0.00     0.002 A 
HETATM   27  C   UNL     1       7.996  22.635  53.360  1.00  0.00     0.030 A 
ENDBRANCH   1  22
TORSDOF 4
ENDMDL
MODEL 7
REMARK VINA RESULT:      -8.1      2.786      3.677
REMARK  4 active torsions:
REMARK  status: ('A' for Active; 'I' for Inactive)
REMARK    1  A    between atoms: C_4  and  N_5 
REMARK    2  A    between atoms: C_9  and  N_10 
REMARK    3  A    between atoms: C_13  and  C_14 
REMARK    4  A    between atoms: C_22  and  C_23 
ROOT
HETATM    1  N   UNL     1       4.692  29.697  54.324  1.00  0.00    -0.258 N 
HETATM    2  C   UNL     1       4.852  29.627  52.908  1.00  0.00     0.333 A 
HETATM    3  O   UNL     1       4.594  30.426  52.029  1.00  0.00    -0.246 OA
HETATM    4  N   UNL     1       5.441  28.381  52.664  1.00  0.00    -0.292 N 
HETATM    5  C   UNL     1       5.644  27.723  53.846  1.00  0.00     0.146 A 
HETATM    6  C   UNL     1       5.175  28.497  54.848  1.00  0.00     0.126 A 
HETATM    7  H   UNL     1       5.706  28.104  51.730  1.00  0.00     0.172 HD
ENDROOT
BRANCH   5   8
HETATM    8  N   UNL     1       6.171  26.429  53.900  1.00  0.00    -0.317 N 
HETATM    9  C   UNL     1       5.622  25.455  53.134  1.00  0.00     0.099 A 
HETATM   10  C   UNL     1       6.099  24.146  53.177  1.00  0.00     0.030 A 
HETATM   11  C   UNL     1       7.173  23.813  54.005  1.00  0.00    -0.023 A 
HETATM   12  C   UNL     1       7.753  24.843  54.748  1.00  0.00     0.030 A 
HETATM   13  C   UNL     1       7.245  26.138  54.677  1.00  0.00     0.099 A 
BRANCH  11  14
HETATM   14  C   UNL     1       7.663  22.428  54.106  1.00  0.00    -0.023 A 
HETATM   15  C   UNL     1       7.818  21.796  55.347  1.00  0.00     0.031 A 
HETATM   16  C   UNL     1       8.295  20.494  55.386  1.00  0.00     0.117 A 
HETATM   17  N   UNL     1       8.626  19.788  54.289  1.00  0.00    -0.273 NA
HETATM   18  C   UNL     1       8.474  20.401  53.099  1.00  0.00     0.117 A 
HETATM   19  C   UNL     1       8.004  21.698  52.960  1.00  0.00     0.031 A 
ENDBRANCH  11  14
ENDBRANCH   5   8
BRANCH   6  20
HETATM   20  C   UNL     1       4.962  28.047  56.236  1.00  0.00     0.292 C 
HETATM   21  O   UNL     1       5.670  28.427  57.161  1.00  0.00    -0.300 OA
ENDBRANCH   6  20
BRANCH   1  22
HETATM   22  C   UNL     1       4.170  30.839  54.992  1.00  0.00     0.044 A 
HETATM   23  C   UNL     1       2.820  31.195  54.856  1.00  0.00     0.030 A 
HETATM   24  C   UNL     1       2.295  32.302  55.530  1.00  0.00     0.002 A 
HETATM   25  C   UNL     1       3.114  33.083  56.339  1.00  0.00     0.000 A 
HETATM   26  C   UNL     1       4.461  32.763  56.464  1.00  0.00     0.002 A 
HETATM   27  C   UNL     1       4.986  31.654  55.792  1.00  0.00     0.030 A 
ENDBRANCH   1  22
TORSDOF 4
ENDMDL
MODEL 8
REMARK VINA RESULT:      -8.1      2.769      8.938
REMARK  4 active torsions:
REMARK  status: ('A' for Active; 'I' for Inactive)
REMARK    1  A    between atoms: C_4  and  N_5 
REMARK    2  A    between atoms: C_9  and  N_10 
REMARK    3  A    between atoms: C_13  and  C_14 
REMARK    4  A    between atoms: C_22  and  C_23 
ROOT
HETATM    1  N   UNL     1       7.199  27.868  55.268  1.00  0.00    -0.258 N 
HETATM    2  C   UNL     1       8.333  28.648  54.894  1.00  0.00     0.333 A 
HETATM    3  O   UNL     1       9.059  28.599  53.920  1.00  0.00    -0.246 OA
HETATM    4  N   UNL     1       8.478  29.599  55.911  1.00  0.00    -0.292 N 
HETATM    5  C   UNL     1       7.497  29.430  56.849  1.00  0.00     0.146 A 
HETATM    6  C   UNL     1       6.737  28.376  56.483  1.00  0.00     0.126 A 
HETATM    7  H   UNL     1       9.191  30.313  55.860  1.00  0.00     0.172 HD
ENDROOT
BRANCH   5   8
HETATM    8  N   UNL     1       7.430  30.209  58.009  1.00  0.00    -0.317 N 
HETATM    9  C   UNL     1       8.340  30.016  58.994  1.00  0.00     0.099 A 
HETATM   10  C   UNL     1       8.293  30.751  60.177  1.00  0.00     0.030 A 
HETATM   11  C   UNL     1       7.308  31.723  60.365  1.00  0.00    -0.023 A 
HETATM   12  C   UNL     1       6.411  31.937  59.317  1.00  0.00     0.030 A 
HETATM   13  C   UNL     1       6.492  31.179  58.151  1.00  0.00     0.099 A 
BRANCH  11  14
HETATM   14  C   UNL     1       7.206  32.477  61.625  1.00  0.00    -0.023 A 
HETATM   15  C   UNL     1       7.992  32.151  62.739  1.00  0.00     0.031 A 
HETATM   16  C   UNL     1       7.847  32.887  63.906  1.00  0.00     0.117 A 
HETATM   17  N   UNL     1       6.983  33.911  64.039  1.00  0.00    -0.273 NA
HETATM   18  C   UNL     1       6.231  34.220  62.965  1.00  0.00     0.117 A 
HETATM   19  C   UNL     1       6.306  33.544  61.757  1.00  0.00     0.031 A 
ENDBRANCH  11  14
ENDBRANCH   5   8
BRANCH   6  20
HETATM   20  C   UNL     1       5.749  27.704  57.346  1.00  0.00     0.292 C 
HETATM   21  O   UNL     1       4.621  27.429  56.955  1.00  0.00    -0.300 OA
ENDBRANCH   6  20
BRANCH   1  22
HETATM   22  C   UNL     1       6.680  26.817  54.463  1.00  0.00     0.044 A 
HETATM   23  C   UNL     1       5.661  27.064  53.531  1.00  0.00     0.030 A 
HETATM   24  C   UNL     1       5.162  26.040  52.719  1.00  0.00     0.002 A 
HETATM   25  C   UNL     1       5.663  24.748  52.835  1.00  0.00     0.000 A 
HETATM   26  C   UNL     1       6.653  24.477  53.772  1.00  0.00     0.002 A 
HETATM   27  C   UNL     1       7.153  25.501  54.583  1.00  0.00     0.030 A 
ENDBRANCH   1  22
TORSDOF 4
ENDMDL
MODEL 9
REMARK VINA RESULT:      -7.9      6.614      8.777
REMARK  4 active torsions:
REMARK  status: ('A' for Active; 'I' for Inactive)
REMARK    1  A    between atoms: C_4  and  N_5 
REMARK    2  A    between atoms: C_9  and  N_10 
REMARK    3  A    between atoms: C_13  and  C_14 
REMARK    4  A    between atoms: C_22  and  C_23 
ROOT
HETATM    1  N   UNL     1       6.743  26.581  53.962  1.00  0.00    -0.258 N 
HETATM    2  C   UNL     1       7.237  27.903  53.755  1.00  0.00     0.333 A 
HETATM    3  O   UNL     1       8.138  28.518  54.291  1.00  0.00    -0.246 OA
HETATM    4  N   UNL     1       6.464  28.427  52.713  1.00  0.00    -0.292 N 
HETATM    5  C   UNL     1       5.558  27.493  52.291  1.00  0.00     0.146 A 
HETATM    6  C   UNL     1       5.702  26.388  53.051  1.00  0.00     0.126 A 
HETATM    7  H   UNL     1       6.648  29.347  52.338  1.00  0.00     0.172 HD
ENDROOT
BRANCH   5   8
HETATM    8  N   UNL     1       4.617  27.763  51.292  1.00  0.00    -0.317 N 
HETATM    9  C   UNL     1       3.610  28.635  51.544  1.00  0.00     0.099 A 
HETATM   10  C   UNL     1       2.636  28.912  50.587  1.00  0.00     0.030 A 
HETATM   11  C   UNL     1       2.688  28.305  49.331  1.00  0.00    -0.023 A 
HETATM   12  C   UNL     1       3.761  27.448  49.077  1.00  0.00     0.030 A 
HETATM   13  C   UNL     1       4.713  27.197  50.063  1.00  0.00     0.099 A 
BRANCH  11  14
HETATM   14  C   UNL     1       1.644  28.542  48.321  1.00  0.00    -0.023 A 
HETATM   15  C   UNL     1       1.078  27.487  47.592  1.00  0.00     0.031 A 
HETATM   16  C   UNL     1       0.106  27.768  46.642  1.00  0.00     0.117 A 
HETATM   17  N   UNL     1      -0.334  29.011  46.372  1.00  0.00    -0.273 NA
HETATM   18  C   UNL     1       0.212  30.020  47.076  1.00  0.00     0.117 A 
HETATM   19  C   UNL     1       1.188  29.838  48.044  1.00  0.00     0.031 A 
ENDBRANCH  11  14
ENDBRANCH   5   8
BRANCH   6  20
HETATM   20  C   UNL     1       4.751  25.262  53.099  1.00  0.00     0.292 C 
HETATM   21  O   UNL     1       4.662  24.446  52.190  1.00  0.00    -0.300 OA
ENDBRANCH   6  20
BRANCH   1  22
HETATM   22  C   UNL     1       7.302  25.681  54.911  1.00  0.00     0.044 A 
HETATM   23  C   UNL     1       7.965  24.518  54.492  1.00  0.00     0.030 A 
HETATM   24  C   UNL     1       8.539  23.642  55.418  1.00  0.00     0.002 A 
HETATM   25  C   UNL     1       8.447  23.905  56.781  1.00  0.00     0.000 A 
HETATM   26  C   UNL     1       7.770  25.038  57.217  1.00  0.00     0.002 A 
HETATM   27  C   UNL     1       7.198  25.916  56.291  1.00  0.00     0.030 A 
ENDBRANCH   1  22
TORSDOF 4
ENDMDL
MODEL 10
REMARK VINA RESULT:      -7.8      2.610      9.332
REMARK  4 active torsions:
REMARK  status: ('A' for Active; 'I' for Inactive)
REMARK    1  A    between atoms: C_4  and  N_5 
REMARK    2  A    between atoms: C_9  and  N_10 
REMARK    3  A    between atoms: C_13  and  C_14 
REMARK    4  A    between atoms: C_22  and  C_23 
ROOT
HETATM    1  N   UNL     1       6.242  24.916  54.378  1.00  0.00    -0.258 N 
HETATM    2  C   UNL     1       5.067  25.165  53.607  1.00  0.00     0.333 A 
HETATM    3  O   UNL     1       4.497  24.494  52.770  1.00  0.00    -0.246 OA
HETATM    4  N   UNL     1       4.607  26.418  54.029  1.00  0.00    -0.292 N 
HETATM    5  C   UNL     1       5.431  26.912  55.003  1.00  0.00     0.146 A 
HETATM    6  C   UNL     1       6.430  26.027  55.203  1.00  0.00     0.126 A 
HETATM    7  H   UNL     1       3.749  26.808  53.666  1.00  0.00     0.172 HD
ENDROOT
BRANCH   5   8
HETATM    8  N   UNL     1       5.241  28.175  55.572  1.00  0.00    -0.317 N 
HETATM    9  C   UNL     1       5.143  29.261  54.766  1.00  0.00     0.099 A 
HETATM   10  C   UNL     1       4.981  30.540  55.292  1.00  0.00     0.030 A 
HETATM   11  C   UNL     1       4.898  30.731  56.673  1.00  0.00    -0.023 A 
HETATM   12  C   UNL     1       4.953  29.593  57.480  1.00  0.00     0.030 A 
HETATM   13  C   UNL     1       5.118  28.331  56.914  1.00  0.00     0.099 A 
BRANCH  11  14
HETATM   14  C   UNL     1       4.778  32.077  57.255  1.00  0.00    -0.023 A 
HETATM   15  C   UNL     1       4.683  32.269  58.640  1.00  0.00     0.031 A 
HETATM   16  C   UNL     1       4.558  33.559  59.136  1.00  0.00     0.117 A 
HETATM   17  N   UNL     1       4.520  34.656  58.356  1.00  0.00    -0.273 NA
HETATM   18  C   UNL     1       4.612  34.466  57.027  1.00  0.00     0.117 A 
HETATM   19  C   UNL     1       4.740  33.216  56.439  1.00  0.00     0.031 A 
ENDBRANCH  11  14
ENDBRANCH   5   8
BRANCH   6  20
HETATM   20  C   UNL     1       7.661  26.297  55.968  1.00  0.00     0.292 C 
HETATM   21  O   UNL     1       7.802  25.927  57.128  1.00  0.00    -0.300 OA
ENDBRANCH   6  20
BRANCH   1  22
HETATM   22  C   UNL     1       6.989  23.710  54.288  1.00  0.00     0.044 A 
HETATM   23  C   UNL     1       7.207  22.915  55.423  1.00  0.00     0.030 A 
HETATM   24  C   UNL     1       7.920  21.715  55.338  1.00  0.00     0.002 A 
HETATM   25  C   UNL     1       8.442  21.297  54.118  1.00  0.00     0.000 A 
HETATM   26  C   UNL     1       8.261  22.085  52.987  1.00  0.00     0.002 A 
HETATM   27  C   UNL     1       7.546  23.284  53.072  1.00  0.00     0.030 A 
ENDBRANCH   1  22
TORSDOF 4
ENDMDL
