MODEL 1
REMARK VINA RESULT:     -11.0      0.000      0.000
REMARK  9 active torsions:
REMARK  status: ('A' for Active; 'I' for Inactive)
REMARK    1  A    between atoms: C_4  and  S_5 
REMARK    2  A    between atoms: S_5  and  C_6 
REMARK    3  A    between atoms: C_6  and  C_7 
REMARK       I    between atoms: C_7  and  N_8 
REMARK    4  A    between atoms: N_8  and  C_9 
REMARK    5  A    between atoms: C_9  and  C_10 
REMARK    6  A    between atoms: C_20  and  C_21 
REMARK    7  A    between atoms: C_26  and  C_27 
REMARK       I    between atoms: C_27  and  N_28 
REMARK    8  A    between atoms: N_28  and  C_29 
REMARK    9  A    between atoms: C_31  and  C_32 
ROOT
HETATM    1  C   UNL     1       4.413  27.973  54.805  1.00  0.00     0.069 C 
HETATM    2  C   UNL     1       5.239  28.644  55.879  1.00  0.00     0.019 C 
HETATM    3  N   UNL     1       4.888  29.952  56.163  1.00  0.00    -0.353 N 
HETATM    4  C   UNL     1       5.380  30.722  57.202  1.00  0.00     0.087 C 
HETATM    5  C   UNL     1       6.448  30.248  57.885  1.00  0.00     0.057 C 
HETATM    6  C   UNL     1       7.199  31.040  58.944  1.00  0.00     0.019 C 
HETATM    7  N   UNL     1       7.822  31.695  59.823  1.00  0.00    -0.096 N 
HETATM    8  C   UNL     1       7.105  28.913  57.502  1.00  0.00     0.129 C 
HETATM    9  C   UNL     1       6.270  28.065  56.543  1.00  0.00     0.048 C 
HETATM   10  H   UNL     1       4.183  30.377  55.569  1.00  0.00     0.166 HD
ENDROOT
BRANCH   4  11
HETATM   11  S   UNL     1       4.686  32.296  57.582  1.00  0.00    -0.102 SA
BRANCH  11  12
HETATM   12  C   UNL     1       3.695  31.892  59.054  1.00  0.00     0.183 C 
BRANCH  12  13
HETATM   13  C   UNL     1       3.872  32.868  60.201  1.00  0.00     0.227 C 
HETATM   14  N   UNL     1       3.854  32.349  61.473  1.00  0.00    -0.356 N 
HETATM   15  H   UNL     1       3.693  31.358  61.609  1.00  0.00     0.162 HD
HETATM   16  O   UNL     1       3.933  34.079  59.986  1.00  0.00    -0.273 OA
BRANCH  14  17
HETATM   17  C   UNL     1       3.833  33.232  62.618  1.00  0.00     0.161 C 
BRANCH  17  18
HETATM   18  C   UNL     1       5.122  33.222  63.395  1.00  0.00    -0.041 A 
HETATM   19  C   UNL     1       6.313  32.756  62.819  1.00  0.00     0.009 A 
HETATM   20  C   UNL     1       7.514  32.815  63.527  1.00  0.00     0.001 A 
HETATM   21  C   UNL     1       7.543  33.352  64.812  1.00  0.00     0.000 A 
HETATM   22  C   UNL     1       6.369  33.830  65.392  1.00  0.00     0.001 A 
HETATM   23  C   UNL     1       5.166  33.768  64.688  1.00  0.00     0.009 A 
ENDBRANCH  17  18
ENDBRANCH  14  17
ENDBRANCH  12  13
ENDBRANCH  11  12
ENDBRANCH   4  11
BRANCH   8  24
HETATM   24  C   UNL     1       8.503  29.144  56.971  1.00  0.00     0.066 A 
HETATM   25  O   UNL     1       8.626  29.223  55.614  1.00  0.00    -0.326 OA
HETATM   26  C   UNL     1       9.942  29.424  55.347  1.00  0.00     0.142 A 
HETATM   27  C   UNL     1      10.664  29.502  56.515  1.00  0.00     0.027 A 
HETATM   28  C   UNL     1       9.734  29.326  57.568  1.00  0.00     0.035 A 
ENDBRANCH   8  24
BRANCH   9  29
HETATM   29  C   UNL     1       6.529  26.584  56.404  1.00  0.00     0.255 C 
HETATM   30  N   UNL     1       7.322  26.202  55.345  1.00  0.00    -0.323 N 
HETATM   31  H   UNL     1       7.733  26.915  54.756  1.00  0.00     0.169 HD
HETATM   32  O   UNL     1       6.092  25.812  57.253  1.00  0.00    -0.268 OA
BRANCH  30  33
HETATM   33  C   UNL     1       7.644  24.883  54.949  1.00  0.00     0.035 A 
HETATM   34  C   UNL     1       7.862  23.827  55.836  1.00  0.00     0.045 A 
HETATM   35  C   UNL     1       8.144  22.532  55.365  1.00  0.00     0.050 A 
HETATM   36  C   UNL     1       8.236  22.313  53.983  1.00  0.00     0.016 A 
HETATM   37  C   UNL     1       8.022  23.360  53.091  1.00  0.00     0.003 A 
HETATM   38  C   UNL     1       7.719  24.634  53.572  1.00  0.00     0.029 A 
BRANCH  35  39
HETATM   39  C   UNL     1       8.371  21.400  56.336  1.00  0.00     0.417 C 
HETATM   40  F   UNL     1       9.543  20.736  56.130  1.00  0.00    -0.166 F 
HETATM   41  F   UNL     1       8.410  21.815  57.634  1.00  0.00    -0.166 F 
HETATM   42  F   UNL     1       7.389  20.458  56.277  1.00  0.00    -0.166 F 
ENDBRANCH  35  39
ENDBRANCH  30  33
ENDBRANCH   9  29
TORSDOF 9
ENDMDL
MODEL 2
REMARK VINA RESULT:     -10.8      2.712      4.695
REMARK  9 active torsions:
REMARK  status: ('A' for Active; 'I' for Inactive)
REMARK    1  A    between atoms: C_4  and  S_5 
REMARK    2  A    between atoms: S_5  and  C_6 
REMARK    3  A    between atoms: C_6  and  C_7 
REMARK       I    between atoms: C_7  and  N_8 
REMARK    4  A    between atoms: N_8  and  C_9 
REMARK    5  A    between atoms: C_9  and  C_10 
REMARK    6  A    between atoms: C_20  and  C_21 
REMARK    7  A    between atoms: C_26  and  C_27 
REMARK       I    between atoms: C_27  and  N_28 
REMARK    8  A    between atoms: N_28  and  C_29 
REMARK    9  A    between atoms: C_31  and  C_32 
ROOT
HETATM    1  C   UNL     1       4.771  26.236  57.191  1.00  0.00     0.069 C 
HETATM    2  C   UNL     1       4.842  27.498  56.363  1.00  0.00     0.019 C 
HETATM    3  N   UNL     1       4.059  28.545  56.816  1.00  0.00    -0.353 N 
HETATM    4  C   UNL     1       4.070  29.841  56.332  1.00  0.00     0.087 C 
HETATM    5  C   UNL     1       4.743  30.077  55.181  1.00  0.00     0.057 C 
HETATM    6  C   UNL     1       4.720  31.404  54.439  1.00  0.00     0.019 C 
HETATM    7  N   UNL     1       4.702  32.505  53.824  1.00  0.00    -0.096 N 
HETATM    8  C   UNL     1       5.448  28.938  54.428  1.00  0.00     0.129 C 
HETATM    9  C   UNL     1       5.587  27.652  55.241  1.00  0.00     0.048 C 
HETATM   10  H   UNL     1       3.439  28.351  57.596  1.00  0.00     0.166 HD
ENDROOT
BRANCH   4  11
HETATM   11  S   UNL     1       3.184  31.129  57.144  1.00  0.00    -0.102 SA
BRANCH  11  12
HETATM   12  C   UNL     1       4.115  31.263  58.701  1.00  0.00     0.183 C 
BRANCH  12  13
HETATM   13  C   UNL     1       5.546  31.734  58.524  1.00  0.00     0.227 C 
HETATM   14  N   UNL     1       6.513  31.083  59.250  1.00  0.00    -0.356 N 
HETATM   15  H   UNL     1       6.248  30.347  59.894  1.00  0.00     0.162 HD
HETATM   16  O   UNL     1       5.797  32.718  57.828  1.00  0.00    -0.273 OA
BRANCH  14  17
HETATM   17  C   UNL     1       7.868  31.589  59.274  1.00  0.00     0.161 C 
BRANCH  17  18
HETATM   18  C   UNL     1       8.826  30.754  58.469  1.00  0.00    -0.041 A 
HETATM   19  C   UNL     1       8.419  29.545  57.884  1.00  0.00     0.009 A 
HETATM   20  C   UNL     1       9.298  28.813  57.084  1.00  0.00     0.001 A 
HETATM   21  C   UNL     1      10.588  29.286  56.848  1.00  0.00     0.000 A 
HETATM   22  C   UNL     1      11.001  30.490  57.413  1.00  0.00     0.001 A 
HETATM   23  C   UNL     1      10.125  31.222  58.217  1.00  0.00     0.009 A 
ENDBRANCH  17  18
ENDBRANCH  14  17
ENDBRANCH  12  13
ENDBRANCH  11  12
ENDBRANCH   4  11
BRANCH   8  24
HETATM   24  C   UNL     1       4.776  28.688  53.096  1.00  0.00     0.066 A 
HETATM   25  O   UNL     1       5.599  28.350  52.060  1.00  0.00    -0.326 OA
HETATM   26  C   UNL     1       4.811  28.177  50.968  1.00  0.00     0.142 A 
HETATM   27  C   UNL     1       3.489  28.372  51.293  1.00  0.00     0.027 A 
HETATM   28  C   UNL     1       3.463  28.698  52.670  1.00  0.00     0.035 A 
ENDBRANCH   8  24
BRANCH   9  29
HETATM   29  C   UNL     1       6.604  26.606  54.854  1.00  0.00     0.255 C 
HETATM   30  N   UNL     1       6.132  25.319  54.716  1.00  0.00    -0.323 N 
HETATM   31  H   UNL     1       5.141  25.146  54.821  1.00  0.00     0.169 HD
HETATM   32  O   UNL     1       7.761  26.945  54.619  1.00  0.00    -0.268 OA
BRANCH  30  33
HETATM   33  C   UNL     1       6.887  24.155  54.444  1.00  0.00     0.035 A 
HETATM   34  C   UNL     1       7.273  23.225  55.411  1.00  0.00     0.045 A 
HETATM   35  C   UNL     1       7.995  22.069  55.057  1.00  0.00     0.050 A 
HETATM   36  C   UNL     1       8.353  21.872  53.716  1.00  0.00     0.016 A 
HETATM   37  C   UNL     1       7.973  22.795  52.745  1.00  0.00     0.003 A 
HETATM   38  C   UNL     1       7.236  23.924  53.107  1.00  0.00     0.029 A 
BRANCH  35  39
HETATM   39  C   UNL     1       8.401  21.071  56.112  1.00  0.00     0.417 C 
HETATM   40  F   UNL     1       8.459  21.599  57.367  1.00  0.00    -0.166 F 
HETATM   41  F   UNL     1       7.542  20.015  56.199  1.00  0.00    -0.166 F 
HETATM   42  F   UNL     1       9.628  20.532  55.873  1.00  0.00    -0.166 F 
ENDBRANCH  35  39
ENDBRANCH  30  33
ENDBRANCH   9  29
TORSDOF 9
ENDMDL
MODEL 3
REMARK VINA RESULT:     -10.7      4.350      8.213
REMARK  9 active torsions:
REMARK  status: ('A' for Active; 'I' for Inactive)
REMARK    1  A    between atoms: C_4  and  S_5 
REMARK    2  A    between atoms: S_5  and  C_6 
REMARK    3  A    between atoms: C_6  and  C_7 
REMARK       I    between atoms: C_7  and  N_8 
REMARK    4  A    between atoms: N_8  and  C_9 
REMARK    5  A    between atoms: C_9  and  C_10 
REMARK    6  A    between atoms: C_20  and  C_21 
REMARK    7  A    between atoms: C_26  and  C_27 
REMARK       I    between atoms: C_27  and  N_28 
REMARK    8  A    between atoms: N_28  and  C_29 
REMARK    9  A    between atoms: C_31  and  C_32 
ROOT
HETATM    1  C   UNL     1       5.535  27.238  51.283  1.00  0.00     0.069 C 
HETATM    2  C   UNL     1       5.149  27.781  52.640  1.00  0.00     0.019 C 
HETATM    3  N   UNL     1       4.702  29.090  52.645  1.00  0.00    -0.353 N 
HETATM    4  C   UNL     1       4.146  29.757  53.722  1.00  0.00     0.087 C 
HETATM    5  C   UNL     1       4.228  29.169  54.939  1.00  0.00     0.057 C 
HETATM    6  C   UNL     1       3.809  29.838  56.238  1.00  0.00     0.019 C 
HETATM    7  N   UNL     1       3.461  30.393  57.316  1.00  0.00    -0.096 N 
HETATM    8  C   UNL     1       4.937  27.817  55.117  1.00  0.00     0.129 C 
HETATM    9  C   UNL     1       5.226  27.091  53.804  1.00  0.00     0.048 C 
HETATM   10  H   UNL     1       4.762  29.599  51.769  1.00  0.00     0.166 HD
ENDROOT
BRANCH   4  11
HETATM   11  S   UNL     1       3.416  31.350  53.534  1.00  0.00    -0.102 SA
BRANCH  11  12
HETATM   12  C   UNL     1       3.989  31.799  51.866  1.00  0.00     0.183 C 
BRANCH  12  13
HETATM   13  C   UNL     1       3.308  31.027  50.752  1.00  0.00     0.227 C 
HETATM   14  N   UNL     1       3.937  31.004  49.532  1.00  0.00    -0.356 N 
HETATM   15  H   UNL     1       4.800  31.519  49.401  1.00  0.00     0.162 HD
HETATM   16  O   UNL     1       2.196  30.529  50.929  1.00  0.00    -0.273 OA
BRANCH  14  17
HETATM   17  C   UNL     1       3.266  30.446  48.379  1.00  0.00     0.161 C 
BRANCH  17  18
HETATM   18  C   UNL     1       3.619  29.005  48.129  1.00  0.00    -0.041 A 
HETATM   19  C   UNL     1       4.876  28.643  47.623  1.00  0.00     0.009 A 
HETATM   20  C   UNL     1       5.215  27.299  47.458  1.00  0.00     0.001 A 
HETATM   21  C   UNL     1       4.308  26.301  47.810  1.00  0.00     0.000 A 
HETATM   22  C   UNL     1       3.060  26.646  48.325  1.00  0.00     0.001 A 
HETATM   23  C   UNL     1       2.718  27.989  48.486  1.00  0.00     0.009 A 
ENDBRANCH  17  18
ENDBRANCH  14  17
ENDBRANCH  12  13
ENDBRANCH  11  12
ENDBRANCH   4  11
BRANCH   8  24
HETATM   24  C   UNL     1       6.187  27.981  55.953  1.00  0.00     0.066 A 
HETATM   25  O   UNL     1       7.136  28.828  55.455  1.00  0.00    -0.326 OA
HETATM   26  C   UNL     1       8.167  28.831  56.339  1.00  0.00     0.142 A 
HETATM   27  C   UNL     1       7.883  28.019  57.412  1.00  0.00     0.027 A 
HETATM   28  C   UNL     1       6.600  27.472  57.167  1.00  0.00     0.035 A 
ENDBRANCH   8  24
BRANCH   9  29
HETATM   29  C   UNL     1       5.504  25.607  53.793  1.00  0.00     0.255 C 
HETATM   30  N   UNL     1       6.780  25.225  54.144  1.00  0.00    -0.323 N 
HETATM   31  H   UNL     1       7.440  25.930  54.442  1.00  0.00     0.169 HD
HETATM   32  O   UNL     1       4.592  24.823  53.546  1.00  0.00    -0.268 OA
BRANCH  30  33
HETATM   33  C   UNL     1       7.314  23.915  54.133  1.00  0.00     0.035 A 
HETATM   34  C   UNL     1       7.544  23.151  55.278  1.00  0.00     0.045 A 
HETATM   35  C   UNL     1       8.046  21.839  55.185  1.00  0.00     0.050 A 
HETATM   36  C   UNL     1       8.344  21.310  53.920  1.00  0.00     0.016 A 
HETATM   37  C   UNL     1       8.119  22.066  52.773  1.00  0.00     0.003 A 
HETATM   38  C   UNL     1       7.598  23.356  52.879  1.00  0.00     0.029 A 
BRANCH  35  39
HETATM   39  C   UNL     1       8.285  21.023  56.430  1.00  0.00     0.417 C 
HETATM   40  F   UNL     1       9.488  20.384  56.438  1.00  0.00    -0.166 F 
HETATM   41  F   UNL     1       8.263  21.775  57.568  1.00  0.00    -0.166 F 
HETATM   42  F   UNL     1       7.343  20.055  56.608  1.00  0.00    -0.166 F 
ENDBRANCH  35  39
ENDBRANCH  30  33
ENDBRANCH   9  29
TORSDOF 9
ENDMDL
MODEL 4
REMARK VINA RESULT:     -10.3      2.120      3.268
REMARK  9 active torsions:
REMARK  status: ('A' for Active; 'I' for Inactive)
REMARK    1  A    between atoms: C_4  and  S_5 
REMARK    2  A    between atoms: S_5  and  C_6 
REMARK    3  A    between atoms: C_6  and  C_7 
REMARK       I    between atoms: C_7  and  N_8 
REMARK    4  A    between atoms: N_8  and  C_9 
REMARK    5  A    between atoms: C_9  and  C_10 
REMARK    6  A    between atoms: C_20  and  C_21 
REMARK    7  A    between atoms: C_26  and  C_27 
REMARK       I    between atoms: C_27  and  N_28 
REMARK    8  A    between atoms: N_28  and  C_29 
REMARK    9  A    between atoms: C_31  and  C_32 
ROOT
HETATM    1  C   UNL     1       4.865  26.045  57.175  1.00  0.00     0.069 C 
HETATM    2  C   UNL     1       4.912  27.345  56.407  1.00  0.00     0.019 C 
HETATM    3  N   UNL     1       4.138  28.367  56.929  1.00  0.00    -0.353 N 
HETATM    4  C   UNL     1       4.134  29.684  56.508  1.00  0.00     0.087 C 
HETATM    5  C   UNL     1       4.777  29.978  55.353  1.00  0.00     0.057 C 
HETATM    6  C   UNL     1       4.732  31.339  54.676  1.00  0.00     0.019 C 
HETATM    7  N   UNL     1       4.696  32.468  54.115  1.00  0.00    -0.096 N 
HETATM    8  C   UNL     1       5.466  28.879  54.529  1.00  0.00     0.129 C 
HETATM    9  C   UNL     1       5.628  27.556  55.276  1.00  0.00     0.048 C 
HETATM   10  H   UNL     1       3.538  28.133  57.714  1.00  0.00     0.166 HD
ENDROOT
BRANCH   4  11
HETATM   11  S   UNL     1       3.265  30.929  57.402  1.00  0.00    -0.102 SA
BRANCH  11  12
HETATM   12  C   UNL     1       4.571  31.530  58.518  1.00  0.00     0.183 C 
BRANCH  12  13
HETATM   13  C   UNL     1       4.049  32.150  59.799  1.00  0.00     0.227 C 
HETATM   14  N   UNL     1       4.816  31.993  60.928  1.00  0.00    -0.356 N 
HETATM   15  H   UNL     1       5.670  31.451  60.883  1.00  0.00     0.162 HD
HETATM   16  O   UNL     1       2.940  32.686  59.827  1.00  0.00    -0.273 OA
BRANCH  14  17
HETATM   17  C   UNL     1       4.301  32.395  62.218  1.00  0.00     0.161 C 
BRANCH  17  18
HETATM   18  C   UNL     1       5.378  32.830  63.175  1.00  0.00    -0.041 A 
HETATM   19  C   UNL     1       5.059  33.345  64.440  1.00  0.00     0.009 A 
HETATM   20  C   UNL     1       6.068  33.683  65.343  1.00  0.00     0.001 A 
HETATM   21  C   UNL     1       7.406  33.498  64.999  1.00  0.00     0.000 A 
HETATM   22  C   UNL     1       7.737  32.976  63.750  1.00  0.00     0.001 A 
HETATM   23  C   UNL     1       6.729  32.642  62.844  1.00  0.00     0.009 A 
ENDBRANCH  17  18
ENDBRANCH  14  17
ENDBRANCH  12  13
ENDBRANCH  11  12
ENDBRANCH   4  11
BRANCH   8  24
HETATM   24  C   UNL     1       4.761  28.690  53.204  1.00  0.00     0.066 A 
HETATM   25  O   UNL     1       5.559  28.666  52.096  1.00  0.00    -0.326 OA
HETATM   26  C   UNL     1       4.743  28.496  51.024  1.00  0.00     0.142 A 
HETATM   27  C   UNL     1       3.433  28.384  51.428  1.00  0.00     0.027 A 
HETATM   28  C   UNL     1       3.443  28.504  52.839  1.00  0.00     0.035 A 
ENDBRANCH   8  24
BRANCH   9  29
HETATM   29  C   UNL     1       6.638  26.533  54.813  1.00  0.00     0.255 C 
HETATM   30  N   UNL     1       6.167  25.251  54.635  1.00  0.00    -0.323 N 
HETATM   31  H   UNL     1       5.180  25.067  54.761  1.00  0.00     0.169 HD
HETATM   32  O   UNL     1       7.785  26.888  54.558  1.00  0.00    -0.268 OA
BRANCH  30  33
HETATM   33  C   UNL     1       6.919  24.103  54.291  1.00  0.00     0.035 A 
HETATM   34  C   UNL     1       7.170  23.039  55.158  1.00  0.00     0.045 A 
HETATM   35  C   UNL     1       7.898  21.913  54.731  1.00  0.00     0.050 A 
HETATM   36  C   UNL     1       8.401  21.881  53.421  1.00  0.00     0.016 A 
HETATM   37  C   UNL     1       8.156  22.939  52.550  1.00  0.00     0.003 A 
HETATM   38  C   UNL     1       7.411  24.038  52.980  1.00  0.00     0.029 A 
BRANCH  35  39
HETATM   39  C   UNL     1       8.158  20.768  55.677  1.00  0.00     0.417 C 
HETATM   40  F   UNL     1       8.980  21.095  56.713  1.00  0.00    -0.166 F 
HETATM   41  F   UNL     1       7.018  20.288  56.253  1.00  0.00    -0.166 F 
HETATM   42  F   UNL     1       8.737  19.702  55.059  1.00  0.00    -0.166 F 
ENDBRANCH  35  39
ENDBRANCH  30  33
ENDBRANCH   9  29
TORSDOF 9
ENDMDL
MODEL 5
REMARK VINA RESULT:     -10.3      4.727     10.883
REMARK  9 active torsions:
REMARK  status: ('A' for Active; 'I' for Inactive)
REMARK    1  A    between atoms: C_4  and  S_5 
REMARK    2  A    between atoms: S_5  and  C_6 
REMARK    3  A    between atoms: C_6  and  C_7 
REMARK       I    between atoms: C_7  and  N_8 
REMARK    4  A    between atoms: N_8  and  C_9 
REMARK    5  A    between atoms: C_9  and  C_10 
REMARK    6  A    between atoms: C_20  and  C_21 
REMARK    7  A    between atoms: C_26  and  C_27 
REMARK       I    between atoms: C_27  and  N_28 
REMARK    8  A    between atoms: N_28  and  C_29 
REMARK    9  A    between atoms: C_31  and  C_32 
ROOT
HETATM    1  C   UNL     1      10.266  31.251  58.194  1.00  0.00     0.069 C 
HETATM    2  C   UNL     1       8.971  30.493  58.010  1.00  0.00     0.019 C 
HETATM    3  N   UNL     1       9.026  29.440  57.114  1.00  0.00    -0.353 N 
HETATM    4  C   UNL     1       8.030  28.505  56.892  1.00  0.00     0.087 C 
HETATM    5  C   UNL     1       6.812  28.742  57.433  1.00  0.00     0.057 C 
HETATM    6  C   UNL     1       5.579  27.898  57.153  1.00  0.00     0.019 C 
HETATM    7  N   UNL     1       4.555  27.198  56.922  1.00  0.00    -0.096 N 
HETATM    8  C   UNL     1       6.541  30.019  58.244  1.00  0.00     0.129 C 
HETATM    9  C   UNL     1       7.804  30.783  58.637  1.00  0.00     0.048 C 
HETATM   10  H   UNL     1       9.888  29.328  56.591  1.00  0.00     0.166 HD
ENDROOT
BRANCH   4  11
HETATM   11  S   UNL     1       8.315  27.088  55.884  1.00  0.00    -0.102 SA
BRANCH  11  12
HETATM   12  C   UNL     1       7.511  27.599  54.333  1.00  0.00     0.183 C 
BRANCH  12  13
HETATM   13  C   UNL     1       7.081  26.442  53.453  1.00  0.00     0.227 C 
HETATM   14  N   UNL     1       7.447  25.181  53.854  1.00  0.00    -0.356 N 
HETATM   15  H   UNL     1       8.010  25.062  54.688  1.00  0.00     0.162 HD
HETATM   16  O   UNL     1       6.510  26.651  52.382  1.00  0.00    -0.273 OA
BRANCH  14  17
HETATM   17  C   UNL     1       7.234  24.049  52.980  1.00  0.00     0.161 C 
BRANCH  17  18
HETATM   18  C   UNL     1       7.630  22.737  53.603  1.00  0.00    -0.041 A 
HETATM   19  C   UNL     1       7.533  22.534  54.987  1.00  0.00     0.009 A 
HETATM   20  C   UNL     1       7.840  21.292  55.545  1.00  0.00     0.001 A 
HETATM   21  C   UNL     1       8.234  20.236  54.726  1.00  0.00     0.000 A 
HETATM   22  C   UNL     1       8.324  20.421  53.348  1.00  0.00     0.001 A 
HETATM   23  C   UNL     1       8.022  21.663  52.789  1.00  0.00     0.009 A 
ENDBRANCH  17  18
ENDBRANCH  14  17
ENDBRANCH  12  13
ENDBRANCH  11  12
ENDBRANCH   4  11
BRANCH   8  24
HETATM   24  C   UNL     1       5.553  30.906  57.519  1.00  0.00     0.066 A 
HETATM   25  O   UNL     1       5.836  31.180  56.212  1.00  0.00    -0.326 OA
HETATM   26  C   UNL     1       4.844  31.985  55.752  1.00  0.00     0.142 A 
HETATM   27  C   UNL     1       3.912  32.212  56.737  1.00  0.00     0.027 A 
HETATM   28  C   UNL     1       4.366  31.511  57.880  1.00  0.00     0.035 A 
ENDBRANCH   8  24
BRANCH   9  29
HETATM   29  C   UNL     1       7.775  31.781  59.769  1.00  0.00     0.255 C 
HETATM   30  N   UNL     1       7.168  31.364  60.933  1.00  0.00    -0.323 N 
HETATM   31  H   UNL     1       6.829  30.413  60.997  1.00  0.00     0.169 HD
HETATM   32  O   UNL     1       8.336  32.865  59.634  1.00  0.00    -0.268 OA
BRANCH  30  33
HETATM   33  C   UNL     1       6.938  32.129  62.100  1.00  0.00     0.035 A 
HETATM   34  C   UNL     1       5.711  32.705  62.434  1.00  0.00     0.045 A 
HETATM   35  C   UNL     1       5.551  33.424  63.633  1.00  0.00     0.050 A 
HETATM   36  C   UNL     1       6.653  33.584  64.486  1.00  0.00     0.016 A 
HETATM   37  C   UNL     1       7.881  33.015  64.159  1.00  0.00     0.003 A 
HETATM   38  C   UNL     1       8.019  32.283  62.979  1.00  0.00     0.029 A 
BRANCH  35  39
HETATM   39  C   UNL     1       4.218  34.036  63.983  1.00  0.00     0.417 C 
HETATM   40  F   UNL     1       4.179  35.387  63.810  1.00  0.00    -0.166 F 
HETATM   41  F   UNL     1       3.194  33.541  63.230  1.00  0.00    -0.166 F 
HETATM   42  F   UNL     1       3.866  33.812  65.279  1.00  0.00    -0.166 F 
ENDBRANCH  35  39
ENDBRANCH  30  33
ENDBRANCH   9  29
TORSDOF 9
ENDMDL
MODEL 6
REMARK VINA RESULT:     -10.3      5.328     11.172
REMARK  9 active torsions:
REMARK  status: ('A' for Active; 'I' for Inactive)
REMARK    1  A    between atoms: C_4  and  S_5 
REMARK    2  A    between atoms: S_5  and  C_6 
REMARK    3  A    between atoms: C_6  and  C_7 
REMARK       I    between atoms: C_7  and  N_8 
REMARK    4  A    between atoms: N_8  and  C_9 
REMARK    5  A    between atoms: C_9  and  C_10 
REMARK    6  A    between atoms: C_20  and  C_21 
REMARK    7  A    between atoms: C_26  and  C_27 
REMARK       I    between atoms: C_27  and  N_28 
REMARK    8  A    between atoms: N_28  and  C_29 
REMARK    9  A    between atoms: C_31  and  C_32 
ROOT
HETATM    1  C   UNL     1       4.140  30.174  58.151  1.00  0.00     0.069 C 
HETATM    2  C   UNL     1       5.646  30.286  58.092  1.00  0.00     0.019 C 
HETATM    3  N   UNL     1       6.304  29.153  57.647  1.00  0.00    -0.353 N 
HETATM    4  C   UNL     1       7.653  29.054  57.355  1.00  0.00     0.087 C 
HETATM    5  C   UNL     1       8.454  30.080  57.727  1.00  0.00     0.057 C 
HETATM    6  C   UNL     1       9.971  30.056  57.621  1.00  0.00     0.019 C 
HETATM    7  N   UNL     1      11.228  30.038  57.532  1.00  0.00    -0.096 N 
HETATM    8  C   UNL     1       7.886  31.299  58.469  1.00  0.00     0.129 C 
HETATM    9  C   UNL     1       6.360  31.382  58.447  1.00  0.00     0.048 C 
HETATM   10  H   UNL     1       5.738  28.324  57.494  1.00  0.00     0.166 HD
ENDROOT
BRANCH   4  11
HETATM   11  S   UNL     1       8.320  27.615  56.587  1.00  0.00    -0.102 SA
BRANCH  11  12
HETATM   12  C   UNL     1       7.455  26.301  57.502  1.00  0.00     0.183 C 
BRANCH  12  13
HETATM   13  C   UNL     1       6.775  25.278  56.613  1.00  0.00     0.227 C 
HETATM   14  N   UNL     1       7.503  24.783  55.559  1.00  0.00    -0.356 N 
HETATM   15  H   UNL     1       8.438  25.132  55.386  1.00  0.00     0.162 HD
HETATM   16  O   UNL     1       5.592  24.985  56.790  1.00  0.00    -0.273 OA
BRANCH  14  17
HETATM   17  C   UNL     1       6.867  23.947  54.565  1.00  0.00     0.161 C 
BRANCH  17  18
HETATM   18  C   UNL     1       7.516  22.596  54.426  1.00  0.00    -0.041 A 
HETATM   19  C   UNL     1       7.820  21.818  55.553  1.00  0.00     0.009 A 
HETATM   20  C   UNL     1       8.361  20.539  55.409  1.00  0.00     0.001 A 
HETATM   21  C   UNL     1       8.592  20.018  54.137  1.00  0.00     0.000 A 
HETATM   22  C   UNL     1       8.284  20.775  53.008  1.00  0.00     0.001 A 
HETATM   23  C   UNL     1       7.747  22.056  53.152  1.00  0.00     0.009 A 
ENDBRANCH  17  18
ENDBRANCH  14  17
ENDBRANCH  12  13
ENDBRANCH  11  12
ENDBRANCH   4  11
BRANCH   8  24
HETATM   24  C   UNL     1       8.428  31.360  59.880  1.00  0.00     0.066 A 
HETATM   25  O   UNL     1       8.603  30.161  60.510  1.00  0.00    -0.326 OA
HETATM   26  C   UNL     1       9.086  30.431  61.750  1.00  0.00     0.142 A 
HETATM   27  C   UNL     1       9.249  31.786  61.918  1.00  0.00     0.027 A 
HETATM   28  C   UNL     1       8.830  32.389  60.708  1.00  0.00     0.035 A 
ENDBRANCH   8  24
BRANCH   9  29
HETATM   29  C   UNL     1       5.659  32.689  58.727  1.00  0.00     0.255 C 
HETATM   30  N   UNL     1       5.243  32.890  60.025  1.00  0.00    -0.323 N 
HETATM   31  H   UNL     1       5.471  32.199  60.727  1.00  0.00     0.169 HD
HETATM   32  O   UNL     1       5.551  33.521  57.831  1.00  0.00    -0.268 OA
BRANCH  30  33
HETATM   33  C   UNL     1       4.498  33.983  60.525  1.00  0.00     0.035 A 
HETATM   34  C   UNL     1       4.970  34.885  61.480  1.00  0.00     0.045 A 
HETATM   35  C   UNL     1       4.181  35.971  61.903  1.00  0.00     0.050 A 
HETATM   36  C   UNL     1       2.891  36.125  61.374  1.00  0.00     0.016 A 
HETATM   37  C   UNL     1       2.412  35.230  60.422  1.00  0.00     0.003 A 
HETATM   38  C   UNL     1       3.214  34.172  59.994  1.00  0.00     0.029 A 
BRANCH  35  39
HETATM   39  C   UNL     1       4.706  36.941  62.932  1.00  0.00     0.417 C 
HETATM   40  F   UNL     1       4.710  38.235  62.506  1.00  0.00    -0.166 F 
HETATM   41  F   UNL     1       3.975  36.937  64.084  1.00  0.00    -0.166 F 
HETATM   42  F   UNL     1       5.986  36.663  63.304  1.00  0.00    -0.166 F 
ENDBRANCH  35  39
ENDBRANCH  30  33
ENDBRANCH   9  29
TORSDOF 9
ENDMDL
MODEL 7
REMARK VINA RESULT:     -10.3      4.930     10.966
REMARK  9 active torsions:
REMARK  status: ('A' for Active; 'I' for Inactive)
REMARK    1  A    between atoms: C_4  and  S_5 
REMARK    2  A    between atoms: S_5  and  C_6 
REMARK    3  A    between atoms: C_6  and  C_7 
REMARK       I    between atoms: C_7  and  N_8 
REMARK    4  A    between atoms: N_8  and  C_9 
REMARK    5  A    between atoms: C_9  and  C_10 
REMARK    6  A    between atoms: C_20  and  C_21 
REMARK    7  A    between atoms: C_26  and  C_27 
REMARK       I    between atoms: C_27  and  N_28 
REMARK    8  A    between atoms: N_28  and  C_29 
REMARK    9  A    between atoms: C_31  and  C_32 
ROOT
HETATM    1  C   UNL     1       9.250  30.777  59.024  1.00  0.00     0.069 C 
HETATM    2  C   UNL     1       7.795  30.783  58.612  1.00  0.00     0.019 C 
HETATM    3  N   UNL     1       7.478  29.946  57.558  1.00  0.00    -0.353 N 
HETATM    4  C   UNL     1       6.204  29.655  57.102  1.00  0.00     0.087 C 
HETATM    5  C   UNL     1       5.179  30.403  57.576  1.00  0.00     0.057 C 
HETATM    6  C   UNL     1       3.752  30.314  57.060  1.00  0.00     0.019 C 
HETATM    7  N   UNL     1       2.567  30.241  56.634  1.00  0.00    -0.096 N 
HETATM    8  C   UNL     1       5.430  31.549  58.568  1.00  0.00     0.129 C 
HETATM    9  C   UNL     1       6.828  31.541  59.184  1.00  0.00     0.048 C 
HETATM   10  H   UNL     1       8.250  29.480  57.093  1.00  0.00     0.166 HD
ENDROOT
BRANCH   4  11
HETATM   11  S   UNL     1       5.928  28.402  55.894  1.00  0.00    -0.102 SA
BRANCH  11  12
HETATM   12  C   UNL     1       5.611  26.960  56.957  1.00  0.00     0.183 C 
BRANCH  12  13
HETATM   13  C   UNL     1       6.791  26.014  57.080  1.00  0.00     0.227 C 
HETATM   14  N   UNL     1       6.765  24.879  56.308  1.00  0.00    -0.356 N 
HETATM   15  H   UNL     1       5.963  24.690  55.719  1.00  0.00     0.162 HD
HETATM   16  O   UNL     1       7.677  26.227  57.907  1.00  0.00    -0.273 OA
BRANCH  14  17
HETATM   17  C   UNL     1       7.758  23.846  56.502  1.00  0.00     0.161 C 
BRANCH  17  18
HETATM   18  C   UNL     1       7.788  22.838  55.384  1.00  0.00    -0.041 A 
HETATM   19  C   UNL     1       7.886  23.243  54.045  1.00  0.00     0.009 A 
HETATM   20  C   UNL     1       7.981  22.297  53.023  1.00  0.00     0.001 A 
HETATM   21  C   UNL     1       7.993  20.937  53.327  1.00  0.00     0.000 A 
HETATM   22  C   UNL     1       7.907  20.521  54.654  1.00  0.00     0.001 A 
HETATM   23  C   UNL     1       7.808  21.465  55.677  1.00  0.00     0.009 A 
ENDBRANCH  17  18
ENDBRANCH  14  17
ENDBRANCH  12  13
ENDBRANCH  11  12
ENDBRANCH   4  11
BRANCH   8  24
HETATM   24  C   UNL     1       5.108  32.882  57.928  1.00  0.00     0.066 A 
HETATM   25  O   UNL     1       5.417  33.004  56.604  1.00  0.00    -0.326 OA
HETATM   26  C   UNL     1       5.060  34.259  56.228  1.00  0.00     0.142 A 
HETATM   27  C   UNL     1       4.501  34.938  57.285  1.00  0.00     0.027 A 
HETATM   28  C   UNL     1       4.526  34.047  58.385  1.00  0.00     0.035 A 
ENDBRANCH   8  24
BRANCH   9  29
HETATM   29  C   UNL     1       7.107  32.293  60.463  1.00  0.00     0.255 C 
HETATM   30  N   UNL     1       6.289  31.999  61.532  1.00  0.00    -0.323 N 
HETATM   31  H   UNL     1       5.595  31.270  61.434  1.00  0.00     0.169 HD
HETATM   32  O   UNL     1       8.062  33.063  60.516  1.00  0.00    -0.268 OA
BRANCH  30  33
HETATM   33  C   UNL     1       6.288  32.617  62.804  1.00  0.00     0.035 A 
HETATM   34  C   UNL     1       5.165  33.198  63.395  1.00  0.00     0.045 A 
HETATM   35  C   UNL     1       5.234  33.764  64.682  1.00  0.00     0.050 A 
HETATM   36  C   UNL     1       6.461  33.766  65.362  1.00  0.00     0.016 A 
HETATM   37  C   UNL     1       7.587  33.190  64.779  1.00  0.00     0.003 A 
HETATM   38  C   UNL     1       7.498  32.611  63.513  1.00  0.00     0.029 A 
BRANCH  35  39
HETATM   39  C   UNL     1       4.011  34.383  65.310  1.00  0.00     0.417 C 
HETATM   40  F   UNL     1       2.855  34.089  64.652  1.00  0.00    -0.166 F 
HETATM   41  F   UNL     1       3.813  33.976  66.597  1.00  0.00    -0.166 F 
HETATM   42  F   UNL     1       4.082  35.742  65.359  1.00  0.00    -0.166 F 
ENDBRANCH  35  39
ENDBRANCH  30  33
ENDBRANCH   9  29
TORSDOF 9
ENDMDL
MODEL 8
REMARK VINA RESULT:     -10.0      5.053     11.378
REMARK  9 active torsions:
REMARK  status: ('A' for Active; 'I' for Inactive)
REMARK    1  A    between atoms: C_4  and  S_5 
REMARK    2  A    between atoms: S_5  and  C_6 
REMARK    3  A    between atoms: C_6  and  C_7 
REMARK       I    between atoms: C_7  and  N_8 
REMARK    4  A    between atoms: N_8  and  C_9 
REMARK    5  A    between atoms: C_9  and  C_10 
REMARK    6  A    between atoms: C_20  and  C_21 
REMARK    7  A    between atoms: C_26  and  C_27 
REMARK       I    between atoms: C_27  and  N_28 
REMARK    8  A    between atoms: N_28  and  C_29 
REMARK    9  A    between atoms: C_31  and  C_32 
ROOT
HETATM    1  C   UNL     1       8.850  32.324  60.458  1.00  0.00     0.069 C 
HETATM    2  C   UNL     1       7.612  31.915  59.693  1.00  0.00     0.019 C 
HETATM    3  N   UNL     1       7.843  31.167  58.553  1.00  0.00    -0.353 N 
HETATM    4  C   UNL     1       6.882  30.544  57.777  1.00  0.00     0.087 C 
HETATM    5  C   UNL     1       5.585  30.852  58.014  1.00  0.00     0.057 C 
HETATM    6  C   UNL     1       4.426  30.377  57.151  1.00  0.00     0.019 C 
HETATM    7  N   UNL     1       3.465  29.982  56.437  1.00  0.00    -0.096 N 
HETATM    8  C   UNL     1       5.199  31.877  59.092  1.00  0.00     0.129 C 
HETATM    9  C   UNL     1       6.342  32.239  60.039  1.00  0.00     0.048 C 
HETATM   10  H   UNL     1       8.811  31.040  58.276  1.00  0.00     0.166 HD
ENDROOT
BRANCH   4  11
HETATM   11  S   UNL     1       7.328  29.439  56.479  1.00  0.00    -0.102 SA
BRANCH  11  12
HETATM   12  C   UNL     1       8.332  28.223  57.388  1.00  0.00     0.183 C 
BRANCH  12  13
HETATM   13  C   UNL     1       7.833  26.797  57.262  1.00  0.00     0.227 C 
HETATM   14  N   UNL     1       7.234  26.446  56.077  1.00  0.00    -0.356 N 
HETATM   15  H   UNL     1       7.113  27.141  55.350  1.00  0.00     0.162 HD
HETATM   16  O   UNL     1       7.889  26.029  58.223  1.00  0.00    -0.273 OA
BRANCH  14  17
HETATM   17  C   UNL     1       6.574  25.166  55.948  1.00  0.00     0.161 C 
BRANCH  17  18
HETATM   18  C   UNL     1       7.355  24.178  55.123  1.00  0.00    -0.041 A 
HETATM   19  C   UNL     1       8.362  23.389  55.698  1.00  0.00     0.009 A 
HETATM   20  C   UNL     1       9.033  22.430  54.938  1.00  0.00     0.001 A 
HETATM   21  C   UNL     1       8.697  22.239  53.599  1.00  0.00     0.000 A 
HETATM   22  C   UNL     1       7.691  23.008  53.018  1.00  0.00     0.001 A 
HETATM   23  C   UNL     1       7.022  23.970  53.775  1.00  0.00     0.009 A 
ENDBRANCH  17  18
ENDBRANCH  14  17
ENDBRANCH  12  13
ENDBRANCH  11  12
ENDBRANCH   4  11
BRANCH   8  24
HETATM   24  C   UNL     1       4.587  33.107  58.458  1.00  0.00     0.066 A 
HETATM   25  O   UNL     1       5.357  33.754  57.534  1.00  0.00    -0.326 OA
HETATM   26  C   UNL     1       4.638  34.819  57.095  1.00  0.00     0.142 A 
HETATM   27  C   UNL     1       3.405  34.851  57.704  1.00  0.00     0.027 A 
HETATM   28  C   UNL     1       3.368  33.741  58.582  1.00  0.00     0.035 A 
ENDBRANCH   8  24
BRANCH   9  29
HETATM   29  C   UNL     1       6.055  32.865  61.382  1.00  0.00     0.255 C 
HETATM   30  N   UNL     1       5.596  34.164  61.362  1.00  0.00    -0.323 N 
HETATM   31  H   UNL     1       5.420  34.610  60.472  1.00  0.00     0.169 HD
HETATM   32  O   UNL     1       6.174  32.192  62.402  1.00  0.00    -0.268 OA
BRANCH  30  33
HETATM   33  C   UNL     1       5.335  34.997  62.475  1.00  0.00     0.035 A 
HETATM   34  C   UNL     1       4.665  34.582  63.628  1.00  0.00     0.045 A 
HETATM   35  C   UNL     1       4.474  35.460  64.711  1.00  0.00     0.050 A 
HETATM   36  C   UNL     1       4.941  36.779  64.611  1.00  0.00     0.016 A 
HETATM   37  C   UNL     1       5.608  37.202  63.465  1.00  0.00     0.003 A 
HETATM   38  C   UNL     1       5.813  36.313  62.409  1.00  0.00     0.029 A 
BRANCH  35  39
HETATM   39  C   UNL     1       3.753  34.996  65.951  1.00  0.00     0.417 C 
HETATM   40  F   UNL     1       2.447  34.672  65.731  1.00  0.00    -0.166 F 
HETATM   41  F   UNL     1       4.316  33.884  66.506  1.00  0.00    -0.166 F 
HETATM   42  F   UNL     1       3.748  35.938  66.934  1.00  0.00    -0.166 F 
ENDBRANCH  35  39
ENDBRANCH  30  33
ENDBRANCH   9  29
TORSDOF 9
ENDMDL
MODEL 9
REMARK VINA RESULT:      -9.9      2.261      3.332
REMARK  9 active torsions:
REMARK  status: ('A' for Active; 'I' for Inactive)
REMARK    1  A    between atoms: C_4  and  S_5 
REMARK    2  A    between atoms: S_5  and  C_6 
REMARK    3  A    between atoms: C_6  and  C_7 
REMARK       I    between atoms: C_7  and  N_8 
REMARK    4  A    between atoms: N_8  and  C_9 
REMARK    5  A    between atoms: C_9  and  C_10 
REMARK    6  A    between atoms: C_20  and  C_21 
REMARK    7  A    between atoms: C_26  and  C_27 
REMARK       I    between atoms: C_27  and  N_28 
REMARK    8  A    between atoms: N_28  and  C_29 
REMARK    9  A    between atoms: C_31  and  C_32 
ROOT
HETATM    1  C   UNL     1       5.031  27.631  51.659  1.00  0.00     0.069 C 
HETATM    2  C   UNL     1       4.898  28.071  53.098  1.00  0.00     0.019 C 
HETATM    3  N   UNL     1       4.434  29.362  53.280  1.00  0.00    -0.353 N 
HETATM    4  C   UNL     1       4.078  29.939  54.486  1.00  0.00     0.087 C 
HETATM    5  C   UNL     1       4.401  29.276  55.621  1.00  0.00     0.057 C 
HETATM    6  C   UNL     1       4.222  29.845  57.019  1.00  0.00     0.019 C 
HETATM    7  N   UNL     1       4.073  30.316  58.180  1.00  0.00    -0.096 N 
HETATM    8  C   UNL     1       5.157  27.939  55.568  1.00  0.00     0.129 C 
HETATM    9  C   UNL     1       5.207  27.310  54.176  1.00  0.00     0.048 C 
HETATM   10  H   UNL     1       4.317  29.930  52.446  1.00  0.00     0.166 HD
ENDROOT
BRANCH   4  11
HETATM   11  S   UNL     1       3.295  31.516  54.550  1.00  0.00    -0.102 SA
BRANCH  11  12
HETATM   12  C   UNL     1       4.736  32.613  54.727  1.00  0.00     0.183 C 
BRANCH  12  13
HETATM   13  C   UNL     1       4.628  33.590  55.882  1.00  0.00     0.227 C 
HETATM   14  N   UNL     1       3.623  33.373  56.793  1.00  0.00    -0.356 N 
HETATM   15  H   UNL     1       2.976  32.606  56.653  1.00  0.00     0.162 HD
HETATM   16  O   UNL     1       5.359  34.580  55.932  1.00  0.00    -0.273 OA
BRANCH  14  17
HETATM   17  C   UNL     1       3.343  34.358  57.813  1.00  0.00     0.161 C 
BRANCH  17  18
HETATM   18  C   UNL     1       3.733  33.905  59.195  1.00  0.00    -0.041 A 
HETATM   19  C   UNL     1       2.822  33.961  60.260  1.00  0.00     0.009 A 
HETATM   20  C   UNL     1       3.174  33.477  61.521  1.00  0.00     0.001 A 
HETATM   21  C   UNL     1       4.433  32.917  61.728  1.00  0.00     0.000 A 
HETATM   22  C   UNL     1       5.343  32.844  60.676  1.00  0.00     0.001 A 
HETATM   23  C   UNL     1       4.995  33.332  59.416  1.00  0.00     0.009 A 
ENDBRANCH  17  18
ENDBRANCH  14  17
ENDBRANCH  12  13
ENDBRANCH  11  12
ENDBRANCH   4  11
BRANCH   8  24
HETATM   24  C   UNL     1       6.540  28.089  56.164  1.00  0.00     0.066 A 
HETATM   25  O   UNL     1       6.958  27.075  56.977  1.00  0.00    -0.326 OA
HETATM   26  C   UNL     1       8.204  27.402  57.407  1.00  0.00     0.142 A 
HETATM   27  C   UNL     1       8.604  28.599  56.862  1.00  0.00     0.027 A 
HETATM   28  C   UNL     1       7.531  29.043  56.052  1.00  0.00     0.035 A 
ENDBRANCH   8  24
BRANCH   9  29
HETATM   29  C   UNL     1       5.507  25.840  54.009  1.00  0.00     0.255 C 
HETATM   30  N   UNL     1       6.775  25.434  54.362  1.00  0.00    -0.323 N 
HETATM   31  H   UNL     1       7.414  26.109  54.763  1.00  0.00     0.169 HD
HETATM   32  O   UNL     1       4.617  25.079  53.641  1.00  0.00    -0.268 OA
BRANCH  30  33
HETATM   33  C   UNL     1       7.329  24.140  54.225  1.00  0.00     0.035 A 
HETATM   34  C   UNL     1       7.540  23.258  55.286  1.00  0.00     0.045 A 
HETATM   35  C   UNL     1       8.063  21.971  55.066  1.00  0.00     0.050 A 
HETATM   36  C   UNL     1       8.403  21.586  53.760  1.00  0.00     0.016 A 
HETATM   37  C   UNL     1       8.197  22.460  52.696  1.00  0.00     0.003 A 
HETATM   38  C   UNL     1       7.654  23.724  52.926  1.00  0.00     0.029 A 
BRANCH  35  39
HETATM   39  C   UNL     1       8.281  21.027  56.222  1.00  0.00     0.417 C 
HETATM   40  F   UNL     1       7.292  20.100  56.359  1.00  0.00    -0.166 F 
HETATM   41  F   UNL     1       9.438  20.313  56.111  1.00  0.00    -0.166 F 
HETATM   42  F   UNL     1       8.358  21.675  57.416  1.00  0.00    -0.166 F 
ENDBRANCH  35  39
ENDBRANCH  30  33
ENDBRANCH   9  29
TORSDOF 9
ENDMDL
MODEL 10
REMARK VINA RESULT:      -9.8      4.518      7.382
REMARK  9 active torsions:
REMARK  status: ('A' for Active; 'I' for Inactive)
REMARK    1  A    between atoms: C_4  and  S_5 
REMARK    2  A    between atoms: S_5  and  C_6 
REMARK    3  A    between atoms: C_6  and  C_7 
REMARK       I    between atoms: C_7  and  N_8 
REMARK    4  A    between atoms: N_8  and  C_9 
REMARK    5  A    between atoms: C_9  and  C_10 
REMARK    6  A    between atoms: C_20  and  C_21 
REMARK    7  A    between atoms: C_26  and  C_27 
REMARK       I    between atoms: C_27  and  N_28 
REMARK    8  A    between atoms: N_28  and  C_29 
REMARK    9  A    between atoms: C_31  and  C_32 
ROOT
HETATM    1  C   UNL     1       5.560  27.661  51.393  1.00  0.00     0.069 C 
HETATM    2  C   UNL     1       5.209  28.134  52.785  1.00  0.00     0.019 C 
HETATM    3  N   UNL     1       4.770  29.443  52.870  1.00  0.00    -0.353 N 
HETATM    4  C   UNL     1       4.243  30.056  53.993  1.00  0.00     0.087 C 
HETATM    5  C   UNL     1       4.351  29.404  55.175  1.00  0.00     0.057 C 
HETATM    6  C   UNL     1       3.967  30.007  56.517  1.00  0.00     0.019 C 
HETATM    7  N   UNL     1       3.647  30.505  57.630  1.00  0.00    -0.096 N 
HETATM    8  C   UNL     1       5.055  28.041  55.266  1.00  0.00     0.129 C 
HETATM    9  C   UNL     1       5.309  27.384  53.910  1.00  0.00     0.048 C 
HETATM   10  H   UNL     1       4.813  29.998  52.021  1.00  0.00     0.166 HD
ENDROOT
BRANCH   4  11
HETATM   11  S   UNL     1       3.519  31.660  53.906  1.00  0.00    -0.102 SA
BRANCH  11  12
HETATM   12  C   UNL     1       3.979  32.156  52.216  1.00  0.00     0.183 C 
BRANCH  12  13
HETATM   13  C   UNL     1       4.721  33.477  52.143  1.00  0.00     0.227 C 
HETATM   14  N   UNL     1       4.735  34.120  50.930  1.00  0.00    -0.356 N 
HETATM   15  H   UNL     1       4.291  33.690  50.128  1.00  0.00     0.162 HD
HETATM   16  O   UNL     1       5.354  33.891  53.115  1.00  0.00    -0.273 OA
BRANCH  14  17
HETATM   17  C   UNL     1       5.570  35.285  50.735  1.00  0.00     0.161 C 
BRANCH  17  18
HETATM   18  C   UNL     1       6.570  35.115  49.623  1.00  0.00    -0.041 A 
HETATM   19  C   UNL     1       7.608  36.040  49.435  1.00  0.00     0.009 A 
HETATM   20  C   UNL     1       8.569  35.836  48.443  1.00  0.00     0.001 A 
HETATM   21  C   UNL     1       8.511  34.701  47.637  1.00  0.00     0.000 A 
HETATM   22  C   UNL     1       7.492  33.768  47.820  1.00  0.00     0.001 A 
HETATM   23  C   UNL     1       6.528  33.973  48.809  1.00  0.00     0.009 A 
ENDBRANCH  17  18
ENDBRANCH  14  17
ENDBRANCH  12  13
ENDBRANCH  11  12
ENDBRANCH   4  11
BRANCH   8  24
HETATM   24  C   UNL     1       6.326  28.156  56.079  1.00  0.00     0.066 A 
HETATM   25  O   UNL     1       7.431  28.596  55.409  1.00  0.00    -0.326 OA
HETATM   26  C   UNL     1       8.452  28.622  56.304  1.00  0.00     0.142 A 
HETATM   27  C   UNL     1       8.014  28.231  57.547  1.00  0.00     0.027 A 
HETATM   28  C   UNL     1       6.636  27.934  57.405  1.00  0.00     0.035 A 
ENDBRANCH   8  24
BRANCH   9  29
HETATM   29  C   UNL     1       5.578  25.901  53.815  1.00  0.00     0.255 C 
HETATM   30  N   UNL     1       6.827  25.482  54.218  1.00  0.00    -0.323 N 
HETATM   31  H   UNL     1       7.471  26.159  54.606  1.00  0.00     0.169 HD
HETATM   32  O   UNL     1       4.679  25.146  53.457  1.00  0.00    -0.268 OA
BRANCH  30  33
HETATM   33  C   UNL     1       7.352  24.171  54.152  1.00  0.00     0.035 A 
HETATM   34  C   UNL     1       7.543  23.343  55.260  1.00  0.00     0.045 A 
HETATM   35  C   UNL     1       8.039  22.035  55.110  1.00  0.00     0.050 A 
HETATM   36  C   UNL     1       8.370  21.573  53.827  1.00  0.00     0.016 A 
HETATM   37  C   UNL     1       8.184  22.392  52.717  1.00  0.00     0.003 A 
HETATM   38  C   UNL     1       7.669  23.679  52.878  1.00  0.00     0.029 A 
BRANCH  35  39
HETATM   39  C   UNL     1       8.235  21.150  56.315  1.00  0.00     0.417 C 
HETATM   40  F   UNL     1       7.260  20.210  56.463  1.00  0.00    -0.166 F 
HETATM   41  F   UNL     1       9.409  20.457  56.276  1.00  0.00    -0.166 F 
HETATM   42  F   UNL     1       8.259  21.855  57.480  1.00  0.00    -0.166 F 
ENDBRANCH  35  39
ENDBRANCH  30  33
ENDBRANCH   9  29
TORSDOF 9
ENDMDL
