MODEL 1
REMARK VINA RESULT:      -9.8      0.000      0.000
REMARK  3 active torsions:
REMARK  status: ('A' for Active; 'I' for Inactive)
REMARK    1  A    between atoms: C_4  and  C_5 
REMARK    2  A    between atoms: C_9  and  N_10 
REMARK       I    between atoms: N_10  and  C_11 
REMARK    3  A    between atoms: C_11  and  C_12 
ROOT
HETATM    1  C   UNL     1       6.592  25.078  52.689  1.00  0.00     0.090 A 
HETATM    2  N   UNL     1       6.862  26.396  52.654  1.00  0.00    -0.173 NA
HETATM    3  N   UNL     1       6.019  26.891  51.735  1.00  0.00    -0.262 N 
HETATM    4  H   UNL     1       6.034  27.887  51.524  1.00  0.00     0.191 HD
HETATM    5  C   UNL     1       5.196  25.950  51.179  1.00  0.00     0.126 A 
HETATM    6  C   UNL     1       5.546  24.762  51.772  1.00  0.00     0.084 A 
ENDROOT
BRANCH   5   7
HETATM    7  N   UNL     1       4.236  26.218  50.229  1.00  0.00    -0.306 N 
HETATM    8  C   UNL     1       4.384  27.228  49.292  1.00  0.00     0.281 C 
HETATM    9  O   UNL     1       5.348  27.971  49.195  1.00  0.00    -0.265 OA
HETATM   10  H   UNL     1       3.364  25.695  50.216  1.00  0.00     0.170 HD
BRANCH   8  11
HETATM   11  C   UNL     1       3.176  27.352  48.364  1.00  0.00     0.193 A 
HETATM   12  N   UNL     1       2.477  28.458  48.474  1.00  0.00    -0.241 NA
HETATM   13  C   UNL     1       1.385  28.631  47.647  1.00  0.00     0.054 A 
HETATM   14  C   UNL     1       0.653  29.932  47.851  1.00  0.00     0.072 C 
HETATM   15  C   UNL     1       0.993  27.724  46.724  1.00  0.00     0.033 A 
HETATM   16  C   UNL     1      -0.180  27.867  45.797  1.00  0.00     0.070 C 
HETATM   17  N   UNL     1       1.702  26.556  46.596  1.00  0.00    -0.324 N 
HETATM   18  C   UNL     1       2.797  26.260  47.369  1.00  0.00     0.280 A 
HETATM   19  H   UNL     1       1.430  25.851  45.921  1.00  0.00     0.169 HD
HETATM   20  O   UNL     1       3.407  25.209  47.273  1.00  0.00    -0.265 OA
ENDBRANCH   8  11
ENDBRANCH   5   7
BRANCH   1  21
HETATM   21  C   UNL     1       7.315  24.172  53.590  1.00  0.00    -0.005 A 
HETATM   22  C   UNL     1       7.665  22.882  53.160  1.00  0.00     0.020 A 
HETATM   23  C   UNL     1       8.365  22.003  53.998  1.00  0.00    -0.061 A 
HETATM   24  C   UNL     1       8.736  20.627  53.530  1.00  0.00     0.048 C 
HETATM   25  C   UNL     1       8.710  22.422  55.288  1.00  0.00     0.013 A 
HETATM   26  C   UNL     1       8.366  23.700  55.743  1.00  0.00    -0.061 A 
HETATM   27  C   UNL     1       7.670  24.568  54.888  1.00  0.00     0.020 A 
HETATM   28  C   UNL     1       8.736  24.120  57.135  1.00  0.00     0.048 C 
ENDBRANCH   1  21
TORSDOF 3
ENDMDL
MODEL 2
REMARK VINA RESULT:      -9.7      7.272     11.103
REMARK  3 active torsions:
REMARK  status: ('A' for Active; 'I' for Inactive)
REMARK    1  A    between atoms: C_4  and  C_5 
REMARK    2  A    between atoms: C_9  and  N_10 
REMARK       I    between atoms: N_10  and  C_11 
REMARK    3  A    between atoms: C_11  and  C_12 
ROOT
HETATM    1  C   UNL     1       7.537  27.358  56.167  1.00  0.00     0.090 A 
HETATM    2  N   UNL     1       7.487  28.541  55.528  1.00  0.00    -0.173 NA
HETATM    3  N   UNL     1       7.413  29.454  56.508  1.00  0.00    -0.262 N 
HETATM    4  H   UNL     1       7.362  30.442  56.270  1.00  0.00     0.191 HD
HETATM    5  C   UNL     1       7.427  28.914  57.765  1.00  0.00     0.126 A 
HETATM    6  C   UNL     1       7.501  27.556  57.579  1.00  0.00     0.084 A 
ENDROOT
BRANCH   5   7
HETATM    7  N   UNL     1       7.380  29.650  58.928  1.00  0.00    -0.306 N 
HETATM    8  C   UNL     1       8.380  30.541  59.281  1.00  0.00     0.281 C 
HETATM    9  O   UNL     1       9.383  30.778  58.626  1.00  0.00    -0.265 OA
HETATM   10  H   UNL     1       6.613  29.527  59.585  1.00  0.00     0.170 HD
BRANCH   8  11
HETATM   11  C   UNL     1       8.119  31.217  60.627  1.00  0.00     0.193 A 
HETATM   12  N   UNL     1       7.244  32.195  60.620  1.00  0.00    -0.241 NA
HETATM   13  C   UNL     1       6.957  32.830  61.812  1.00  0.00     0.054 A 
HETATM   14  C   UNL     1       5.940  33.936  61.696  1.00  0.00     0.072 C 
HETATM   15  C   UNL     1       7.526  32.499  62.993  1.00  0.00     0.033 A 
HETATM   16  C   UNL     1       7.243  33.152  64.316  1.00  0.00     0.070 C 
HETATM   17  N   UNL     1       8.451  31.485  63.025  1.00  0.00    -0.324 N 
HETATM   18  C   UNL     1       8.831  30.788  61.905  1.00  0.00     0.280 A 
HETATM   19  H   UNL     1       8.904  31.219  63.891  1.00  0.00     0.169 HD
HETATM   20  O   UNL     1       9.675  29.908  61.932  1.00  0.00    -0.265 OA
ENDBRANCH   8  11
ENDBRANCH   5   7
BRANCH   1  21
HETATM   21  C   UNL     1       7.627  26.092  55.430  1.00  0.00    -0.005 A 
HETATM   22  C   UNL     1       7.835  24.886  56.120  1.00  0.00     0.020 A 
HETATM   23  C   UNL     1       7.914  23.664  55.439  1.00  0.00    -0.061 A 
HETATM   24  C   UNL     1       8.135  22.381  56.184  1.00  0.00     0.048 C 
HETATM   25  C   UNL     1       7.793  23.653  54.045  1.00  0.00     0.013 A 
HETATM   26  C   UNL     1       7.593  24.841  53.333  1.00  0.00    -0.061 A 
HETATM   27  C   UNL     1       7.511  26.055  54.033  1.00  0.00     0.020 A 
HETATM   28  C   UNL     1       7.480  24.803  51.837  1.00  0.00     0.048 C 
ENDBRANCH   1  21
TORSDOF 3
ENDMDL
MODEL 3
REMARK VINA RESULT:      -9.3      1.433      2.726
REMARK  3 active torsions:
REMARK  status: ('A' for Active; 'I' for Inactive)
REMARK    1  A    between atoms: C_4  and  C_5 
REMARK    2  A    between atoms: C_9  and  N_10 
REMARK       I    between atoms: N_10  and  C_11 
REMARK    3  A    between atoms: C_11  and  C_12 
ROOT
HETATM    1  C   UNL     1       6.107  24.784  52.985  1.00  0.00     0.090 A 
HETATM    2  N   UNL     1       4.838  24.868  53.426  1.00  0.00    -0.173 NA
HETATM    3  N   UNL     1       4.245  25.735  52.591  1.00  0.00    -0.262 N 
HETATM    4  H   UNL     1       3.264  25.969  52.725  1.00  0.00     0.191 HD
HETATM    5  C   UNL     1       5.073  26.210  51.612  1.00  0.00     0.126 A 
HETATM    6  C   UNL     1       6.290  25.617  51.841  1.00  0.00     0.084 A 
ENDROOT
BRANCH   5   7
HETATM    7  N   UNL     1       4.688  27.095  50.628  1.00  0.00    -0.306 N 
HETATM    8  C   UNL     1       4.076  26.679  49.458  1.00  0.00     0.281 C 
HETATM    9  O   UNL     1       3.809  25.523  49.167  1.00  0.00    -0.265 OA
HETATM   10  H   UNL     1       4.880  28.089  50.726  1.00  0.00     0.170 HD
BRANCH   8  11
HETATM   11  C   UNL     1       3.770  27.838  48.509  1.00  0.00     0.193 A 
HETATM   12  N   UNL     1       2.590  27.813  47.934  1.00  0.00    -0.241 NA
HETATM   13  C   UNL     1       2.253  28.845  47.080  1.00  0.00     0.054 A 
HETATM   14  C   UNL     1       0.879  28.723  46.473  1.00  0.00     0.072 C 
HETATM   15  C   UNL     1       3.070  29.886  46.803  1.00  0.00     0.033 A 
HETATM   16  C   UNL     1       2.749  31.035  45.890  1.00  0.00     0.070 C 
HETATM   17  N   UNL     1       4.312  29.930  47.386  1.00  0.00    -0.324 N 
HETATM   18  C   UNL     1       4.769  28.958  48.241  1.00  0.00     0.280 A 
HETATM   19  H   UNL     1       4.953  30.690  47.193  1.00  0.00     0.169 HD
HETATM   20  O   UNL     1       5.884  28.984  48.733  1.00  0.00    -0.265 OA
ENDBRANCH   8  11
ENDBRANCH   5   7
BRANCH   1  21
HETATM   21  C   UNL     1       7.092  23.918  53.644  1.00  0.00    -0.005 A 
HETATM   22  C   UNL     1       7.674  24.310  54.860  1.00  0.00     0.020 A 
HETATM   23  C   UNL     1       8.608  23.495  55.514  1.00  0.00    -0.061 A 
HETATM   24  C   UNL     1       9.224  23.921  56.813  1.00  0.00     0.048 C 
HETATM   25  C   UNL     1       8.971  22.274  54.933  1.00  0.00     0.013 A 
HETATM   26  C   UNL     1       8.410  21.864  53.718  1.00  0.00    -0.061 A 
HETATM   27  C   UNL     1       7.472  22.691  53.081  1.00  0.00     0.020 A 
HETATM   28  C   UNL     1       8.826  20.556  53.110  1.00  0.00     0.048 C 
ENDBRANCH   1  21
TORSDOF 3
ENDMDL
MODEL 4
REMARK VINA RESULT:      -9.3      6.912      9.522
REMARK  3 active torsions:
REMARK  status: ('A' for Active; 'I' for Inactive)
REMARK    1  A    between atoms: C_4  and  C_5 
REMARK    2  A    between atoms: C_9  and  N_10 
REMARK       I    between atoms: N_10  and  C_11 
REMARK    3  A    between atoms: C_11  and  C_12 
ROOT
HETATM    1  C   UNL     1       7.541  24.810  55.548  1.00  0.00     0.090 A 
HETATM    2  N   UNL     1       7.156  25.645  54.565  1.00  0.00    -0.173 NA
HETATM    3  N   UNL     1       6.985  26.829  55.172  1.00  0.00    -0.262 N 
HETATM    4  H   UNL     1       6.686  27.634  54.626  1.00  0.00     0.191 HD
HETATM    5  C   UNL     1       7.258  26.805  56.512  1.00  0.00     0.126 A 
HETATM    6  C   UNL     1       7.617  25.509  56.789  1.00  0.00     0.084 A 
ENDROOT
BRANCH   5   7
HETATM    7  N   UNL     1       7.174  27.900  57.344  1.00  0.00    -0.306 N 
HETATM    8  C   UNL     1       8.256  28.728  57.588  1.00  0.00     0.281 C 
HETATM    9  O   UNL     1       9.373  28.597  57.111  1.00  0.00    -0.265 OA
HETATM   10  H   UNL     1       6.307  28.109  57.834  1.00  0.00     0.170 HD
BRANCH   8  11
HETATM   11  C   UNL     1       7.926  29.857  58.564  1.00  0.00     0.193 A 
HETATM   12  N   UNL     1       8.641  29.893  59.665  1.00  0.00    -0.241 NA
HETATM   13  C   UNL     1       8.397  30.903  60.575  1.00  0.00     0.054 A 
HETATM   14  C   UNL     1       9.270  30.856  61.802  1.00  0.00     0.072 C 
HETATM   15  C   UNL     1       7.462  31.863  60.396  1.00  0.00     0.033 A 
HETATM   16  C   UNL     1       7.163  32.985  61.349  1.00  0.00     0.070 C 
HETATM   17  N   UNL     1       6.696  31.842  59.257  1.00  0.00    -0.324 N 
HETATM   18  C   UNL     1       6.832  30.882  58.285  1.00  0.00     0.280 A 
HETATM   19  H   UNL     1       5.979  32.540  59.096  1.00  0.00     0.169 HD
HETATM   20  O   UNL     1       6.130  30.848  57.289  1.00  0.00    -0.265 OA
ENDBRANCH   8  11
ENDBRANCH   5   7
BRANCH   1  21
HETATM   21  C   UNL     1       7.835  23.397  55.282  1.00  0.00    -0.005 A 
HETATM   22  C   UNL     1       8.258  22.556  56.324  1.00  0.00     0.020 A 
HETATM   23  C   UNL     1       8.533  21.201  56.097  1.00  0.00    -0.061 A 
HETATM   24  C   UNL     1       8.984  20.309  57.216  1.00  0.00     0.048 C 
HETATM   25  C   UNL     1       8.392  20.685  54.804  1.00  0.00     0.013 A 
HETATM   26  C   UNL     1       7.979  21.504  53.746  1.00  0.00    -0.061 A 
HETATM   27  C   UNL     1       7.702  22.858  53.994  1.00  0.00     0.020 A 
HETATM   28  C   UNL     1       7.848  20.929  52.366  1.00  0.00     0.048 C 
ENDBRANCH   1  21
TORSDOF 3
ENDMDL
MODEL 5
REMARK VINA RESULT:      -9.3      2.447      2.840
REMARK  3 active torsions:
REMARK  status: ('A' for Active; 'I' for Inactive)
REMARK    1  A    between atoms: C_4  and  C_5 
REMARK    2  A    between atoms: C_9  and  N_10 
REMARK       I    between atoms: N_10  and  C_11 
REMARK    3  A    between atoms: C_11  and  C_12 
ROOT
HETATM    1  C   UNL     1       6.322  24.633  52.644  1.00  0.00     0.090 A 
HETATM    2  N   UNL     1       4.979  24.548  52.610  1.00  0.00    -0.173 NA
HETATM    3  N   UNL     1       4.600  25.495  51.740  1.00  0.00    -0.262 N 
HETATM    4  H   UNL     1       3.610  25.629  51.544  1.00  0.00     0.191 HD
HETATM    5  C   UNL     1       5.644  26.187  51.190  1.00  0.00     0.126 A 
HETATM    6  C   UNL     1       6.775  25.656  51.759  1.00  0.00     0.084 A 
ENDROOT
BRANCH   5   7
HETATM    7  N   UNL     1       5.508  27.192  50.258  1.00  0.00    -0.306 N 
HETATM    8  C   UNL     1       4.651  28.263  50.445  1.00  0.00     0.281 C 
HETATM    9  O   UNL     1       3.942  28.443  51.424  1.00  0.00    -0.265 OA
HETATM   10  H   UNL     1       6.017  27.152  49.378  1.00  0.00     0.170 HD
BRANCH   8  11
HETATM   11  C   UNL     1       4.651  29.233  49.263  1.00  0.00     0.193 A 
HETATM   12  N   UNL     1       5.079  30.447  49.517  1.00  0.00    -0.241 NA
HETATM   13  C   UNL     1       5.117  31.360  48.481  1.00  0.00     0.054 A 
HETATM   14  C   UNL     1       5.625  32.723  48.875  1.00  0.00     0.072 C 
HETATM   15  C   UNL     1       4.739  31.073  47.215  1.00  0.00     0.033 A 
HETATM   16  C   UNL     1       4.769  32.026  46.053  1.00  0.00     0.070 C 
HETATM   17  N   UNL     1       4.279  29.812  46.927  1.00  0.00    -0.324 N 
HETATM   18  C   UNL     1       4.180  28.822  47.873  1.00  0.00     0.280 A 
HETATM   19  H   UNL     1       3.979  29.567  45.992  1.00  0.00     0.169 HD
HETATM   20  O   UNL     1       3.743  27.712  47.621  1.00  0.00    -0.265 OA
ENDBRANCH   8  11
ENDBRANCH   5   7
BRANCH   1  21
HETATM   21  C   UNL     1       7.125  23.745  53.492  1.00  0.00    -0.005 A 
HETATM   22  C   UNL     1       7.584  22.515  52.993  1.00  0.00     0.020 A 
HETATM   23  C   UNL     1       8.361  21.656  53.781  1.00  0.00    -0.061 A 
HETATM   24  C   UNL     1       8.847  20.345  53.238  1.00  0.00     0.048 C 
HETATM   25  C   UNL     1       8.673  22.031  55.092  1.00  0.00     0.013 A 
HETATM   26  C   UNL     1       8.223  23.248  55.617  1.00  0.00    -0.061 A 
HETATM   27  C   UNL     1       7.450  24.098  54.810  1.00  0.00     0.020 A 
HETATM   28  C   UNL     1       8.561  23.621  57.030  1.00  0.00     0.048 C 
ENDBRANCH   1  21
TORSDOF 3
ENDMDL
MODEL 6
REMARK VINA RESULT:      -9.2      7.307     10.633
REMARK  3 active torsions:
REMARK  status: ('A' for Active; 'I' for Inactive)
REMARK    1  A    between atoms: C_4  and  C_5 
REMARK    2  A    between atoms: C_9  and  N_10 
REMARK       I    between atoms: N_10  and  C_11 
REMARK    3  A    between atoms: C_11  and  C_12 
ROOT
HETATM    1  C   UNL     1       7.183  27.725  56.030  1.00  0.00     0.090 A 
HETATM    2  N   UNL     1       7.147  28.812  55.237  1.00  0.00    -0.173 NA
HETATM    3  N   UNL     1       6.861  29.827  56.065  1.00  0.00    -0.262 N 
HETATM    4  H   UNL     1       6.777  30.771  55.692  1.00  0.00     0.191 HD
HETATM    5  C   UNL     1       6.723  29.450  57.372  1.00  0.00     0.126 A 
HETATM    6  C   UNL     1       6.920  28.091  57.383  1.00  0.00     0.084 A 
ENDROOT
BRANCH   5   7
HETATM    7  N   UNL     1       6.448  30.315  58.408  1.00  0.00    -0.306 N 
HETATM    8  C   UNL     1       7.368  31.246  58.858  1.00  0.00     0.281 C 
HETATM    9  O   UNL     1       8.490  31.412  58.405  1.00  0.00    -0.265 OA
HETATM   10  H   UNL     1       5.558  30.264  58.899  1.00  0.00     0.170 HD
BRANCH   8  11
HETATM   11  C   UNL     1       6.845  32.072  60.033  1.00  0.00     0.193 A 
HETATM   12  N   UNL     1       7.555  32.017  61.136  1.00  0.00    -0.241 NA
HETATM   13  C   UNL     1       7.138  32.757  62.224  1.00  0.00     0.054 A 
HETATM   14  C   UNL     1       8.022  32.626  63.438  1.00  0.00     0.072 C 
HETATM   15  C   UNL     1       6.038  33.542  62.219  1.00  0.00     0.033 A 
HETATM   16  C   UNL     1       5.546  34.371  63.372  1.00  0.00     0.070 C 
HETATM   17  N   UNL     1       5.274  33.610  61.081  1.00  0.00    -0.324 N 
HETATM   18  C   UNL     1       5.575  32.910  59.939  1.00  0.00     0.280 A 
HETATM   19  H   UNL     1       4.437  34.180  61.046  1.00  0.00     0.169 HD
HETATM   20  O   UNL     1       4.878  32.949  58.939  1.00  0.00    -0.265 OA
ENDBRANCH   8  11
ENDBRANCH   5   7
BRANCH   1  21
HETATM   21  C   UNL     1       7.473  26.392  55.489  1.00  0.00    -0.005 A 
HETATM   22  C   UNL     1       7.462  26.174  54.102  1.00  0.00     0.020 A 
HETATM   23  C   UNL     1       7.747  24.912  53.563  1.00  0.00    -0.061 A 
HETATM   24  C   UNL     1       7.733  24.689  52.080  1.00  0.00     0.048 C 
HETATM   25  C   UNL     1       8.037  23.852  54.429  1.00  0.00     0.013 A 
HETATM   26  C   UNL     1       8.048  24.041  55.816  1.00  0.00    -0.061 A 
HETATM   27  C   UNL     1       7.766  25.313  56.337  1.00  0.00     0.020 A 
HETATM   28  C   UNL     1       8.350  22.884  56.723  1.00  0.00     0.048 C 
ENDBRANCH   1  21
TORSDOF 3
ENDMDL
MODEL 7
REMARK VINA RESULT:      -8.9      2.597      9.314
REMARK  3 active torsions:
REMARK  status: ('A' for Active; 'I' for Inactive)
REMARK    1  A    between atoms: C_4  and  C_5 
REMARK    2  A    between atoms: C_9  and  N_10 
REMARK       I    between atoms: N_10  and  C_11 
REMARK    3  A    between atoms: C_11  and  C_12 
ROOT
HETATM    1  C   UNL     1       4.686  27.700  50.156  1.00  0.00     0.090 A 
HETATM    2  N   UNL     1       5.378  28.484  51.003  1.00  0.00    -0.173 NA
HETATM    3  N   UNL     1       5.867  27.641  51.924  1.00  0.00    -0.262 N 
HETATM    4  H   UNL     1       6.434  28.005  52.687  1.00  0.00     0.191 HD
HETATM    5  C   UNL     1       5.534  26.332  51.705  1.00  0.00     0.126 A 
HETATM    6  C   UNL     1       4.763  26.337  50.568  1.00  0.00     0.084 A 
ENDROOT
BRANCH   5   7
HETATM    7  N   UNL     1       5.933  25.282  52.502  1.00  0.00    -0.306 N 
HETATM    8  C   UNL     1       7.256  24.884  52.592  1.00  0.00     0.281 C 
HETATM    9  O   UNL     1       8.194  25.398  52.002  1.00  0.00    -0.265 OA
HETATM   10  H   UNL     1       5.247  24.743  53.025  1.00  0.00     0.170 HD
BRANCH   8  11
HETATM   11  C   UNL     1       7.448  23.681  53.516  1.00  0.00     0.193 A 
HETATM   12  N   UNL     1       7.907  22.589  52.950  1.00  0.00    -0.241 NA
HETATM   13  C   UNL     1       8.116  21.477  53.741  1.00  0.00     0.054 A 
HETATM   14  C   UNL     1       8.645  20.278  52.997  1.00  0.00     0.072 C 
HETATM   15  C   UNL     1       7.877  21.447  55.071  1.00  0.00     0.033 A 
HETATM   16  C   UNL     1       8.094  20.268  55.976  1.00  0.00     0.070 C 
HETATM   17  N   UNL     1       7.388  22.574  55.684  1.00  0.00    -0.324 N 
HETATM   18  C   UNL     1       7.125  23.738  55.004  1.00  0.00     0.280 A 
HETATM   19  H   UNL     1       7.188  22.583  56.677  1.00  0.00     0.169 HD
HETATM   20  O   UNL     1       6.663  24.727  55.546  1.00  0.00    -0.265 OA
ENDBRANCH   8  11
ENDBRANCH   5   7
BRANCH   1  21
HETATM   21  C   UNL     1       3.991  28.259  48.990  1.00  0.00    -0.005 A 
HETATM   22  C   UNL     1       2.750  27.738  48.591  1.00  0.00     0.020 A 
HETATM   23  C   UNL     1       2.063  28.261  47.487  1.00  0.00    -0.061 A 
HETATM   24  C   UNL     1       0.737  27.699  47.069  1.00  0.00     0.048 C 
HETATM   25  C   UNL     1       2.636  29.316  46.768  1.00  0.00     0.013 A 
HETATM   26  C   UNL     1       3.876  29.849  47.140  1.00  0.00    -0.061 A 
HETATM   27  C   UNL     1       4.546  29.315  48.251  1.00  0.00     0.020 A 
HETATM   28  C   UNL     1       4.474  30.971  46.343  1.00  0.00     0.048 C 
ENDBRANCH   1  21
TORSDOF 3
ENDMDL
MODEL 8
REMARK VINA RESULT:      -8.8      6.927     10.441
REMARK  3 active torsions:
REMARK  status: ('A' for Active; 'I' for Inactive)
REMARK    1  A    between atoms: C_4  and  C_5 
REMARK    2  A    between atoms: C_9  and  N_10 
REMARK       I    between atoms: N_10  and  C_11 
REMARK    3  A    between atoms: C_11  and  C_12 
ROOT
HETATM    1  C   UNL     1       8.003  30.688  59.228  1.00  0.00     0.090 A 
HETATM    2  N   UNL     1       9.316  30.696  58.935  1.00  0.00    -0.173 NA
HETATM    3  N   UNL     1       9.470  29.716  58.033  1.00  0.00    -0.262 N 
HETATM    4  H   UNL     1      10.394  29.523  57.654  1.00  0.00     0.191 HD
HETATM    5  C   UNL     1       8.304  29.076  57.712  1.00  0.00     0.126 A 
HETATM    6  C   UNL     1       7.334  29.678  58.474  1.00  0.00     0.084 A 
ENDROOT
BRANCH   5   7
HETATM    7  N   UNL     1       8.205  28.050  56.798  1.00  0.00    -0.306 N 
HETATM    8  C   UNL     1       7.934  26.746  57.176  1.00  0.00     0.281 C 
HETATM    9  O   UNL     1       7.752  26.361  58.321  1.00  0.00    -0.265 OA
HETATM   10  H   UNL     1       8.367  28.224  55.809  1.00  0.00     0.170 HD
BRANCH   8  11
HETATM   11  C   UNL     1       7.901  25.782  55.989  1.00  0.00     0.193 A 
HETATM   12  N   UNL     1       8.377  24.580  56.212  1.00  0.00    -0.241 NA
HETATM   13  C   UNL     1       8.356  23.662  55.180  1.00  0.00     0.054 A 
HETATM   14  C   UNL     1       8.923  22.313  55.538  1.00  0.00     0.072 C 
HETATM   15  C   UNL     1       7.870  23.932  53.948  1.00  0.00     0.033 A 
HETATM   16  C   UNL     1       7.817  22.970  52.795  1.00  0.00     0.070 C 
HETATM   17  N   UNL     1       7.374  25.186  53.688  1.00  0.00    -0.324 N 
HETATM   18  C   UNL     1       7.353  26.188  54.626  1.00  0.00     0.280 A 
HETATM   19  H   UNL     1       7.011  25.424  52.773  1.00  0.00     0.169 HD
HETATM   20  O   UNL     1       6.940  27.309  54.383  1.00  0.00    -0.265 OA
ENDBRANCH   8  11
ENDBRANCH   5   7
BRANCH   1  21
HETATM   21  C   UNL     1       7.426  31.633  60.192  1.00  0.00    -0.005 A 
HETATM   22  C   UNL     1       6.306  32.404  59.841  1.00  0.00     0.020 A 
HETATM   23  C   UNL     1       5.732  33.305  60.747  1.00  0.00    -0.061 A 
HETATM   24  C   UNL     1       4.535  34.124  60.365  1.00  0.00     0.048 C 
HETATM   25  C   UNL     1       6.296  33.441  62.021  1.00  0.00     0.013 A 
HETATM   26  C   UNL     1       7.417  32.689  62.393  1.00  0.00    -0.061 A 
HETATM   27  C   UNL     1       7.975  31.788  61.473  1.00  0.00     0.020 A 
HETATM   28  C   UNL     1       8.010  32.863  63.761  1.00  0.00     0.048 C 
ENDBRANCH   1  21
TORSDOF 3
ENDMDL
MODEL 9
REMARK VINA RESULT:      -8.7      1.695      2.588
REMARK  3 active torsions:
REMARK  status: ('A' for Active; 'I' for Inactive)
REMARK    1  A    between atoms: C_4  and  C_5 
REMARK    2  A    between atoms: C_9  and  N_10 
REMARK       I    between atoms: N_10  and  C_11 
REMARK    3  A    between atoms: C_11  and  C_12 
ROOT
HETATM    1  C   UNL     1       7.012  24.996  53.031  1.00  0.00     0.090 A 
HETATM    2  N   UNL     1       7.142  26.189  53.639  1.00  0.00    -0.173 NA
HETATM    3  N   UNL     1       6.597  27.068  52.784  1.00  0.00    -0.262 N 
HETATM    4  H   UNL     1       6.578  28.056  53.025  1.00  0.00     0.191 HD
HETATM    5  C   UNL     1       6.101  26.493  51.646  1.00  0.00     0.126 A 
HETATM    6  C   UNL     1       6.359  25.150  51.772  1.00  0.00     0.084 A 
ENDROOT
BRANCH   5   7
HETATM    7  N   UNL     1       5.479  27.186  50.631  1.00  0.00    -0.306 N 
HETATM    8  C   UNL     1       4.417  28.044  50.863  1.00  0.00     0.281 C 
HETATM    9  O   UNL     1       3.925  28.285  51.955  1.00  0.00    -0.265 OA
HETATM   10  H   UNL     1       5.769  27.055  49.665  1.00  0.00     0.170 HD
BRANCH   8  11
HETATM   11  C   UNL     1       3.877  28.675  49.580  1.00  0.00     0.193 A 
HETATM   12  N   UNL     1       3.901  29.986  49.530  1.00  0.00    -0.241 NA
HETATM   13  C   UNL     1       3.440  30.609  48.387  1.00  0.00     0.054 A 
HETATM   14  C   UNL     1       3.511  32.114  48.429  1.00  0.00     0.072 C 
HETATM   15  C   UNL     1       2.967  29.943  47.310  1.00  0.00     0.033 A 
HETATM   16  C   UNL     1       2.463  30.571  46.042  1.00  0.00     0.070 C 
HETATM   17  N   UNL     1       2.924  28.571  47.341  1.00  0.00    -0.324 N 
HETATM   18  C   UNL     1       3.339  27.838  48.425  1.00  0.00     0.280 A 
HETATM   19  H   UNL     1       2.566  28.042  46.556  1.00  0.00     0.169 HD
HETATM   20  O   UNL     1       3.271  26.621  48.462  1.00  0.00    -0.265 OA
ENDBRANCH   8  11
ENDBRANCH   5   7
BRANCH   1  21
HETATM   21  C   UNL     1       7.492  23.759  53.659  1.00  0.00    -0.005 A 
HETATM   22  C   UNL     1       7.692  23.704  55.047  1.00  0.00     0.020 A 
HETATM   23  C   UNL     1       8.140  22.532  55.671  1.00  0.00    -0.061 A 
HETATM   24  C   UNL     1       8.350  22.482  57.155  1.00  0.00     0.048 C 
HETATM   25  C   UNL     1       8.400  21.401  54.888  1.00  0.00     0.013 A 
HETATM   26  C   UNL     1       8.216  21.432  53.500  1.00  0.00    -0.061 A 
HETATM   27  C   UNL     1       7.761  22.614  52.895  1.00  0.00     0.020 A 
HETATM   28  C   UNL     1       8.514  20.210  52.682  1.00  0.00     0.048 C 
ENDBRANCH   1  21
TORSDOF 3
ENDMDL
MODEL 10
REMARK VINA RESULT:      -8.7      7.028     10.722
REMARK  3 active torsions:
REMARK  status: ('A' for Active; 'I' for Inactive)
REMARK    1  A    between atoms: C_4  and  C_5 
REMARK    2  A    between atoms: C_9  and  N_10 
REMARK       I    between atoms: N_10  and  C_11 
REMARK    3  A    between atoms: C_11  and  C_12 
ROOT
HETATM    1  C   UNL     1       6.121  28.096  55.114  1.00  0.00     0.090 A 
HETATM    2  N   UNL     1       5.245  29.106  54.968  1.00  0.00    -0.173 NA
HETATM    3  N   UNL     1       5.363  29.823  56.096  1.00  0.00    -0.262 N 
HETATM    4  H   UNL     1       4.789  30.654  56.225  1.00  0.00     0.191 HD
HETATM    5  C   UNL     1       6.293  29.329  56.968  1.00  0.00     0.126 A 
HETATM    6  C   UNL     1       6.800  28.205  56.363  1.00  0.00     0.084 A 
ENDROOT
BRANCH   5   7
HETATM    7  N   UNL     1       6.605  29.901  58.181  1.00  0.00    -0.306 N 
HETATM    8  C   UNL     1       6.553  31.269  58.389  1.00  0.00     0.281 C 
HETATM    9  O   UNL     1       6.231  32.103  57.555  1.00  0.00    -0.265 OA
HETATM   10  H   UNL     1       6.921  29.324  58.957  1.00  0.00     0.170 HD
BRANCH   8  11
HETATM   11  C   UNL     1       6.969  31.668  59.805  1.00  0.00     0.193 A 
HETATM   12  N   UNL     1       6.299  32.659  60.344  1.00  0.00    -0.241 NA
HETATM   13  C   UNL     1       6.622  33.049  61.629  1.00  0.00     0.054 A 
HETATM   14  C   UNL     1       5.793  34.192  62.156  1.00  0.00     0.072 C 
HETATM   15  C   UNL     1       7.591  32.465  62.368  1.00  0.00     0.033 A 
HETATM   16  C   UNL     1       7.975  32.846  63.769  1.00  0.00     0.070 C 
HETATM   17  N   UNL     1       8.313  31.432  61.823  1.00  0.00    -0.324 N 
HETATM   18  C   UNL     1       8.097  30.963  60.551  1.00  0.00     0.280 A 
HETATM   19  H   UNL     1       9.053  30.979  62.345  1.00  0.00     0.169 HD
HETATM   20  O   UNL     1       8.759  30.065  60.058  1.00  0.00    -0.265 OA
ENDBRANCH   8  11
ENDBRANCH   5   7
BRANCH   1  21
HETATM   21  C   UNL     1       6.296  27.076  54.072  1.00  0.00    -0.005 A 
HETATM   22  C   UNL     1       7.120  25.964  54.304  1.00  0.00     0.020 A 
HETATM   23  C   UNL     1       7.294  24.972  53.329  1.00  0.00    -0.061 A 
HETATM   24  C   UNL     1       8.176  23.787  53.585  1.00  0.00     0.048 C 
HETATM   25  C   UNL     1       6.638  25.105  52.100  1.00  0.00     0.013 A 
HETATM   26  C   UNL     1       5.815  26.208  51.841  1.00  0.00    -0.061 A 
HETATM   27  C   UNL     1       5.650  27.188  52.832  1.00  0.00     0.020 A 
HETATM   28  C   UNL     1       5.134  26.333  50.510  1.00  0.00     0.048 C 
ENDBRANCH   1  21
TORSDOF 3
ENDMDL
