MODEL 1
REMARK VINA RESULT:     -10.3      0.000      0.000
REMARK  8 active torsions:
REMARK  status: ('A' for Active; 'I' for Inactive)
REMARK    1  A    between atoms: C_4  and  C_5 
REMARK       I    between atoms: C_5  and  N_6 
REMARK    2  A    between atoms: N_6  and  C_7 
REMARK    3  A    between atoms: C_7  and  C_8 
REMARK    4  A    between atoms: C_8  and  C_9 
REMARK       I    between atoms: C_9  and  N_10 
REMARK    5  A    between atoms: N_10  and  N_11 
REMARK       I    between atoms: N_11  and  C_12 
REMARK    6  A    between atoms: C_12  and  C_13 
REMARK    7  A    between atoms: N_15  and  C_16 
REMARK    8  A    between atoms: C_24  and  O_25 
ROOT
HETATM    1  N   UNL     1       7.821  28.260  55.434  1.00  0.00    -0.262 N 
HETATM    2  C   UNL     1       8.318  27.903  56.676  1.00  0.00     0.293 C 
HETATM    3  O   UNL     1       8.339  26.733  57.056  1.00  0.00    -0.264 OA
HETATM    4  H   UNL     1       7.984  29.203  55.080  1.00  0.00     0.190 HD
ENDROOT
BRANCH   1   5
HETATM    5  N   UNL     1       7.503  27.248  54.515  1.00  0.00    -0.267 N 
HETATM    6  C   UNL     1       6.676  27.577  53.458  1.00  0.00     0.237 C 
HETATM    7  O   UNL     1       6.069  28.642  53.388  1.00  0.00    -0.272 OA
HETATM    8  H   UNL     1       8.197  26.505  54.428  1.00  0.00     0.190 HD
BRANCH   6   9
HETATM    9  C   UNL     1       6.541  26.461  52.447  1.00  0.00     0.124 C 
BRANCH   9  10
HETATM   10  C   UNL     1       5.614  25.367  52.961  1.00  0.00     0.132 C 
BRANCH  10  11
HETATM   11  N   UNL     1       6.283  24.085  53.096  1.00  0.00    -0.356 N 
HETATM   12  C   UNL     1       6.845  23.678  54.288  1.00  0.00     0.251 C 
HETATM   13  O   UNL     1       6.765  24.329  55.324  1.00  0.00    -0.268 OA
HETATM   14  H   UNL     1       6.242  23.444  52.316  1.00  0.00     0.162 HD
BRANCH  12  15
HETATM   15  C   UNL     1       7.544  22.362  54.280  1.00  0.00     0.032 A 
HETATM   16  C   UNL     1       7.937  21.739  53.088  1.00  0.00     0.017 A 
HETATM   17  C   UNL     1       8.601  20.510  53.128  1.00  0.00     0.001 A 
HETATM   18  C   UNL     1       8.880  19.905  54.354  1.00  0.00     0.000 A 
HETATM   19  C   UNL     1       8.505  20.529  55.542  1.00  0.00     0.001 A 
HETATM   20  C   UNL     1       7.842  21.757  55.507  1.00  0.00     0.017 A 
ENDBRANCH  12  15
ENDBRANCH  10  11
ENDBRANCH   9  10
ENDBRANCH   6   9
ENDBRANCH   1   5
BRANCH   2  21
HETATM   21  C   UNL     1       8.806  29.045  57.461  1.00  0.00     0.181 A 
HETATM   22  N   UNL     1       8.247  29.384  58.642  1.00  0.00    -0.159 NA
HETATM   23  N   UNL     1       8.963  30.454  59.086  1.00  0.00    -0.242 N 
HETATM   24  C   UNL     1       9.945  30.816  58.189  1.00  0.00     0.158 A 
HETATM   25  C   UNL     1       9.863  29.927  57.154  1.00  0.00     0.119 A 
BRANCH  23  26
HETATM   26  C   UNL     1       8.666  31.056  60.344  1.00  0.00     0.058 A 
HETATM   27  C   UNL     1       7.964  32.272  60.381  1.00  0.00     0.033 A 
HETATM   28  C   UNL     1       7.652  32.873  61.604  1.00  0.00     0.026 A 
HETATM   29  C   UNL     1       8.040  32.263  62.795  1.00  0.00     0.034 A 
HETATM   30 CL   UNL     1       7.654  32.999  64.300  1.00  0.00    -0.084 Cl
HETATM   31  C   UNL     1       8.738  31.057  62.772  1.00  0.00     0.026 A 
HETATM   32  C   UNL     1       9.052  30.451  61.550  1.00  0.00     0.033 A 
ENDBRANCH  23  26
BRANCH  25  33
HETATM   33  O   UNL     1      10.663  29.940  56.078  1.00  0.00    -0.357 OA
HETATM   34  H   UNL     1      11.481  29.439  56.240  1.00  0.00     0.218 HD
ENDBRANCH  25  33
ENDBRANCH   2  21
TORSDOF 8
ENDMDL
MODEL 2
REMARK VINA RESULT:     -10.0      1.828      2.627
REMARK  8 active torsions:
REMARK  status: ('A' for Active; 'I' for Inactive)
REMARK    1  A    between atoms: C_4  and  C_5 
REMARK       I    between atoms: C_5  and  N_6 
REMARK    2  A    between atoms: N_6  and  C_7 
REMARK    3  A    between atoms: C_7  and  C_8 
REMARK    4  A    between atoms: C_8  and  C_9 
REMARK       I    between atoms: C_9  and  N_10 
REMARK    5  A    between atoms: N_10  and  N_11 
REMARK       I    between atoms: N_11  and  C_12 
REMARK    6  A    between atoms: C_12  and  C_13 
REMARK    7  A    between atoms: N_15  and  C_16 
REMARK    8  A    between atoms: C_24  and  O_25 
ROOT
HETATM    1  N   UNL     1       7.223  28.882  58.169  1.00  0.00    -0.262 N 
HETATM    2  C   UNL     1       8.418  29.577  58.088  1.00  0.00     0.293 C 
HETATM    3  O   UNL     1       9.278  29.294  57.255  1.00  0.00    -0.264 OA
HETATM    4  H   UNL     1       6.465  29.254  58.742  1.00  0.00     0.190 HD
ENDROOT
BRANCH   1   5
HETATM    5  N   UNL     1       6.908  27.956  57.163  1.00  0.00    -0.267 N 
HETATM    6  C   UNL     1       5.771  28.185  56.412  1.00  0.00     0.237 C 
HETATM    7  O   UNL     1       4.939  29.042  56.699  1.00  0.00    -0.272 OA
HETATM    8  H   UNL     1       7.704  27.452  56.771  1.00  0.00     0.190 HD
BRANCH   6   9
HETATM    9  C   UNL     1       5.626  27.222  55.255  1.00  0.00     0.124 C 
BRANCH   9  10
HETATM   10  C   UNL     1       6.982  26.887  54.650  1.00  0.00     0.132 C 
BRANCH  10  11
HETATM   11  N   UNL     1       7.130  25.471  54.359  1.00  0.00    -0.356 N 
HETATM   12  C   UNL     1       7.560  24.572  55.313  1.00  0.00     0.251 C 
HETATM   13  O   UNL     1       7.783  24.885  56.477  1.00  0.00    -0.268 OA
HETATM   14  H   UNL     1       6.811  25.135  53.460  1.00  0.00     0.162 HD
BRANCH  12  15
HETATM   15  C   UNL     1       7.714  23.157  54.872  1.00  0.00     0.032 A 
HETATM   16  C   UNL     1       7.762  22.097  55.786  1.00  0.00     0.017 A 
HETATM   17  C   UNL     1       7.895  20.783  55.327  1.00  0.00     0.001 A 
HETATM   18  C   UNL     1       7.972  20.525  53.958  1.00  0.00     0.000 A 
HETATM   19  C   UNL     1       7.908  21.576  53.044  1.00  0.00     0.001 A 
HETATM   20  C   UNL     1       7.775  22.889  53.498  1.00  0.00     0.017 A 
ENDBRANCH  12  15
ENDBRANCH  10  11
ENDBRANCH   9  10
ENDBRANCH   6   9
ENDBRANCH   1   5
BRANCH   2  21
HETATM   21  C   UNL     1       8.535  30.658  59.075  1.00  0.00     0.181 A 
HETATM   22  N   UNL     1       7.647  30.797  60.083  1.00  0.00    -0.159 NA
HETATM   23  N   UNL     1       8.080  31.871  60.799  1.00  0.00    -0.242 N 
HETATM   24  C   UNL     1       9.209  32.433  60.242  1.00  0.00     0.158 A 
HETATM   25  C   UNL     1       9.515  31.671  59.149  1.00  0.00     0.119 A 
BRANCH  23  26
HETATM   26  C   UNL     1       7.389  32.285  61.976  1.00  0.00     0.058 A 
HETATM   27  C   UNL     1       8.123  32.643  63.119  1.00  0.00     0.033 A 
HETATM   28  C   UNL     1       7.466  33.063  64.280  1.00  0.00     0.026 A 
HETATM   29  C   UNL     1       6.075  33.126  64.304  1.00  0.00     0.034 A 
HETATM   30 CL   UNL     1       5.266  33.646  65.730  1.00  0.00    -0.084 Cl
HETATM   31  C   UNL     1       5.336  32.772  63.178  1.00  0.00     0.026 A 
HETATM   32  C   UNL     1       5.988  32.352  62.013  1.00  0.00     0.033 A 
ENDBRANCH  23  26
BRANCH  25  33
HETATM   33  O   UNL     1      10.560  31.892  58.340  1.00  0.00    -0.357 OA
HETATM   34  H   UNL     1      10.376  31.587  57.435  1.00  0.00     0.218 HD
ENDBRANCH  25  33
ENDBRANCH   2  21
TORSDOF 8
ENDMDL
MODEL 3
REMARK VINA RESULT:      -9.9      4.466     10.465
REMARK  8 active torsions:
REMARK  status: ('A' for Active; 'I' for Inactive)
REMARK    1  A    between atoms: C_4  and  C_5 
REMARK       I    between atoms: C_5  and  N_6 
REMARK    2  A    between atoms: N_6  and  C_7 
REMARK    3  A    between atoms: C_7  and  C_8 
REMARK    4  A    between atoms: C_8  and  C_9 
REMARK       I    between atoms: C_9  and  N_10 
REMARK    5  A    between atoms: N_10  and  N_11 
REMARK       I    between atoms: N_11  and  C_12 
REMARK    6  A    between atoms: C_12  and  C_13 
REMARK    7  A    between atoms: N_15  and  C_16 
REMARK    8  A    between atoms: C_24  and  O_25 
ROOT
HETATM    1  N   UNL     1       5.145  28.759  57.829  1.00  0.00    -0.262 N 
HETATM    2  C   UNL     1       5.081  28.008  56.667  1.00  0.00     0.293 C 
HETATM    3  O   UNL     1       4.203  28.190  55.824  1.00  0.00    -0.264 OA
HETATM    4  H   UNL     1       5.980  28.708  58.413  1.00  0.00     0.190 HD
ENDROOT
BRANCH   1   5
HETATM    5  N   UNL     1       4.302  29.872  57.963  1.00  0.00    -0.267 N 
HETATM    6  C   UNL     1       4.892  31.103  58.182  1.00  0.00     0.237 C 
HETATM    7  O   UNL     1       6.084  31.237  58.445  1.00  0.00    -0.272 OA
HETATM    8  H   UNL     1       3.404  29.799  57.485  1.00  0.00     0.190 HD
BRANCH   6   9
HETATM    9  C   UNL     1       3.904  32.246  58.141  1.00  0.00     0.124 C 
BRANCH   9  10
HETATM   10  C   UNL     1       3.432  32.612  59.542  1.00  0.00     0.132 C 
BRANCH  10  11
HETATM   11  N   UNL     1       4.532  32.763  60.480  1.00  0.00    -0.356 N 
HETATM   12  C   UNL     1       4.452  32.302  61.777  1.00  0.00     0.251 C 
HETATM   13  O   UNL     1       3.489  31.679  62.210  1.00  0.00    -0.268 OA
HETATM   14  H   UNL     1       5.406  33.130  60.130  1.00  0.00     0.162 HD
BRANCH  12  15
HETATM   15  C   UNL     1       5.632  32.563  62.650  1.00  0.00     0.032 A 
HETATM   16  C   UNL     1       6.939  32.275  62.236  1.00  0.00     0.017 A 
HETATM   17  C   UNL     1       8.017  32.548  63.082  1.00  0.00     0.001 A 
HETATM   18  C   UNL     1       7.794  33.116  64.337  1.00  0.00     0.000 A 
HETATM   19  C   UNL     1       6.497  33.420  64.746  1.00  0.00     0.001 A 
HETATM   20  C   UNL     1       5.417  33.149  63.904  1.00  0.00     0.017 A 
ENDBRANCH  12  15
ENDBRANCH  10  11
ENDBRANCH   9  10
ENDBRANCH   6   9
ENDBRANCH   1   5
BRANCH   2  21
HETATM   21  C   UNL     1       6.148  27.006  56.558  1.00  0.00     0.181 A 
HETATM   22  N   UNL     1       6.042  25.944  55.731  1.00  0.00    -0.159 NA
HETATM   23  N   UNL     1       7.210  25.258  55.872  1.00  0.00    -0.242 N 
HETATM   24  C   UNL     1       8.040  25.852  56.799  1.00  0.00     0.158 A 
HETATM   25  C   UNL     1       7.383  26.967  57.240  1.00  0.00     0.119 A 
BRANCH  23  26
HETATM   26  C   UNL     1       7.460  24.084  55.104  1.00  0.00     0.058 A 
HETATM   27  C   UNL     1       7.578  24.182  53.707  1.00  0.00     0.033 A 
HETATM   28  C   UNL     1       7.835  23.044  52.936  1.00  0.00     0.026 A 
HETATM   29  C   UNL     1       7.974  21.804  53.555  1.00  0.00     0.034 A 
HETATM   30 CL   UNL     1       8.293  20.405  52.609  1.00  0.00    -0.084 Cl
HETATM   31  C   UNL     1       7.857  21.693  54.939  1.00  0.00     0.026 A 
HETATM   32  C   UNL     1       7.601  22.828  55.716  1.00  0.00     0.033 A 
ENDBRANCH  23  26
BRANCH  25  33
HETATM   33  O   UNL     1       7.869  27.823  58.150  1.00  0.00    -0.357 OA
HETATM   34  H   UNL     1       8.703  27.498  58.530  1.00  0.00     0.218 HD
ENDBRANCH  25  33
ENDBRANCH   2  21
TORSDOF 8
ENDMDL
MODEL 4
REMARK VINA RESULT:      -9.7      3.654     10.722
REMARK  8 active torsions:
REMARK  status: ('A' for Active; 'I' for Inactive)
REMARK    1  A    between atoms: C_4  and  C_5 
REMARK       I    between atoms: C_5  and  N_6 
REMARK    2  A    between atoms: N_6  and  C_7 
REMARK    3  A    between atoms: C_7  and  C_8 
REMARK    4  A    between atoms: C_8  and  C_9 
REMARK       I    between atoms: C_9  and  N_10 
REMARK    5  A    between atoms: N_10  and  N_11 
REMARK       I    between atoms: N_11  and  C_12 
REMARK    6  A    between atoms: C_12  and  C_13 
REMARK    7  A    between atoms: N_15  and  C_16 
REMARK    8  A    between atoms: C_24  and  O_25 
ROOT
HETATM    1  N   UNL     1       8.276  28.610  57.040  1.00  0.00    -0.262 N 
HETATM    2  C   UNL     1       7.367  28.821  56.017  1.00  0.00     0.293 C 
HETATM    3  O   UNL     1       6.650  29.820  55.982  1.00  0.00    -0.264 OA
HETATM    4  H   UNL     1       8.976  27.873  56.945  1.00  0.00     0.190 HD
ENDROOT
BRANCH   1   5
HETATM    5  N   UNL     1       8.514  29.643  57.959  1.00  0.00    -0.267 N 
HETATM    6  C   UNL     1       9.667  30.390  57.802  1.00  0.00     0.237 C 
HETATM    7  O   UNL     1      10.566  30.079  57.025  1.00  0.00    -0.272 OA
HETATM    8  H   UNL     1       7.680  30.049  58.384  1.00  0.00     0.190 HD
BRANCH   6   9
HETATM    9  C   UNL     1       9.733  31.575  58.738  1.00  0.00     0.124 C 
BRANCH   9  10
HETATM   10  C   UNL     1       9.563  31.137  60.187  1.00  0.00     0.132 C 
BRANCH  10  11
HETATM   11  N   UNL     1       8.843  32.113  60.985  1.00  0.00    -0.356 N 
HETATM   12  C   UNL     1       8.294  31.793  62.209  1.00  0.00     0.251 C 
HETATM   13  O   UNL     1       8.429  30.695  62.738  1.00  0.00    -0.268 OA
HETATM   14  H   UNL     1       8.835  33.073  60.668  1.00  0.00     0.162 HD
BRANCH  12  15
HETATM   15  C   UNL     1       7.540  32.874  62.904  1.00  0.00     0.032 A 
HETATM   16  C   UNL     1       6.652  33.715  62.221  1.00  0.00     0.017 A 
HETATM   17  C   UNL     1       5.955  34.709  62.915  1.00  0.00     0.001 A 
HETATM   18  C   UNL     1       6.137  34.858  64.290  1.00  0.00     0.000 A 
HETATM   19  C   UNL     1       7.006  34.013  64.977  1.00  0.00     0.001 A 
HETATM   20  C   UNL     1       7.704  33.019  64.288  1.00  0.00     0.017 A 
ENDBRANCH  12  15
ENDBRANCH  10  11
ENDBRANCH   9  10
ENDBRANCH   6   9
ENDBRANCH   1   5
BRANCH   2  21
HETATM   21  C   UNL     1       7.362  27.753  55.009  1.00  0.00     0.181 A 
HETATM   22  N   UNL     1       7.729  26.490  55.312  1.00  0.00    -0.159 NA
HETATM   23  N   UNL     1       7.577  25.783  54.158  1.00  0.00    -0.242 N 
HETATM   24  C   UNL     1       7.151  26.586  53.122  1.00  0.00     0.158 A 
HETATM   25  C   UNL     1       7.004  27.840  53.647  1.00  0.00     0.119 A 
BRANCH  23  26
HETATM   26  C   UNL     1       7.841  24.382  54.125  1.00  0.00     0.058 A 
HETATM   27  C   UNL     1       8.216  23.720  55.306  1.00  0.00     0.033 A 
HETATM   28  C   UNL     1       8.468  22.344  55.297  1.00  0.00     0.026 A 
HETATM   29  C   UNL     1       8.348  21.626  54.110  1.00  0.00     0.034 A 
HETATM   30 CL   UNL     1       8.655  19.934  54.098  1.00  0.00    -0.084 Cl
HETATM   31  C   UNL     1       7.980  22.271  52.932  1.00  0.00     0.026 A 
HETATM   32  C   UNL     1       7.726  23.647  52.934  1.00  0.00     0.033 A 
ENDBRANCH  23  26
BRANCH  25  33
HETATM   33  O   UNL     1       6.593  28.909  52.951  1.00  0.00    -0.357 OA
HETATM   34  H   UNL     1       6.807  28.819  52.006  1.00  0.00     0.218 HD
ENDBRANCH  25  33
ENDBRANCH   2  21
TORSDOF 8
ENDMDL
MODEL 5
REMARK VINA RESULT:      -9.5      3.977     10.858
REMARK  8 active torsions:
REMARK  status: ('A' for Active; 'I' for Inactive)
REMARK    1  A    between atoms: C_4  and  C_5 
REMARK       I    between atoms: C_5  and  N_6 
REMARK    2  A    between atoms: N_6  and  C_7 
REMARK    3  A    between atoms: C_7  and  C_8 
REMARK    4  A    between atoms: C_8  and  C_9 
REMARK       I    between atoms: C_9  and  N_10 
REMARK    5  A    between atoms: N_10  and  N_11 
REMARK       I    between atoms: N_11  and  C_12 
REMARK    6  A    between atoms: C_12  and  C_13 
REMARK    7  A    between atoms: N_15  and  C_16 
REMARK    8  A    between atoms: C_24  and  O_25 
ROOT
HETATM    1  N   UNL     1       7.314  28.089  57.706  1.00  0.00    -0.262 N 
HETATM    2  C   UNL     1       6.057  28.052  57.128  1.00  0.00     0.293 C 
HETATM    3  O   UNL     1       5.142  28.777  57.517  1.00  0.00    -0.264 OA
HETATM    4  H   UNL     1       8.092  27.613  57.247  1.00  0.00     0.190 HD
ENDROOT
BRANCH   1   5
HETATM    5  N   UNL     1       7.604  29.101  58.634  1.00  0.00    -0.267 N 
HETATM    6  C   UNL     1       8.748  29.850  58.432  1.00  0.00     0.237 C 
HETATM    7  O   UNL     1       9.603  29.556  57.600  1.00  0.00    -0.272 OA
HETATM    8  H   UNL     1       6.796  29.497  59.113  1.00  0.00     0.190 HD
BRANCH   6   9
HETATM    9  C   UNL     1       8.868  31.013  59.390  1.00  0.00     0.124 C 
BRANCH   9  10
HETATM   10  C   UNL     1       7.498  31.585  59.729  1.00  0.00     0.132 C 
BRANCH  10  11
HETATM   11  N   UNL     1       7.406  32.036  61.107  1.00  0.00    -0.356 N 
HETATM   12  C   UNL     1       6.208  32.425  61.668  1.00  0.00     0.251 C 
HETATM   13  O   UNL     1       5.136  32.356  61.077  1.00  0.00    -0.268 OA
HETATM   14  H   UNL     1       8.232  31.966  61.685  1.00  0.00     0.162 HD
BRANCH  12  15
HETATM   15  C   UNL     1       6.259  32.912  63.076  1.00  0.00     0.032 A 
HETATM   16  C   UNL     1       7.469  33.226  63.708  1.00  0.00     0.017 A 
HETATM   17  C   UNL     1       7.470  33.692  65.025  1.00  0.00     0.001 A 
HETATM   18  C   UNL     1       6.266  33.852  65.711  1.00  0.00     0.000 A 
HETATM   19  C   UNL     1       5.058  33.557  65.081  1.00  0.00     0.001 A 
HETATM   20  C   UNL     1       5.053  33.092  63.764  1.00  0.00     0.017 A 
ENDBRANCH  12  15
ENDBRANCH  10  11
ENDBRANCH   9  10
ENDBRANCH   6   9
ENDBRANCH   1   5
BRANCH   2  21
HETATM   21  C   UNL     1       5.946  27.085  56.028  1.00  0.00     0.181 A 
HETATM   22  N   UNL     1       6.736  25.992  55.963  1.00  0.00    -0.159 NA
HETATM   23  N   UNL     1       6.339  25.326  54.844  1.00  0.00    -0.242 N 
HETATM   24  C   UNL     1       5.333  25.997  54.182  1.00  0.00     0.158 A 
HETATM   25  C   UNL     1       5.067  27.114  54.925  1.00  0.00     0.119 A 
BRANCH  23  26
HETATM   26  C   UNL     1       6.944  24.086  54.484  1.00  0.00     0.058 A 
HETATM   27  C   UNL     1       7.250  23.830  53.137  1.00  0.00     0.033 A 
HETATM   28  C   UNL     1       7.854  22.625  52.764  1.00  0.00     0.026 A 
HETATM   29  C   UNL     1       8.152  21.671  53.734  1.00  0.00     0.034 A 
HETATM   30 CL   UNL     1       8.897  20.190  53.277  1.00  0.00    -0.084 Cl
HETATM   31  C   UNL     1       7.851  21.911  55.072  1.00  0.00     0.026 A 
HETATM   32  C   UNL     1       7.247  23.115  55.452  1.00  0.00     0.033 A 
ENDBRANCH  23  26
BRANCH  25  33
HETATM   33  O   UNL     1       4.136  28.027  54.614  1.00  0.00    -0.357 OA
HETATM   34  H   UNL     1       4.371  28.903  54.964  1.00  0.00     0.218 HD
ENDBRANCH  25  33
ENDBRANCH   2  21
TORSDOF 8
ENDMDL
MODEL 6
REMARK VINA RESULT:      -9.3      2.495      3.661
REMARK  8 active torsions:
REMARK  status: ('A' for Active; 'I' for Inactive)
REMARK    1  A    between atoms: C_4  and  C_5 
REMARK       I    between atoms: C_5  and  N_6 
REMARK    2  A    between atoms: N_6  and  C_7 
REMARK    3  A    between atoms: C_7  and  C_8 
REMARK    4  A    between atoms: C_8  and  C_9 
REMARK       I    between atoms: C_9  and  N_10 
REMARK    5  A    between atoms: N_10  and  N_11 
REMARK       I    between atoms: N_11  and  C_12 
REMARK    6  A    between atoms: C_12  and  C_13 
REMARK    7  A    between atoms: N_15  and  C_16 
REMARK    8  A    between atoms: C_24  and  O_25 
ROOT
HETATM    1  N   UNL     1       7.459  29.599  59.006  1.00  0.00    -0.262 N 
HETATM    2  C   UNL     1       7.934  30.897  59.082  1.00  0.00     0.293 C 
HETATM    3  O   UNL     1       8.958  31.249  58.499  1.00  0.00    -0.264 OA
HETATM    4  H   UNL     1       6.520  29.387  59.347  1.00  0.00     0.190 HD
ENDROOT
BRANCH   1   5
HETATM    5  N   UNL     1       8.057  28.710  58.100  1.00  0.00    -0.267 N 
HETATM    6  C   UNL     1       7.226  27.996  57.257  1.00  0.00     0.237 C 
HETATM    7  O   UNL     1       6.005  27.964  57.389  1.00  0.00    -0.272 OA
HETATM    8  H   UNL     1       9.009  28.948  57.820  1.00  0.00     0.190 HD
BRANCH   6   9
HETATM    9  C   UNL     1       7.984  27.204  56.216  1.00  0.00     0.124 C 
BRANCH   9  10
HETATM   10  C   UNL     1       7.070  26.793  55.069  1.00  0.00     0.132 C 
BRANCH  10  11
HETATM   11  N   UNL     1       7.345  25.450  54.589  1.00  0.00    -0.356 N 
HETATM   12  C   UNL     1       7.029  24.331  55.331  1.00  0.00     0.251 C 
HETATM   13  O   UNL     1       6.440  24.383  56.406  1.00  0.00    -0.268 OA
HETATM   14  H   UNL     1       7.687  25.344  53.644  1.00  0.00     0.162 HD
BRANCH  12  15
HETATM   15  C   UNL     1       7.408  23.014  54.745  1.00  0.00     0.032 A 
HETATM   16  C   UNL     1       7.653  22.856  53.375  1.00  0.00     0.017 A 
HETATM   17  C   UNL     1       8.018  21.605  52.870  1.00  0.00     0.001 A 
HETATM   18  C   UNL     1       8.146  20.514  53.730  1.00  0.00     0.000 A 
HETATM   19  C   UNL     1       7.919  20.671  55.096  1.00  0.00     0.001 A 
HETATM   20  C   UNL     1       7.555  21.919  55.605  1.00  0.00     0.017 A 
ENDBRANCH  12  15
ENDBRANCH  10  11
ENDBRANCH   9  10
ENDBRANCH   6   9
ENDBRANCH   1   5
BRANCH   2  21
HETATM   21  C   UNL     1       7.097  31.779  59.906  1.00  0.00     0.181 A 
HETATM   22  N   UNL     1       7.256  31.859  61.245  1.00  0.00    -0.159 NA
HETATM   23  N   UNL     1       6.342  32.778  61.662  1.00  0.00    -0.242 N 
HETATM   24  C   UNL     1       5.587  33.257  60.613  1.00  0.00     0.158 A 
HETATM   25  C   UNL     1       6.058  32.637  59.490  1.00  0.00     0.119 A 
BRANCH  23  26
HETATM   26  C   UNL     1       6.257  33.145  63.037  1.00  0.00     0.058 A 
HETATM   27  C   UNL     1       4.996  33.333  63.627  1.00  0.00     0.033 A 
HETATM   28  C   UNL     1       4.890  33.682  64.977  1.00  0.00     0.026 A 
HETATM   29  C   UNL     1       6.042  33.845  65.743  1.00  0.00     0.034 A 
HETATM   30 CL   UNL     1       5.913  34.270  67.404  1.00  0.00    -0.084 Cl
HETATM   31  C   UNL     1       7.299  33.663  65.170  1.00  0.00     0.026 A 
HETATM   32  C   UNL     1       7.411  33.314  63.819  1.00  0.00     0.033 A 
ENDBRANCH  23  26
BRANCH  25  33
HETATM   33  O   UNL     1       5.583  32.845  58.254  1.00  0.00    -0.357 OA
HETATM   34  H   UNL     1       4.817  32.275  58.069  1.00  0.00     0.218 HD
ENDBRANCH  25  33
ENDBRANCH   2  21
TORSDOF 8
ENDMDL
MODEL 7
REMARK VINA RESULT:      -9.2      3.853     10.554
REMARK  8 active torsions:
REMARK  status: ('A' for Active; 'I' for Inactive)
REMARK    1  A    between atoms: C_4  and  C_5 
REMARK       I    between atoms: C_5  and  N_6 
REMARK    2  A    between atoms: N_6  and  C_7 
REMARK    3  A    between atoms: C_7  and  C_8 
REMARK    4  A    between atoms: C_8  and  C_9 
REMARK       I    between atoms: C_9  and  N_10 
REMARK    5  A    between atoms: N_10  and  N_11 
REMARK       I    between atoms: N_11  and  C_12 
REMARK    6  A    between atoms: C_12  and  C_13 
REMARK    7  A    between atoms: N_15  and  C_16 
REMARK    8  A    between atoms: C_24  and  O_25 
ROOT
HETATM    1  N   UNL     1       4.421  27.840  55.859  1.00  0.00    -0.262 N 
HETATM    2  C   UNL     1       4.678  28.001  54.508  1.00  0.00     0.293 C 
HETATM    3  O   UNL     1       4.503  29.077  53.938  1.00  0.00    -0.264 OA
HETATM    4  H   UNL     1       4.746  26.997  56.334  1.00  0.00     0.190 HD
ENDROOT
BRANCH   1   5
HETATM    5  N   UNL     1       4.129  28.973  56.634  1.00  0.00    -0.267 N 
HETATM    6  C   UNL     1       5.160  29.538  57.359  1.00  0.00     0.237 C 
HETATM    7  O   UNL     1       6.254  28.998  57.503  1.00  0.00    -0.272 OA
HETATM    8  H   UNL     1       3.350  29.540  56.299  1.00  0.00     0.190 HD
BRANCH   6   9
HETATM    9  C   UNL     1       4.771  30.843  58.016  1.00  0.00     0.124 C 
BRANCH   9  10
HETATM   10  C   UNL     1       5.980  31.755  58.181  1.00  0.00     0.132 C 
BRANCH  10  11
HETATM   11  N   UNL     1       6.057  32.347  59.505  1.00  0.00    -0.356 N 
HETATM   12  C   UNL     1       7.144  32.147  60.331  1.00  0.00     0.251 C 
HETATM   13  O   UNL     1       8.140  31.519  59.989  1.00  0.00    -0.268 OA
HETATM   14  H   UNL     1       5.334  32.999  59.776  1.00  0.00     0.162 HD
BRANCH  12  15
HETATM   15  C   UNL     1       7.076  32.772  61.682  1.00  0.00     0.032 A 
HETATM   16  C   UNL     1       6.146  33.773  61.990  1.00  0.00     0.017 A 
HETATM   17  C   UNL     1       6.110  34.323  63.275  1.00  0.00     0.001 A 
HETATM   18  C   UNL     1       6.994  33.869  64.254  1.00  0.00     0.000 A 
HETATM   19  C   UNL     1       7.910  32.861  63.957  1.00  0.00     0.001 A 
HETATM   20  C   UNL     1       7.949  32.310  62.675  1.00  0.00     0.017 A 
ENDBRANCH  12  15
ENDBRANCH  10  11
ENDBRANCH   9  10
ENDBRANCH   6   9
ENDBRANCH   1   5
BRANCH   2  21
HETATM   21  C   UNL     1       5.173  26.782  53.857  1.00  0.00     0.181 A 
HETATM   22  N   UNL     1       5.890  25.858  54.531  1.00  0.00    -0.159 NA
HETATM   23  N   UNL     1       6.149  24.872  53.629  1.00  0.00    -0.242 N 
HETATM   24  C   UNL     1       5.635  25.172  52.386  1.00  0.00     0.158 A 
HETATM   25  C   UNL     1       5.006  26.380  52.514  1.00  0.00     0.119 A 
BRANCH  23  26
HETATM   26  C   UNL     1       6.865  23.702  54.017  1.00  0.00     0.058 A 
HETATM   27  C   UNL     1       7.428  22.876  53.030  1.00  0.00     0.033 A 
HETATM   28  C   UNL     1       8.144  21.729  53.390  1.00  0.00     0.026 A 
HETATM   29  C   UNL     1       8.300  21.404  54.735  1.00  0.00     0.034 A 
HETATM   30 CL   UNL     1       9.183  19.997  55.179  1.00  0.00    -0.084 Cl
HETATM   31  C   UNL     1       7.745  22.213  55.723  1.00  0.00     0.026 A 
HETATM   32  C   UNL     1       7.027  23.362  55.369  1.00  0.00     0.033 A 
ENDBRANCH  23  26
BRANCH  25  33
HETATM   33  O   UNL     1       4.368  27.012  51.519  1.00  0.00    -0.357 OA
HETATM   34  H   UNL     1       3.411  27.051  51.683  1.00  0.00     0.218 HD
ENDBRANCH  25  33
ENDBRANCH   2  21
TORSDOF 8
ENDMDL
MODEL 8
REMARK VINA RESULT:      -9.1      4.087      5.835
REMARK  8 active torsions:
REMARK  status: ('A' for Active; 'I' for Inactive)
REMARK    1  A    between atoms: C_4  and  C_5 
REMARK       I    between atoms: C_5  and  N_6 
REMARK    2  A    between atoms: N_6  and  C_7 
REMARK    3  A    between atoms: C_7  and  C_8 
REMARK    4  A    between atoms: C_8  and  C_9 
REMARK       I    between atoms: C_9  and  N_10 
REMARK    5  A    between atoms: N_10  and  N_11 
REMARK       I    between atoms: N_11  and  C_12 
REMARK    6  A    between atoms: C_12  and  C_13 
REMARK    7  A    between atoms: N_15  and  C_16 
REMARK    8  A    between atoms: C_24  and  O_25 
ROOT
HETATM    1  N   UNL     1       5.488  31.579  59.631  1.00  0.00    -0.262 N 
HETATM    2  C   UNL     1       4.166  31.969  59.766  1.00  0.00     0.293 C 
HETATM    3  O   UNL     1       3.326  31.728  58.900  1.00  0.00    -0.264 OA
HETATM    4  H   UNL     1       6.111  31.632  60.437  1.00  0.00     0.190 HD
ENDROOT
BRANCH   1   5
HETATM    5  N   UNL     1       5.838  30.731  58.570  1.00  0.00    -0.267 N 
HETATM    6  C   UNL     1       7.154  30.744  58.144  1.00  0.00     0.237 C 
HETATM    7  O   UNL     1       7.971  31.581  58.519  1.00  0.00    -0.272 OA
HETATM    8  H   UNL     1       5.265  29.893  58.473  1.00  0.00     0.190 HD
BRANCH   6   9
HETATM    9  C   UNL     1       7.451  29.675  57.117  1.00  0.00     0.124 C 
BRANCH   9  10
HETATM   10  C   UNL     1       7.184  28.286  57.681  1.00  0.00     0.132 C 
BRANCH  10  11
HETATM   11  N   UNL     1       7.300  27.244  56.676  1.00  0.00    -0.356 N 
HETATM   12  C   UNL     1       7.797  25.993  56.977  1.00  0.00     0.251 C 
HETATM   13  O   UNL     1       8.110  25.651  58.113  1.00  0.00    -0.268 OA
HETATM   14  H   UNL     1       6.913  27.422  55.759  1.00  0.00     0.162 HD
BRANCH  12  15
HETATM   15  C   UNL     1       7.909  25.030  55.845  1.00  0.00     0.032 A 
HETATM   16  C   UNL     1       7.396  25.319  54.573  1.00  0.00     0.017 A 
HETATM   17  C   UNL     1       7.534  24.392  53.537  1.00  0.00     0.001 A 
HETATM   18  C   UNL     1       8.190  23.182  53.764  1.00  0.00     0.000 A 
HETATM   19  C   UNL     1       8.717  22.897  55.023  1.00  0.00     0.001 A 
HETATM   20  C   UNL     1       8.581  23.821  56.061  1.00  0.00     0.017 A 
ENDBRANCH  12  15
ENDBRANCH  10  11
ENDBRANCH   9  10
ENDBRANCH   6   9
ENDBRANCH   1   5
BRANCH   2  21
HETATM   21  C   UNL     1       3.890  32.677  61.023  1.00  0.00     0.181 A 
HETATM   22  N   UNL     1       4.760  32.654  62.055  1.00  0.00    -0.159 NA
HETATM   23  N   UNL     1       4.193  33.427  63.022  1.00  0.00    -0.242 N 
HETATM   24  C   UNL     1       2.964  33.911  62.630  1.00  0.00     0.158 A 
HETATM   25  C   UNL     1       2.759  33.449  61.360  1.00  0.00     0.119 A 
BRANCH  23  26
HETATM   26  C   UNL     1       4.868  33.658  64.257  1.00  0.00     0.058 A 
HETATM   27  C   UNL     1       6.264  33.508  64.320  1.00  0.00     0.033 A 
HETATM   28  C   UNL     1       6.947  33.741  65.518  1.00  0.00     0.026 A 
HETATM   29  C   UNL     1       6.241  34.123  66.656  1.00  0.00     0.034 A 
HETATM   30 CL   UNL     1       7.080  34.413  68.128  1.00  0.00    -0.084 Cl
HETATM   31  C   UNL     1       4.856  34.273  66.606  1.00  0.00     0.026 A 
HETATM   32  C   UNL     1       4.167  34.041  65.410  1.00  0.00     0.033 A 
ENDBRANCH  23  26
BRANCH  25  33
HETATM   33  O   UNL     1       1.670  33.714  60.624  1.00  0.00    -0.357 OA
HETATM   34  H   UNL     1       1.069  34.321  61.088  1.00  0.00     0.218 HD
ENDBRANCH  25  33
ENDBRANCH   2  21
TORSDOF 8
ENDMDL
MODEL 9
REMARK VINA RESULT:      -8.9      5.928      9.383
REMARK  8 active torsions:
REMARK  status: ('A' for Active; 'I' for Inactive)
REMARK    1  A    between atoms: C_4  and  C_5 
REMARK       I    between atoms: C_5  and  N_6 
REMARK    2  A    between atoms: N_6  and  C_7 
REMARK    3  A    between atoms: C_7  and  C_8 
REMARK    4  A    between atoms: C_8  and  C_9 
REMARK       I    between atoms: C_9  and  N_10 
REMARK    5  A    between atoms: N_10  and  N_11 
REMARK       I    between atoms: N_11  and  C_12 
REMARK    6  A    between atoms: C_12  and  C_13 
REMARK    7  A    between atoms: N_15  and  C_16 
REMARK    8  A    between atoms: C_24  and  O_25 
ROOT
HETATM    1  N   UNL     1       4.450  27.567  53.194  1.00  0.00    -0.262 N 
HETATM    2  C   UNL     1       5.404  28.204  52.418  1.00  0.00     0.293 C 
HETATM    3  O   UNL     1       6.586  28.254  52.755  1.00  0.00    -0.264 OA
HETATM    4  H   UNL     1       3.524  27.387  52.803  1.00  0.00     0.190 HD
ENDROOT
BRANCH   1   5
HETATM    5  N   UNL     1       4.870  26.806  54.295  1.00  0.00    -0.267 N 
HETATM    6  C   UNL     1       4.847  27.408  55.539  1.00  0.00     0.237 C 
HETATM    7  O   UNL     1       4.659  28.612  55.697  1.00  0.00    -0.272 OA
HETATM    8  H   UNL     1       4.750  25.797  54.198  1.00  0.00     0.190 HD
BRANCH   6   9
HETATM    9  C   UNL     1       5.156  26.447  56.664  1.00  0.00     0.124 C 
BRANCH   9  10
HETATM   10  C   UNL     1       6.643  26.125  56.716  1.00  0.00     0.132 C 
BRANCH  10  11
HETATM   11  N   UNL     1       6.941  24.781  56.251  1.00  0.00    -0.356 N 
HETATM   12  C   UNL     1       7.399  24.536  54.974  1.00  0.00     0.251 C 
HETATM   13  O   UNL     1       7.649  25.426  54.168  1.00  0.00    -0.268 OA
HETATM   14  H   UNL     1       6.900  24.027  56.923  1.00  0.00     0.162 HD
BRANCH  12  15
HETATM   15  C   UNL     1       7.620  23.108  54.608  1.00  0.00     0.032 A 
HETATM   16  C   UNL     1       7.849  22.708  53.286  1.00  0.00     0.017 A 
HETATM   17  C   UNL     1       8.064  21.359  52.990  1.00  0.00     0.001 A 
HETATM   18  C   UNL     1       8.059  20.410  54.013  1.00  0.00     0.000 A 
HETATM   19  C   UNL     1       7.848  20.806  55.333  1.00  0.00     0.001 A 
HETATM   20  C   UNL     1       7.633  22.152  55.632  1.00  0.00     0.017 A 
ENDBRANCH  12  15
ENDBRANCH  10  11
ENDBRANCH   9  10
ENDBRANCH   6   9
ENDBRANCH   1   5
BRANCH   2  21
HETATM   21  C   UNL     1       4.861  28.789  51.185  1.00  0.00     0.181 A 
HETATM   22  N   UNL     1       3.905  28.164  50.465  1.00  0.00    -0.159 NA
HETATM   23  N   UNL     1       3.634  28.998  49.424  1.00  0.00    -0.242 N 
HETATM   24  C   UNL     1       4.426  30.126  49.456  1.00  0.00     0.158 A 
HETATM   25  C   UNL     1       5.207  30.011  50.572  1.00  0.00     0.119 A 
BRANCH  23  26
HETATM   26  C   UNL     1       2.628  28.666  48.469  1.00  0.00     0.058 A 
HETATM   27  C   UNL     1       2.000  27.411  48.534  1.00  0.00     0.033 A 
HETATM   28  C   UNL     1       1.003  27.070  47.615  1.00  0.00     0.026 A 
HETATM   29  C   UNL     1       0.630  27.978  46.628  1.00  0.00     0.034 A 
HETATM   30 CL   UNL     1      -0.598  27.561  45.499  1.00  0.00    -0.084 Cl
HETATM   31  C   UNL     1       1.247  29.225  46.551  1.00  0.00     0.026 A 
HETATM   32  C   UNL     1       2.245  29.573  47.468  1.00  0.00     0.033 A 
ENDBRANCH  23  26
BRANCH  25  33
HETATM   33  O   UNL     1       6.112  30.921  50.961  1.00  0.00    -0.357 OA
HETATM   34  H   UNL     1       6.918  30.871  50.418  1.00  0.00     0.218 HD
ENDBRANCH  25  33
ENDBRANCH   2  21
TORSDOF 8
ENDMDL
MODEL 10
REMARK VINA RESULT:      -8.9      2.604      3.353
REMARK  8 active torsions:
REMARK  status: ('A' for Active; 'I' for Inactive)
REMARK    1  A    between atoms: C_4  and  C_5 
REMARK       I    between atoms: C_5  and  N_6 
REMARK    2  A    between atoms: N_6  and  C_7 
REMARK    3  A    between atoms: C_7  and  C_8 
REMARK    4  A    between atoms: C_8  and  C_9 
REMARK       I    between atoms: C_9  and  N_10 
REMARK    5  A    between atoms: N_10  and  N_11 
REMARK       I    between atoms: N_11  and  C_12 
REMARK    6  A    between atoms: C_12  and  C_13 
REMARK    7  A    between atoms: N_15  and  C_16 
REMARK    8  A    between atoms: C_24  and  O_25 
ROOT
HETATM    1  N   UNL     1       6.315  30.140  55.839  1.00  0.00    -0.262 N 
HETATM    2  C   UNL     1       5.016  30.611  55.930  1.00  0.00     0.293 C 
HETATM    3  O   UNL     1       4.180  30.384  55.056  1.00  0.00    -0.264 OA
HETATM    4  H   UNL     1       6.924  30.189  56.657  1.00  0.00     0.190 HD
ENDROOT
BRANCH   1   5
HETATM    5  N   UNL     1       6.636  29.232  54.819  1.00  0.00    -0.267 N 
HETATM    6  C   UNL     1       7.246  28.046  55.183  1.00  0.00     0.237 C 
HETATM    7  O   UNL     1       7.680  27.834  56.313  1.00  0.00    -0.272 OA
HETATM    8  H   UNL     1       6.049  29.285  53.987  1.00  0.00     0.190 HD
BRANCH   6   9
HETATM    9  C   UNL     1       7.390  27.079  54.030  1.00  0.00     0.124 C 
BRANCH   9  10
HETATM   10  C   UNL     1       6.274  26.044  54.041  1.00  0.00     0.132 C 
BRANCH  10  11
HETATM   11  N   UNL     1       6.764  24.692  53.837  1.00  0.00    -0.356 N 
HETATM   12  C   UNL     1       7.038  23.849  54.894  1.00  0.00     0.251 C 
HETATM   13  O   UNL     1       6.829  24.150  56.064  1.00  0.00    -0.268 OA
HETATM   14  H   UNL     1       6.806  24.340  52.890  1.00  0.00     0.162 HD
BRANCH  12  15
HETATM   15  C   UNL     1       7.581  22.504  54.549  1.00  0.00     0.032 A 
HETATM   16  C   UNL     1       7.880  22.142  53.229  1.00  0.00     0.017 A 
HETATM   17  C   UNL     1       8.399  20.874  52.953  1.00  0.00     0.001 A 
HETATM   18  C   UNL     1       8.627  19.970  53.991  1.00  0.00     0.000 A 
HETATM   19  C   UNL     1       8.346  20.332  55.307  1.00  0.00     0.001 A 
HETATM   20  C   UNL     1       7.828  21.598  55.588  1.00  0.00     0.017 A 
ENDBRANCH  12  15
ENDBRANCH  10  11
ENDBRANCH   9  10
ENDBRANCH   6   9
ENDBRANCH   1   5
BRANCH   2  21
HETATM   21  C   UNL     1       4.757  31.382  57.153  1.00  0.00     0.181 A 
HETATM   22  N   UNL     1       5.608  31.357  58.201  1.00  0.00    -0.159 NA
HETATM   23  N   UNL     1       5.067  32.196  59.126  1.00  0.00    -0.242 N 
HETATM   24  C   UNL     1       3.871  32.727  58.693  1.00  0.00     0.158 A 
HETATM   25  C   UNL     1       3.662  32.225  57.439  1.00  0.00     0.119 A 
BRANCH  23  26
HETATM   26  C   UNL     1       5.734  32.443  60.362  1.00  0.00     0.058 A 
HETATM   27  C   UNL     1       4.978  32.725  61.512  1.00  0.00     0.033 A 
HETATM   28  C   UNL     1       5.612  32.958  62.737  1.00  0.00     0.026 A 
HETATM   29  C   UNL     1       7.001  32.911  62.818  1.00  0.00     0.034 A 
HETATM   30 CL   UNL     1       7.782  33.194  64.323  1.00  0.00    -0.084 Cl
HETATM   31  C   UNL     1       7.762  32.634  61.684  1.00  0.00     0.026 A 
HETATM   32  C   UNL     1       7.134  32.400  60.455  1.00  0.00     0.033 A 
ENDBRANCH  23  26
BRANCH  25  33
HETATM   33  O   UNL     1       2.601  32.514  56.673  1.00  0.00    -0.357 OA
HETATM   34  H   UNL     1       2.853  33.071  55.917  1.00  0.00     0.218 HD
ENDBRANCH  25  33
ENDBRANCH   2  21
TORSDOF 8
ENDMDL
