MODEL 1
REMARK VINA RESULT:      -9.2      0.000      0.000
REMARK  8 active torsions:
REMARK  status: ('A' for Active; 'I' for Inactive)
REMARK    1  A    between atoms: N_4  and  C_5 
REMARK    2  A    between atoms: C_5  and  C_6 
REMARK    3  A    between atoms: C_6  and  C_7 
REMARK    4  A    between atoms: C_7  and  N_8 
REMARK       I    between atoms: N_8  and  C_9 
REMARK       I    between atoms: C_9  and  N_10 
REMARK    5  A    between atoms: N_10  and  N_11 
REMARK       I    between atoms: N_11  and  C_12 
REMARK    6  A    between atoms: C_12  and  C_13 
REMARK    7  A    between atoms: C_13  and  O_14 
REMARK    8  A    between atoms: O_14  and  C_15 
ROOT
HETATM    1  N   UNL     1       7.380  27.379  57.768  1.00  0.00    -0.341 N 
HETATM    2  C   UNL     1       8.273  28.394  57.522  1.00  0.00     0.334 C 
HETATM    3  N   UNL     1       7.832  29.592  58.049  1.00  0.00    -0.249 N 
HETATM    4  O   UNL     1       9.346  28.243  56.952  1.00  0.00    -0.246 OA
HETATM    5  H   UNL     1       6.405  27.627  57.854  1.00  0.00     0.164 HD
HETATM    6  H   UNL     1       7.137  29.570  58.787  1.00  0.00     0.192 HD
ENDROOT
BRANCH   1   7
HETATM    7  C   UNL     1       7.698  25.986  57.522  1.00  0.00     0.130 C 
BRANCH   7   8
HETATM    8  C   UNL     1       6.602  25.202  56.780  1.00  0.00     0.019 C 
HETATM    9  C   UNL     1       5.196  25.676  57.154  1.00  0.00     0.013 C 
BRANCH   8  10
HETATM   10  C   UNL     1       6.791  25.351  55.257  1.00  0.00     0.156 C 
BRANCH  10  11
HETATM   11  N   UNL     1       7.312  24.148  54.626  1.00  0.00    -0.274 N 
HETATM   12  N   UNL     1       7.277  23.000  55.329  1.00  0.00    -0.177 NA
HETATM   13  C   UNL     1       7.762  22.081  54.491  1.00  0.00     0.053 A 
HETATM   14  C   UNL     1       7.843  20.658  54.899  1.00  0.00     0.072 C 
HETATM   15  C   UNL     1       8.131  22.653  53.255  1.00  0.00     0.055 A 
HETATM   16  C   UNL     1       7.831  23.996  53.365  1.00  0.00     0.028 A 
HETATM   17  C   UNL     1       7.981  25.090  52.377  1.00  0.00     0.070 C 
ENDBRANCH  10  11
ENDBRANCH   8  10
ENDBRANCH   7   8
ENDBRANCH   1   7
BRANCH   3  18
HETATM   18  N   UNL     1       8.653  30.721  57.991  1.00  0.00    -0.264 N 
HETATM   19  C   UNL     1       9.215  31.352  59.078  1.00  0.00     0.260 C 
HETATM   20  O   UNL     1       9.993  32.290  58.882  1.00  0.00    -0.269 OA
HETATM   21  H   UNL     1       9.053  30.959  57.088  1.00  0.00     0.190 HD
BRANCH  19  22
HETATM   22  C   UNL     1       8.843  30.900  60.488  1.00  0.00     0.280 C 
BRANCH  22  23
HETATM   23  O   UNL     1       7.446  31.128  60.671  1.00  0.00    -0.342 OA
BRANCH  23  24
HETATM   24  C   UNL     1       7.137  31.763  61.838  1.00  0.00     0.069 A 
HETATM   25  C   UNL     1       8.214  32.177  62.624  1.00  0.00     0.038 A 
HETATM   26  C   UNL     1       7.988  32.846  63.827  1.00  0.00     0.022 A 
HETATM   27  C   UNL     1       6.681  33.117  64.226  1.00  0.00     0.011 A 
HETATM   28 BR   UNL     1       6.370  34.013  65.860  1.00  0.00    -0.051 Br
HETATM   29  C   UNL     1       5.603  32.735  63.428  1.00  0.00     0.022 A 
HETATM   30  C   UNL     1       5.831  32.059  62.226  1.00  0.00     0.038 A 
ENDBRANCH  23  24
ENDBRANCH  22  23
ENDBRANCH  19  22
ENDBRANCH   3  18
TORSDOF 8
ENDMDL
MODEL 2
REMARK VINA RESULT:      -8.9      4.257     10.704
REMARK  8 active torsions:
REMARK  status: ('A' for Active; 'I' for Inactive)
REMARK    1  A    between atoms: N_4  and  C_5 
REMARK    2  A    between atoms: C_5  and  C_6 
REMARK    3  A    between atoms: C_6  and  C_7 
REMARK    4  A    between atoms: C_7  and  N_8 
REMARK       I    between atoms: N_8  and  C_9 
REMARK       I    between atoms: C_9  and  N_10 
REMARK    5  A    between atoms: N_10  and  N_11 
REMARK       I    between atoms: N_11  and  C_12 
REMARK    6  A    between atoms: C_12  and  C_13 
REMARK    7  A    between atoms: C_13  and  O_14 
REMARK    8  A    between atoms: O_14  and  C_15 
ROOT
HETATM    1  N   UNL     1       6.144  31.621  60.588  1.00  0.00    -0.341 N 
HETATM    2  C   UNL     1       7.138  31.560  59.640  1.00  0.00     0.334 C 
HETATM    3  N   UNL     1       7.932  30.444  59.815  1.00  0.00    -0.249 N 
HETATM    4  O   UNL     1       7.269  32.366  58.729  1.00  0.00    -0.246 OA
HETATM    5  H   UNL     1       6.332  31.203  61.488  1.00  0.00     0.164 HD
HETATM    6  H   UNL     1       7.564  29.664  60.348  1.00  0.00     0.192 HD
ENDROOT
BRANCH   1   7
HETATM    7  C   UNL     1       5.044  32.560  60.502  1.00  0.00     0.130 C 
BRANCH   7   8
HETATM    8  C   UNL     1       4.651  33.208  61.841  1.00  0.00     0.019 C 
HETATM    9  C   UNL     1       3.168  33.582  61.891  1.00  0.00     0.013 C 
BRANCH   8  10
HETATM   10  C   UNL     1       4.962  32.242  63.002  1.00  0.00     0.156 C 
BRANCH  10  11
HETATM   11  N   UNL     1       5.502  32.914  64.174  1.00  0.00    -0.274 N 
HETATM   12  N   UNL     1       4.636  33.325  65.121  1.00  0.00    -0.177 NA
HETATM   13  C   UNL     1       5.411  33.846  66.077  1.00  0.00     0.053 A 
HETATM   14  C   UNL     1       4.813  34.375  67.325  1.00  0.00     0.072 C 
HETATM   15  C   UNL     1       6.776  33.789  65.723  1.00  0.00     0.055 A 
HETATM   16  C   UNL     1       6.811  33.181  64.484  1.00  0.00     0.028 A 
HETATM   17  C   UNL     1       7.969  32.834  63.625  1.00  0.00     0.070 C 
ENDBRANCH  10  11
ENDBRANCH   8  10
ENDBRANCH   7   8
ENDBRANCH   1   7
BRANCH   3  18
HETATM   18  N   UNL     1       8.935  30.152  58.886  1.00  0.00    -0.264 N 
HETATM   19  C   UNL     1       8.840  29.217  57.881  1.00  0.00     0.260 C 
HETATM   20  O   UNL     1       9.768  29.118  57.072  1.00  0.00    -0.269 OA
HETATM   21  H   UNL     1       9.691  30.825  58.792  1.00  0.00     0.190 HD
BRANCH  19  22
HETATM   22  C   UNL     1       7.614  28.310  57.808  1.00  0.00     0.280 C 
BRANCH  22  23
HETATM   23  O   UNL     1       8.032  26.978  58.103  1.00  0.00    -0.342 OA
BRANCH  23  24
HETATM   24  C   UNL     1       7.986  26.133  57.032  1.00  0.00     0.069 A 
HETATM   25  C   UNL     1       8.504  24.852  57.229  1.00  0.00     0.038 A 
HETATM   26  C   UNL     1       8.485  23.921  56.191  1.00  0.00     0.022 A 
HETATM   27  C   UNL     1       7.925  24.271  54.965  1.00  0.00     0.011 A 
HETATM   28 BR   UNL     1       7.906  23.016  53.553  1.00  0.00    -0.051 Br
HETATM   29  C   UNL     1       7.375  25.540  54.774  1.00  0.00     0.022 A 
HETATM   30  C   UNL     1       7.401  26.473  55.813  1.00  0.00     0.038 A 
ENDBRANCH  23  24
ENDBRANCH  22  23
ENDBRANCH  19  22
ENDBRANCH   3  18
TORSDOF 8
ENDMDL
MODEL 3
REMARK VINA RESULT:      -8.8      4.782      9.583
REMARK  8 active torsions:
REMARK  status: ('A' for Active; 'I' for Inactive)
REMARK    1  A    between atoms: N_4  and  C_5 
REMARK    2  A    between atoms: C_5  and  C_6 
REMARK    3  A    between atoms: C_6  and  C_7 
REMARK    4  A    between atoms: C_7  and  N_8 
REMARK       I    between atoms: N_8  and  C_9 
REMARK       I    between atoms: C_9  and  N_10 
REMARK    5  A    between atoms: N_10  and  N_11 
REMARK       I    between atoms: N_11  and  C_12 
REMARK    6  A    between atoms: C_12  and  C_13 
REMARK    7  A    between atoms: C_13  and  O_14 
REMARK    8  A    between atoms: O_14  and  C_15 
ROOT
HETATM    1  N   UNL     1       6.550  29.149  55.018  1.00  0.00    -0.341 N 
HETATM    2  C   UNL     1       5.675  28.785  54.023  1.00  0.00     0.334 C 
HETATM    3  N   UNL     1       6.347  28.345  52.899  1.00  0.00    -0.249 N 
HETATM    4  O   UNL     1       4.458  28.801  54.138  1.00  0.00    -0.246 OA
HETATM    5  H   UNL     1       7.458  29.492  54.739  1.00  0.00     0.164 HD
HETATM    6  H   UNL     1       7.306  28.034  52.997  1.00  0.00     0.192 HD
ENDROOT
BRANCH   1   7
HETATM    7  C   UNL     1       6.115  29.432  56.372  1.00  0.00     0.130 C 
BRANCH   7   8
HETATM    8  C   UNL     1       6.467  28.341  57.397  1.00  0.00     0.019 C 
HETATM    9  C   UNL     1       5.797  27.004  57.073  1.00  0.00     0.013 C 
BRANCH   8  10
HETATM   10  C   UNL     1       7.994  28.136  57.442  1.00  0.00     0.156 C 
BRANCH  10  11
HETATM   11  N   UNL     1       8.712  29.297  57.949  1.00  0.00    -0.274 N 
HETATM   12  N   UNL     1       8.396  29.747  59.178  1.00  0.00    -0.177 NA
HETATM   13  C   UNL     1       9.237  30.763  59.387  1.00  0.00     0.053 A 
HETATM   14  C   UNL     1       9.223  31.500  60.673  1.00  0.00     0.072 C 
HETATM   15  C   UNL     1      10.075  30.977  58.272  1.00  0.00     0.055 A 
HETATM   16  C   UNL     1       9.716  30.014  57.350  1.00  0.00     0.028 A 
HETATM   17  C   UNL     1      10.264  29.734  56.002  1.00  0.00     0.070 C 
ENDBRANCH  10  11
ENDBRANCH   8  10
ENDBRANCH   7   8
ENDBRANCH   1   7
BRANCH   3  18
HETATM   18  N   UNL     1       5.627  27.834  51.815  1.00  0.00    -0.264 N 
HETATM   19  C   UNL     1       5.731  26.551  51.327  1.00  0.00     0.260 C 
HETATM   20  O   UNL     1       4.973  26.199  50.418  1.00  0.00    -0.269 OA
HETATM   21  H   UNL     1       4.811  28.356  51.511  1.00  0.00     0.190 HD
BRANCH  19  22
HETATM   22  C   UNL     1       6.790  25.610  51.896  1.00  0.00     0.280 C 
BRANCH  22  23
HETATM   23  O   UNL     1       6.473  25.363  53.264  1.00  0.00    -0.342 OA
BRANCH  23  24
HETATM   24  C   UNL     1       6.976  24.189  53.746  1.00  0.00     0.069 A 
HETATM   25  C   UNL     1       6.950  24.025  55.132  1.00  0.00     0.038 A 
HETATM   26  C   UNL     1       7.432  22.850  55.708  1.00  0.00     0.022 A 
HETATM   27  C   UNL     1       7.919  21.834  54.889  1.00  0.00     0.011 A 
HETATM   28 BR   UNL     1       8.584  20.245  55.666  1.00  0.00    -0.051 Br
HETATM   29  C   UNL     1       7.916  21.980  53.501  1.00  0.00     0.022 A 
HETATM   30  C   UNL     1       7.439  23.161  52.926  1.00  0.00     0.038 A 
ENDBRANCH  23  24
ENDBRANCH  22  23
ENDBRANCH  19  22
ENDBRANCH   3  18
TORSDOF 8
ENDMDL
MODEL 4
REMARK VINA RESULT:      -8.8      4.640      5.940
REMARK  8 active torsions:
REMARK  status: ('A' for Active; 'I' for Inactive)
REMARK    1  A    between atoms: N_4  and  C_5 
REMARK    2  A    between atoms: C_5  and  C_6 
REMARK    3  A    between atoms: C_6  and  C_7 
REMARK    4  A    between atoms: C_7  and  N_8 
REMARK       I    between atoms: N_8  and  C_9 
REMARK       I    between atoms: C_9  and  N_10 
REMARK    5  A    between atoms: N_10  and  N_11 
REMARK       I    between atoms: N_11  and  C_12 
REMARK    6  A    between atoms: C_12  and  C_13 
REMARK    7  A    between atoms: C_13  and  O_14 
REMARK    8  A    between atoms: O_14  and  C_15 
ROOT
HETATM    1  N   UNL     1       4.473  25.559  53.165  1.00  0.00    -0.341 N 
HETATM    2  C   UNL     1       4.520  26.913  52.934  1.00  0.00     0.334 C 
HETATM    3  N   UNL     1       3.834  27.614  53.906  1.00  0.00    -0.249 N 
HETATM    4  O   UNL     1       5.135  27.432  52.012  1.00  0.00    -0.246 OA
HETATM    5  H   UNL     1       3.666  25.197  53.651  1.00  0.00     0.164 HD
HETATM    6  H   UNL     1       3.661  27.164  54.797  1.00  0.00     0.192 HD
ENDROOT
BRANCH   1   7
HETATM    7  C   UNL     1       5.292  24.615  52.430  1.00  0.00     0.130 C 
BRANCH   7   8
HETATM    8  C   UNL     1       6.678  24.357  53.046  1.00  0.00     0.019 C 
HETATM    9  C   UNL     1       7.789  25.105  52.304  1.00  0.00     0.013 C 
BRANCH   8  10
HETATM   10  C   UNL     1       6.685  24.791  54.525  1.00  0.00     0.156 C 
BRANCH  10  11
HETATM   11  N   UNL     1       7.317  23.818  55.403  1.00  0.00    -0.274 N 
HETATM   12  N   UNL     1       7.269  22.520  55.045  1.00  0.00    -0.177 NA
HETATM   13  C   UNL     1       7.963  21.887  55.994  1.00  0.00     0.053 A 
HETATM   14  C   UNL     1       8.172  20.421  55.923  1.00  0.00     0.072 C 
HETATM   15  C   UNL     1       8.433  22.785  56.976  1.00  0.00     0.055 A 
HETATM   16  C   UNL     1       8.001  24.033  56.572  1.00  0.00     0.028 A 
HETATM   17  C   UNL     1       8.212  25.362  57.193  1.00  0.00     0.070 C 
ENDBRANCH  10  11
ENDBRANCH   8  10
ENDBRANCH   7   8
ENDBRANCH   1   7
BRANCH   3  18
HETATM   18  N   UNL     1       3.855  29.012  53.900  1.00  0.00    -0.264 N 
HETATM   19  C   UNL     1       4.123  29.807  54.991  1.00  0.00     0.260 C 
HETATM   20  O   UNL     1       4.196  31.029  54.831  1.00  0.00    -0.269 OA
HETATM   21  H   UNL     1       3.907  29.472  52.996  1.00  0.00     0.190 HD
BRANCH  19  22
HETATM   22  C   UNL     1       4.293  29.168  56.367  1.00  0.00     0.280 C 
BRANCH  22  23
HETATM   23  O   UNL     1       5.259  28.124  56.253  1.00  0.00    -0.342 OA
BRANCH  23  24
HETATM   24  C   UNL     1       6.549  28.544  56.403  1.00  0.00     0.069 A 
HETATM   25  C   UNL     1       6.940  28.900  57.694  1.00  0.00     0.038 A 
HETATM   26  C   UNL     1       8.245  29.328  57.940  1.00  0.00     0.022 A 
HETATM   27  C   UNL     1       9.159  29.375  56.890  1.00  0.00     0.011 A 
HETATM   28 BR   UNL     1      10.925  29.965  57.214  1.00  0.00    -0.051 Br
HETATM   29  C   UNL     1       8.782  28.989  55.603  1.00  0.00     0.022 A 
HETATM   30  C   UNL     1       7.472  28.567  55.359  1.00  0.00     0.038 A 
ENDBRANCH  23  24
ENDBRANCH  22  23
ENDBRANCH  19  22
ENDBRANCH   3  18
TORSDOF 8
ENDMDL
MODEL 5
REMARK VINA RESULT:      -8.8      0.909      1.302
REMARK  8 active torsions:
REMARK  status: ('A' for Active; 'I' for Inactive)
REMARK    1  A    between atoms: N_4  and  C_5 
REMARK    2  A    between atoms: C_5  and  C_6 
REMARK    3  A    between atoms: C_6  and  C_7 
REMARK    4  A    between atoms: C_7  and  N_8 
REMARK       I    between atoms: N_8  and  C_9 
REMARK       I    between atoms: C_9  and  N_10 
REMARK    5  A    between atoms: N_10  and  N_11 
REMARK       I    between atoms: N_11  and  C_12 
REMARK    6  A    between atoms: C_12  and  C_13 
REMARK    7  A    between atoms: C_13  and  O_14 
REMARK    8  A    between atoms: O_14  and  C_15 
ROOT
HETATM    1  N   UNL     1       7.430  27.583  56.919  1.00  0.00    -0.341 N 
HETATM    2  C   UNL     1       7.781  28.911  56.887  1.00  0.00     0.334 C 
HETATM    3  N   UNL     1       8.902  29.154  57.657  1.00  0.00    -0.249 N 
HETATM    4  O   UNL     1       7.204  29.759  56.220  1.00  0.00    -0.246 OA
HETATM    5  H   UNL     1       7.661  27.060  57.751  1.00  0.00     0.164 HD
HETATM    6  H   UNL     1       9.513  28.378  57.884  1.00  0.00     0.192 HD
ENDROOT
BRANCH   1   7
HETATM    7  C   UNL     1       6.435  27.020  56.029  1.00  0.00     0.130 C 
BRANCH   7   8
HETATM    8  C   UNL     1       6.226  25.503  56.182  1.00  0.00     0.019 C 
HETATM    9  C   UNL     1       5.028  25.170  57.075  1.00  0.00     0.013 C 
BRANCH   8  10
HETATM   10  C   UNL     1       6.011  24.861  54.797  1.00  0.00     0.156 C 
BRANCH  10  11
HETATM   11  N   UNL     1       6.985  23.824  54.491  1.00  0.00    -0.274 N 
HETATM   12  N   UNL     1       7.186  22.856  55.407  1.00  0.00    -0.177 NA
HETATM   13  C   UNL     1       8.074  22.038  54.836  1.00  0.00     0.053 A 
HETATM   14  C   UNL     1       8.522  20.809  55.534  1.00  0.00     0.072 C 
HETATM   15  C   UNL     1       8.459  22.502  53.561  1.00  0.00     0.055 A 
HETATM   16  C   UNL     1       7.740  23.663  53.358  1.00  0.00     0.028 A 
HETATM   17  C   UNL     1       7.714  24.576  52.190  1.00  0.00     0.070 C 
ENDBRANCH  10  11
ENDBRANCH   8  10
ENDBRANCH   7   8
ENDBRANCH   1   7
BRANCH   3  18
HETATM   18  N   UNL     1       9.474  30.430  57.668  1.00  0.00    -0.264 N 
HETATM   19  C   UNL     1       9.627  31.222  58.783  1.00  0.00     0.260 C 
HETATM   20  O   UNL     1      10.228  32.294  58.671  1.00  0.00    -0.269 OA
HETATM   21  H   UNL     1      10.022  30.700  56.857  1.00  0.00     0.190 HD
BRANCH  19  22
HETATM   22  C   UNL     1       9.028  30.775  60.115  1.00  0.00     0.280 C 
BRANCH  22  23
HETATM   23  O   UNL     1       7.714  31.321  60.214  1.00  0.00    -0.342 OA
BRANCH  23  24
HETATM   24  C   UNL     1       7.449  31.912  61.415  1.00  0.00     0.069 A 
HETATM   25  C   UNL     1       6.133  32.328  61.625  1.00  0.00     0.038 A 
HETATM   26  C   UNL     1       5.772  32.931  62.830  1.00  0.00     0.022 A 
HETATM   27  C   UNL     1       6.729  33.093  63.829  1.00  0.00     0.011 A 
HETATM   28 BR   UNL     1       6.247  33.918  65.459  1.00  0.00    -0.051 Br
HETATM   29  C   UNL     1       8.038  32.648  63.637  1.00  0.00     0.022 A 
HETATM   30  C   UNL     1       8.399  32.051  62.426  1.00  0.00     0.038 A 
ENDBRANCH  23  24
ENDBRANCH  22  23
ENDBRANCH  19  22
ENDBRANCH   3  18
TORSDOF 8
ENDMDL
MODEL 6
REMARK VINA RESULT:      -8.6      6.521      9.998
REMARK  8 active torsions:
REMARK  status: ('A' for Active; 'I' for Inactive)
REMARK    1  A    between atoms: N_4  and  C_5 
REMARK    2  A    between atoms: C_5  and  C_6 
REMARK    3  A    between atoms: C_6  and  C_7 
REMARK    4  A    between atoms: C_7  and  N_8 
REMARK       I    between atoms: N_8  and  C_9 
REMARK       I    between atoms: C_9  and  N_10 
REMARK    5  A    between atoms: N_10  and  N_11 
REMARK       I    between atoms: N_11  and  C_12 
REMARK    6  A    between atoms: C_12  and  C_13 
REMARK    7  A    between atoms: C_13  and  O_14 
REMARK    8  A    between atoms: O_14  and  C_15 
ROOT
HETATM    1  N   UNL     1       4.407  27.098  51.804  1.00  0.00    -0.341 N 
HETATM    2  C   UNL     1       4.773  27.799  52.928  1.00  0.00     0.334 C 
HETATM    3  N   UNL     1       3.990  27.456  54.014  1.00  0.00    -0.249 N 
HETATM    4  O   UNL     1       5.707  28.588  52.973  1.00  0.00    -0.246 OA
HETATM    5  H   UNL     1       3.442  26.810  51.729  1.00  0.00     0.164 HD
HETATM    6  H   UNL     1       3.492  26.573  53.993  1.00  0.00     0.192 HD
ENDROOT
BRANCH   1   7
HETATM    7  C   UNL     1       5.202  27.100  50.593  1.00  0.00     0.130 C 
BRANCH   7   8
HETATM    8  C   UNL     1       4.794  28.167  49.563  1.00  0.00     0.019 C 
HETATM    9  C   UNL     1       5.784  29.334  49.514  1.00  0.00     0.013 C 
BRANCH   8  10
HETATM   10  C   UNL     1       4.699  27.534  48.161  1.00  0.00     0.156 C 
BRANCH  10  11
HETATM   11  N   UNL     1       3.338  27.485  47.647  1.00  0.00    -0.274 N 
HETATM   12  N   UNL     1       2.736  28.651  47.344  1.00  0.00    -0.177 NA
HETATM   13  C   UNL     1       1.544  28.294  46.858  1.00  0.00     0.053 A 
HETATM   14  C   UNL     1       0.592  29.319  46.368  1.00  0.00     0.072 C 
HETATM   15  C   UNL     1       1.378  26.893  46.876  1.00  0.00     0.055 A 
HETATM   16  C   UNL     1       2.555  26.388  47.393  1.00  0.00     0.028 A 
HETATM   17  C   UNL     1       2.968  24.984  47.628  1.00  0.00     0.070 C 
ENDBRANCH  10  11
ENDBRANCH   8  10
ENDBRANCH   7   8
ENDBRANCH   1   7
BRANCH   3  18
HETATM   18  N   UNL     1       4.277  27.987  55.274  1.00  0.00    -0.264 N 
HETATM   19  C   UNL     1       5.052  27.378  56.234  1.00  0.00     0.260 C 
HETATM   20  O   UNL     1       5.300  27.995  57.275  1.00  0.00    -0.269 OA
HETATM   21  H   UNL     1       4.103  28.978  55.411  1.00  0.00     0.190 HD
BRANCH  19  22
HETATM   22  C   UNL     1       5.558  25.956  56.006  1.00  0.00     0.280 C 
BRANCH  22  23
HETATM   23  O   UNL     1       6.726  26.028  55.190  1.00  0.00    -0.342 OA
BRANCH  23  24
HETATM   24  C   UNL     1       7.093  24.833  54.642  1.00  0.00     0.069 A 
HETATM   25  C   UNL     1       7.212  23.757  55.523  1.00  0.00     0.038 A 
HETATM   26  C   UNL     1       7.571  22.497  55.045  1.00  0.00     0.022 A 
HETATM   27  C   UNL     1       7.786  22.316  53.681  1.00  0.00     0.011 A 
HETATM   28 BR   UNL     1       8.283  20.612  53.031  1.00  0.00    -0.051 Br
HETATM   29  C   UNL     1       7.635  23.381  52.792  1.00  0.00     0.022 A 
HETATM   30  C   UNL     1       7.283  24.644  53.274  1.00  0.00     0.038 A 
ENDBRANCH  23  24
ENDBRANCH  22  23
ENDBRANCH  19  22
ENDBRANCH   3  18
TORSDOF 8
ENDMDL
MODEL 7
REMARK VINA RESULT:      -8.6      4.477      9.898
REMARK  8 active torsions:
REMARK  status: ('A' for Active; 'I' for Inactive)
REMARK    1  A    between atoms: N_4  and  C_5 
REMARK    2  A    between atoms: C_5  and  C_6 
REMARK    3  A    between atoms: C_6  and  C_7 
REMARK    4  A    between atoms: C_7  and  N_8 
REMARK       I    between atoms: N_8  and  C_9 
REMARK       I    between atoms: C_9  and  N_10 
REMARK    5  A    between atoms: N_10  and  N_11 
REMARK       I    between atoms: N_11  and  C_12 
REMARK    6  A    between atoms: C_12  and  C_13 
REMARK    7  A    between atoms: C_13  and  O_14 
REMARK    8  A    between atoms: O_14  and  C_15 
ROOT
HETATM    1  N   UNL     1       4.927  27.355  55.942  1.00  0.00    -0.341 N 
HETATM    2  C   UNL     1       5.092  27.728  54.630  1.00  0.00     0.334 C 
HETATM    3  N   UNL     1       4.515  26.813  53.770  1.00  0.00    -0.249 N 
HETATM    4  O   UNL     1       5.635  28.764  54.272  1.00  0.00    -0.246 OA
HETATM    5  H   UNL     1       4.857  26.368  56.141  1.00  0.00     0.164 HD
HETATM    6  H   UNL     1       3.802  26.190  54.131  1.00  0.00     0.192 HD
ENDROOT
BRANCH   1   7
HETATM    7  C   UNL     1       5.235  28.241  57.047  1.00  0.00     0.130 C 
BRANCH   7   8
HETATM    8  C   UNL     1       6.661  28.094  57.604  1.00  0.00     0.019 C 
HETATM    9  C   UNL     1       7.409  26.914  56.979  1.00  0.00     0.013 C 
BRANCH   8  10
HETATM   10  C   UNL     1       7.462  29.386  57.346  1.00  0.00     0.156 C 
BRANCH  10  11
HETATM   11  N   UNL     1       7.593  30.223  58.529  1.00  0.00    -0.274 N 
HETATM   12  N   UNL     1       8.523  29.884  59.442  1.00  0.00    -0.177 NA
HETATM   13  C   UNL     1       8.447  30.845  60.367  1.00  0.00     0.053 A 
HETATM   14  C   UNL     1       9.361  30.841  61.534  1.00  0.00     0.072 C 
HETATM   15  C   UNL     1       7.444  31.786  60.052  1.00  0.00     0.055 A 
HETATM   16  C   UNL     1       6.902  31.362  58.855  1.00  0.00     0.028 A 
HETATM   17  C   UNL     1       5.829  31.964  58.029  1.00  0.00     0.070 C 
ENDBRANCH  10  11
ENDBRANCH   8  10
ENDBRANCH   7   8
ENDBRANCH   1   7
BRANCH   3  18
HETATM   18  N   UNL     1       4.489  27.070  52.397  1.00  0.00    -0.264 N 
HETATM   19  C   UNL     1       4.904  26.197  51.417  1.00  0.00     0.260 C 
HETATM   20  O   UNL     1       4.746  26.515  50.234  1.00  0.00    -0.269 OA
HETATM   21  H   UNL     1       3.919  27.850  52.081  1.00  0.00     0.190 HD
BRANCH  19  22
HETATM   22  C   UNL     1       5.570  24.881  51.810  1.00  0.00     0.280 C 
BRANCH  22  23
HETATM   23  O   UNL     1       6.664  25.181  52.675  1.00  0.00    -0.342 OA
BRANCH  23  24
HETATM   24  C   UNL     1       7.113  24.110  53.392  1.00  0.00     0.069 A 
HETATM   25  C   UNL     1       6.869  24.137  54.766  1.00  0.00     0.038 A 
HETATM   26  C   UNL     1       7.283  23.077  55.573  1.00  0.00     0.022 A 
HETATM   27  C   UNL     1       7.920  21.982  54.992  1.00  0.00     0.011 A 
HETATM   28 BR   UNL     1       8.492  20.548  56.082  1.00  0.00    -0.051 Br
HETATM   29  C   UNL     1       8.135  21.935  53.614  1.00  0.00     0.022 A 
HETATM   30  C   UNL     1       7.726  23.002  52.809  1.00  0.00     0.038 A 
ENDBRANCH  23  24
ENDBRANCH  22  23
ENDBRANCH  19  22
ENDBRANCH   3  18
TORSDOF 8
ENDMDL
MODEL 8
REMARK VINA RESULT:      -8.4      1.828      2.582
REMARK  8 active torsions:
REMARK  status: ('A' for Active; 'I' for Inactive)
REMARK    1  A    between atoms: N_4  and  C_5 
REMARK    2  A    between atoms: C_5  and  C_6 
REMARK    3  A    between atoms: C_6  and  C_7 
REMARK    4  A    between atoms: C_7  and  N_8 
REMARK       I    between atoms: N_8  and  C_9 
REMARK       I    between atoms: C_9  and  N_10 
REMARK    5  A    between atoms: N_10  and  N_11 
REMARK       I    between atoms: N_11  and  C_12 
REMARK    6  A    between atoms: C_12  and  C_13 
REMARK    7  A    between atoms: C_13  and  O_14 
REMARK    8  A    between atoms: O_14  and  C_15 
ROOT
HETATM    1  N   UNL     1       6.566  27.312  54.834  1.00  0.00    -0.341 N 
HETATM    2  C   UNL     1       7.696  28.074  55.010  1.00  0.00     0.334 C 
HETATM    3  N   UNL     1       7.995  28.228  56.350  1.00  0.00    -0.249 N 
HETATM    4  O   UNL     1       8.377  28.516  54.095  1.00  0.00    -0.246 OA
HETATM    5  H   UNL     1       5.868  27.336  55.564  1.00  0.00     0.164 HD
HETATM    6  H   UNL     1       7.610  27.564  57.013  1.00  0.00     0.192 HD
ENDROOT
BRANCH   1   7
HETATM    7  C   UNL     1       6.159  26.812  53.535  1.00  0.00     0.130 C 
BRANCH   7   8
HETATM    8  C   UNL     1       6.564  25.355  53.257  1.00  0.00     0.019 C 
HETATM    9  C   UNL     1       7.942  25.251  52.599  1.00  0.00     0.013 C 
BRANCH   8  10
HETATM   10  C   UNL     1       6.577  24.553  54.573  1.00  0.00     0.156 C 
BRANCH  10  11
HETATM   11  N   UNL     1       7.472  23.406  54.534  1.00  0.00    -0.274 N 
HETATM   12  N   UNL     1       7.296  22.500  53.553  1.00  0.00    -0.177 NA
HETATM   13  C   UNL     1       8.275  21.612  53.739  1.00  0.00     0.053 A 
HETATM   14  C   UNL     1       8.439  20.466  52.813  1.00  0.00     0.072 C 
HETATM   15  C   UNL     1       9.064  21.941  54.862  1.00  0.00     0.055 A 
HETATM   16  C   UNL     1       8.523  23.109  55.363  1.00  0.00     0.028 A 
HETATM   17  C   UNL     1       8.945  23.934  56.520  1.00  0.00     0.070 C 
ENDBRANCH  10  11
ENDBRANCH   8  10
ENDBRANCH   7   8
ENDBRANCH   1   7
BRANCH   3  18
HETATM   18  N   UNL     1       9.169  28.886  56.729  1.00  0.00    -0.264 N 
HETATM   19  C   UNL     1       9.262  29.833  57.723  1.00  0.00     0.260 C 
HETATM   20  O   UNL     1      10.377  30.275  58.017  1.00  0.00    -0.269 OA
HETATM   21  H   UNL     1      10.048  28.483  56.419  1.00  0.00     0.190 HD
BRANCH  19  22
HETATM   22  C   UNL     1       7.995  30.332  58.412  1.00  0.00     0.280 C 
BRANCH  22  23
HETATM   23  O   UNL     1       8.163  31.721  58.694  1.00  0.00    -0.342 OA
BRANCH  23  24
HETATM   24  C   UNL     1       7.908  32.058  59.991  1.00  0.00     0.069 A 
HETATM   25  C   UNL     1       8.952  31.870  60.898  1.00  0.00     0.038 A 
HETATM   26  C   UNL     1       8.781  32.200  62.242  1.00  0.00     0.022 A 
HETATM   27  C   UNL     1       7.569  32.740  62.667  1.00  0.00     0.011 A 
HETATM   28 BR   UNL     1       7.329  33.179  64.490  1.00  0.00    -0.051 Br
HETATM   29  C   UNL     1       6.534  32.960  61.758  1.00  0.00     0.022 A 
HETATM   30  C   UNL     1       6.705  32.622  60.413  1.00  0.00     0.038 A 
ENDBRANCH  23  24
ENDBRANCH  22  23
ENDBRANCH  19  22
ENDBRANCH   3  18
TORSDOF 8
ENDMDL
MODEL 9
REMARK VINA RESULT:      -8.3      4.437     10.335
REMARK  8 active torsions:
REMARK  status: ('A' for Active; 'I' for Inactive)
REMARK    1  A    between atoms: N_4  and  C_5 
REMARK    2  A    between atoms: C_5  and  C_6 
REMARK    3  A    between atoms: C_6  and  C_7 
REMARK    4  A    between atoms: C_7  and  N_8 
REMARK       I    between atoms: N_8  and  C_9 
REMARK       I    between atoms: C_9  and  N_10 
REMARK    5  A    between atoms: N_10  and  N_11 
REMARK       I    between atoms: N_11  and  C_12 
REMARK    6  A    between atoms: C_12  and  C_13 
REMARK    7  A    between atoms: C_13  and  O_14 
REMARK    8  A    between atoms: O_14  and  C_15 
ROOT
HETATM    1  N   UNL     1       6.638  31.883  59.931  1.00  0.00    -0.341 N 
HETATM    2  C   UNL     1       7.967  31.930  59.584  1.00  0.00     0.334 C 
HETATM    3  N   UNL     1       8.328  30.832  58.827  1.00  0.00    -0.249 N 
HETATM    4  O   UNL     1       8.720  32.851  59.867  1.00  0.00    -0.246 OA
HETATM    5  H   UNL     1       6.213  30.973  60.028  1.00  0.00     0.164 HD
HETATM    6  H   UNL     1       7.601  30.312  58.349  1.00  0.00     0.192 HD
ENDROOT
BRANCH   1   7
HETATM    7  C   UNL     1       5.950  33.011  60.529  1.00  0.00     0.130 C 
BRANCH   7   8
HETATM    8  C   UNL     1       4.782  32.628  61.453  1.00  0.00     0.019 C 
HETATM    9  C   UNL     1       3.708  31.818  60.724  1.00  0.00     0.013 C 
BRANCH   8  10
HETATM   10  C   UNL     1       5.304  31.805  62.647  1.00  0.00     0.156 C 
BRANCH  10  11
HETATM   11  N   UNL     1       5.602  32.620  63.816  1.00  0.00    -0.274 N 
HETATM   12  N   UNL     1       4.574  33.000  64.599  1.00  0.00    -0.177 NA
HETATM   13  C   UNL     1       5.149  33.675  65.598  1.00  0.00     0.053 A 
HETATM   14  C   UNL     1       4.330  34.226  66.704  1.00  0.00     0.072 C 
HETATM   15  C   UNL     1       6.549  33.746  65.435  1.00  0.00     0.055 A 
HETATM   16  C   UNL     1       6.820  33.055  64.271  1.00  0.00     0.028 A 
HETATM   17  C   UNL     1       8.117  32.777  63.608  1.00  0.00     0.070 C 
ENDBRANCH  10  11
ENDBRANCH   8  10
ENDBRANCH   7   8
ENDBRANCH   1   7
BRANCH   3  18
HETATM   18  N   UNL     1       9.616  30.751  58.290  1.00  0.00    -0.264 N 
HETATM   19  C   UNL     1      10.047  29.794  57.399  1.00  0.00     0.260 C 
HETATM   20  O   UNL     1      11.187  29.887  56.935  1.00  0.00    -0.269 OA
HETATM   21  H   UNL     1      10.207  31.573  58.375  1.00  0.00     0.190 HD
BRANCH  19  22
HETATM   22  C   UNL     1       9.124  28.635  57.032  1.00  0.00     0.280 C 
BRANCH  22  23
HETATM   23  O   UNL     1       8.046  29.156  56.258  1.00  0.00    -0.342 OA
BRANCH  23  24
HETATM   24  C   UNL     1       7.343  28.206  55.576  1.00  0.00     0.069 A 
HETATM   25  C   UNL     1       7.657  28.052  54.225  1.00  0.00     0.038 A 
HETATM   26  C   UNL     1       6.996  27.095  53.456  1.00  0.00     0.022 A 
HETATM   27  C   UNL     1       6.038  26.278  54.052  1.00  0.00     0.011 A 
HETATM   28 BR   UNL     1       5.131  24.986  53.012  1.00  0.00    -0.051 Br
HETATM   29  C   UNL     1       5.744  26.405  55.411  1.00  0.00     0.022 A 
HETATM   30  C   UNL     1       6.403  27.370  56.178  1.00  0.00     0.038 A 
ENDBRANCH  23  24
ENDBRANCH  22  23
ENDBRANCH  19  22
ENDBRANCH   3  18
TORSDOF 8
ENDMDL
MODEL 10
REMARK VINA RESULT:      -8.2      5.260      9.488
REMARK  8 active torsions:
REMARK  status: ('A' for Active; 'I' for Inactive)
REMARK    1  A    between atoms: N_4  and  C_5 
REMARK    2  A    between atoms: C_5  and  C_6 
REMARK    3  A    between atoms: C_6  and  C_7 
REMARK    4  A    between atoms: C_7  and  N_8 
REMARK       I    between atoms: N_8  and  C_9 
REMARK       I    between atoms: C_9  and  N_10 
REMARK    5  A    between atoms: N_10  and  N_11 
REMARK       I    between atoms: N_11  and  C_12 
REMARK    6  A    between atoms: C_12  and  C_13 
REMARK    7  A    between atoms: C_13  and  O_14 
REMARK    8  A    between atoms: O_14  and  C_15 
ROOT
HETATM    1  N   UNL     1       4.037  28.249  55.502  1.00  0.00    -0.341 N 
HETATM    2  C   UNL     1       4.324  28.368  54.164  1.00  0.00     0.334 C 
HETATM    3  N   UNL     1       4.234  27.150  53.518  1.00  0.00    -0.249 N 
HETATM    4  O   UNL     1       4.578  29.428  53.607  1.00  0.00    -0.246 OA
HETATM    5  H   UNL     1       4.240  27.365  55.945  1.00  0.00     0.164 HD
HETATM    6  H   UNL     1       3.693  26.410  53.952  1.00  0.00     0.192 HD
ENDROOT
BRANCH   1   7
HETATM    7  C   UNL     1       3.840  29.400  56.361  1.00  0.00     0.130 C 
BRANCH   7   8
HETATM    8  C   UNL     1       5.139  30.050  56.865  1.00  0.00     0.019 C 
HETATM    9  C   UNL     1       4.895  30.996  58.043  1.00  0.00     0.013 C 
BRANCH   8  10
HETATM   10  C   UNL     1       6.138  28.959  57.299  1.00  0.00     0.156 C 
BRANCH  10  11
HETATM   11  N   UNL     1       7.512  29.263  56.929  1.00  0.00    -0.274 N 
HETATM   12  N   UNL     1       8.228  30.053  57.751  1.00  0.00    -0.177 NA
HETATM   13  C   UNL     1       9.439  30.109  57.190  1.00  0.00     0.053 A 
HETATM   14  C   UNL     1      10.536  30.865  57.839  1.00  0.00     0.072 C 
HETATM   15  C   UNL     1       9.485  29.369  55.989  1.00  0.00     0.055 A 
HETATM   16  C   UNL     1       8.223  28.830  55.838  1.00  0.00     0.028 A 
HETATM   17  C   UNL     1       7.684  27.946  54.777  1.00  0.00     0.070 C 
ENDBRANCH  10  11
ENDBRANCH   8  10
ENDBRANCH   7   8
ENDBRANCH   1   7
BRANCH   3  18
HETATM   18  N   UNL     1       4.391  27.085  52.131  1.00  0.00    -0.264 N 
HETATM   19  C   UNL     1       4.819  25.980  51.431  1.00  0.00     0.260 C 
HETATM   20  O   UNL     1       4.831  26.028  50.197  1.00  0.00    -0.269 OA
HETATM   21  H   UNL     1       3.946  27.812  51.579  1.00  0.00     0.190 HD
BRANCH  19  22
HETATM   22  C   UNL     1       5.292  24.742  52.189  1.00  0.00     0.280 C 
BRANCH  22  23
HETATM   23  O   UNL     1       6.510  25.070  52.854  1.00  0.00    -0.342 OA
BRANCH  23  24
HETATM   24  C   UNL     1       7.012  24.060  53.622  1.00  0.00     0.069 A 
HETATM   25  C   UNL     1       7.675  23.036  52.943  1.00  0.00     0.038 A 
HETATM   26  C   UNL     1       8.230  21.970  53.651  1.00  0.00     0.022 A 
HETATM   27  C   UNL     1       8.137  21.948  55.041  1.00  0.00     0.011 A 
HETATM   28 BR   UNL     1       8.878  20.500  56.004  1.00  0.00    -0.051 Br
HETATM   29  C   UNL     1       7.505  22.986  55.726  1.00  0.00     0.022 A 
HETATM   30  C   UNL     1       6.944  24.049  55.014  1.00  0.00     0.038 A 
ENDBRANCH  23  24
ENDBRANCH  22  23
ENDBRANCH  19  22
ENDBRANCH   3  18
TORSDOF 8
ENDMDL
