MODEL 1
REMARK VINA RESULT:      -9.1      0.000      0.000
REMARK  3 active torsions:
REMARK  status: ('A' for Active; 'I' for Inactive)
REMARK    1  A    between atoms: C_4  and  N_5 
REMARK       I    between atoms: N_5  and  C_6 
REMARK    2  A    between atoms: C_6  and  C_7 
REMARK    3  A    between atoms: C_7  and  C_8 
ROOT
HETATM    1  C   UNL     1       7.470  25.494  56.601  1.00  0.00     0.286 C 
HETATM    2  N   UNL     1       6.325  24.898  55.790  1.00  0.00    -0.056 N 
HETATM    3  H   UNL     1       5.664  24.512  56.499  1.00  0.00     0.278 HD
HETATM    4  H   UNL     1       5.803  25.628  55.291  1.00  0.00     0.278 HD
HETATM    5  C   UNL     1       6.715  23.774  54.870  1.00  0.00     0.209 C 
HETATM    6  C   UNL     1       7.502  22.702  55.663  1.00  0.00     0.115 C 
HETATM    7  N   UNL     1       8.568  23.267  56.488  1.00  0.00    -0.353 N 
HETATM    8  C   UNL     1       8.419  24.434  57.197  1.00  0.00     0.249 C 
HETATM    9  O   UNL     1       9.113  24.640  58.186  1.00  0.00    -0.271 OA
HETATM   10  C   UNL     1       7.480  24.327  53.665  1.00  0.00     0.035 C 
HETATM   11  C   UNL     1       7.976  23.199  52.765  1.00  0.00     0.002 C 
HETATM   12  C   UNL     1       8.824  22.199  53.545  1.00  0.00     0.002 C 
HETATM   13  C   UNL     1       8.054  21.617  54.731  1.00  0.00     0.027 C 
HETATM   14  H   UNL     1       9.188  22.614  56.964  1.00  0.00     0.163 HD
ENDROOT
BRANCH   1  15
HETATM   15  C   UNL     1       6.972  26.468  57.681  1.00  0.00     0.146 C 
BRANCH  15  16
HETATM   16  C   UNL     1       6.128  27.572  57.100  1.00  0.00     0.224 C 
HETATM   17  N   UNL     1       6.552  28.861  57.030  1.00  0.00    -0.327 N 
HETATM   18  H   UNL     1       5.886  29.439  56.524  1.00  0.00     0.169 HD
HETATM   19  O   UNL     1       5.055  27.272  56.557  1.00  0.00    -0.273 OA
BRANCH  17  20
HETATM   20  C   UNL     1       7.696  29.555  57.480  1.00  0.00     0.035 A 
HETATM   21  C   UNL     1       9.005  29.346  57.050  1.00  0.00     0.036 A 
HETATM   22  C   UNL     1      10.075  30.079  57.595  1.00  0.00    -0.059 A 
HETATM   23  C   UNL     1      11.487  29.777  57.179  1.00  0.00     0.048 C 
HETATM   24  C   UNL     1       9.825  31.036  58.582  1.00  0.00     0.013 A 
HETATM   25  C   UNL     1       8.520  31.280  59.015  1.00  0.00    -0.059 A 
HETATM   26  C   UNL     1       7.471  30.522  58.474  1.00  0.00     0.036 A 
HETATM   27  C   UNL     1       8.253  32.289  60.093  1.00  0.00     0.048 C 
ENDBRANCH  17  20
ENDBRANCH  15  16
ENDBRANCH   1  15
TORSDOF 3
ENDMDL
MODEL 2
REMARK VINA RESULT:      -9.0      0.129      1.792
REMARK  3 active torsions:
REMARK  status: ('A' for Active; 'I' for Inactive)
REMARK    1  A    between atoms: C_4  and  N_5 
REMARK       I    between atoms: N_5  and  C_6 
REMARK    2  A    between atoms: C_6  and  C_7 
REMARK    3  A    between atoms: C_7  and  C_8 
ROOT
HETATM    1  C   UNL     1       7.427  25.531  56.568  1.00  0.00     0.286 C 
HETATM    2  N   UNL     1       6.289  24.915  55.762  1.00  0.00    -0.056 N 
HETATM    3  H   UNL     1       5.631  24.530  56.474  1.00  0.00     0.278 HD
HETATM    4  H   UNL     1       5.761  25.635  55.255  1.00  0.00     0.278 HD
HETATM    5  C   UNL     1       6.690  23.785  54.854  1.00  0.00     0.209 C 
HETATM    6  C   UNL     1       7.486  22.729  55.659  1.00  0.00     0.115 C 
HETATM    7  N   UNL     1       8.546  23.313  56.479  1.00  0.00    -0.353 N 
HETATM    8  C   UNL     1       8.386  24.486  57.176  1.00  0.00     0.249 C 
HETATM    9  O   UNL     1       9.077  24.708  58.163  1.00  0.00    -0.271 OA
HETATM   10  C   UNL     1       7.451  24.333  53.645  1.00  0.00     0.035 C 
HETATM   11  C   UNL     1       7.959  23.201  52.756  1.00  0.00     0.002 C 
HETATM   12  C   UNL     1       8.815  22.217  53.547  1.00  0.00     0.002 C 
HETATM   13  C   UNL     1       8.050  21.640  54.739  1.00  0.00     0.027 C 
HETATM   14  H   UNL     1       9.173  22.670  56.963  1.00  0.00     0.163 HD
ENDROOT
BRANCH   1  15
HETATM   15  C   UNL     1       6.919  26.511  57.638  1.00  0.00     0.146 C 
BRANCH  15  16
HETATM   16  C   UNL     1       6.086  27.615  57.041  1.00  0.00     0.224 C 
HETATM   17  N   UNL     1       6.467  28.918  57.069  1.00  0.00    -0.327 N 
HETATM   18  H   UNL     1       5.825  29.500  56.537  1.00  0.00     0.169 HD
HETATM   19  O   UNL     1       5.073  27.308  56.396  1.00  0.00    -0.273 OA
BRANCH  17  20
HETATM   20  C   UNL     1       7.544  29.625  57.646  1.00  0.00     0.035 A 
HETATM   21  C   UNL     1       7.450  30.589  58.649  1.00  0.00     0.036 A 
HETATM   22  C   UNL     1       8.593  31.254  59.127  1.00  0.00    -0.059 A 
HETATM   23  C   UNL     1       8.459  32.349  60.147  1.00  0.00     0.048 C 
HETATM   24  C   UNL     1       9.846  30.946  58.591  1.00  0.00     0.013 A 
HETATM   25  C   UNL     1       9.971  29.970  57.601  1.00  0.00    -0.059 A 
HETATM   26  C   UNL     1       8.815  29.334  57.123  1.00  0.00     0.036 A 
HETATM   27  C   UNL     1      11.313  29.656  57.007  1.00  0.00     0.048 C 
ENDBRANCH  17  20
ENDBRANCH  15  16
ENDBRANCH   1  15
TORSDOF 3
ENDMDL
MODEL 3
REMARK VINA RESULT:      -8.9      3.010      7.418
REMARK  3 active torsions:
REMARK  status: ('A' for Active; 'I' for Inactive)
REMARK    1  A    between atoms: C_4  and  N_5 
REMARK       I    between atoms: N_5  and  C_6 
REMARK    2  A    between atoms: C_6  and  C_7 
REMARK    3  A    between atoms: C_7  and  C_8 
ROOT
HETATM    1  C   UNL     1       5.338  26.745  54.147  1.00  0.00     0.286 C 
HETATM    2  N   UNL     1       5.160  26.218  55.566  1.00  0.00    -0.056 N 
HETATM    3  H   UNL     1       4.167  25.902  55.615  1.00  0.00     0.278 HD
HETATM    4  H   UNL     1       5.728  25.377  55.724  1.00  0.00     0.278 HD
HETATM    5  C   UNL     1       5.369  27.235  56.654  1.00  0.00     0.209 C 
HETATM    6  C   UNL     1       4.499  28.484  56.372  1.00  0.00     0.115 C 
HETATM    7  N   UNL     1       4.619  28.967  54.997  1.00  0.00    -0.353 N 
HETATM    8  C   UNL     1       4.683  28.123  53.916  1.00  0.00     0.249 C 
HETATM    9  O   UNL     1       4.338  28.521  52.809  1.00  0.00    -0.271 OA
HETATM   10  C   UNL     1       6.860  27.548  56.796  1.00  0.00     0.035 C 
HETATM   11  C   UNL     1       7.095  28.651  57.824  1.00  0.00     0.002 C 
HETATM   12  C   UNL     1       6.298  29.906  57.481  1.00  0.00     0.002 C 
HETATM   13  C   UNL     1       4.803  29.608  57.370  1.00  0.00     0.027 C 
HETATM   14  H   UNL     1       4.149  29.842  54.765  1.00  0.00     0.163 HD
ENDROOT
BRANCH   1  15
HETATM   15  C   UNL     1       4.885  25.727  53.087  1.00  0.00     0.146 C 
BRANCH  15  16
HETATM   16  C   UNL     1       5.894  25.580  51.979  1.00  0.00     0.224 C 
HETATM   17  N   UNL     1       6.987  24.780  52.082  1.00  0.00    -0.327 N 
HETATM   18  H   UNL     1       7.496  24.739  51.203  1.00  0.00     0.169 HD
HETATM   19  O   UNL     1       5.655  26.116  50.887  1.00  0.00    -0.273 OA
BRANCH  17  20
HETATM   20  C   UNL     1       7.550  23.998  53.113  1.00  0.00     0.035 A 
HETATM   21  C   UNL     1       7.898  24.445  54.387  1.00  0.00     0.036 A 
HETATM   22  C   UNL     1       8.485  23.578  55.326  1.00  0.00    -0.059 A 
HETATM   23  C   UNL     1       8.931  24.102  56.662  1.00  0.00     0.048 C 
HETATM   24  C   UNL     1       8.722  22.245  54.982  1.00  0.00     0.013 A 
HETATM   25  C   UNL     1       8.362  21.766  53.721  1.00  0.00    -0.059 A 
HETATM   26  C   UNL     1       7.799  22.653  52.792  1.00  0.00     0.036 A 
HETATM   27  C   UNL     1       8.639  20.341  53.341  1.00  0.00     0.048 C 
ENDBRANCH  17  20
ENDBRANCH  15  16
ENDBRANCH   1  15
TORSDOF 3
ENDMDL
MODEL 4
REMARK VINA RESULT:      -8.8      2.677      7.145
REMARK  3 active torsions:
REMARK  status: ('A' for Active; 'I' for Inactive)
REMARK    1  A    between atoms: C_4  and  N_5 
REMARK       I    between atoms: N_5  and  C_6 
REMARK    2  A    between atoms: C_6  and  C_7 
REMARK    3  A    between atoms: C_7  and  C_8 
ROOT
HETATM    1  C   UNL     1       7.194  27.978  56.171  1.00  0.00     0.286 C 
HETATM    2  N   UNL     1       5.832  27.450  56.608  1.00  0.00    -0.056 N 
HETATM    3  H   UNL     1       5.784  26.480  56.227  1.00  0.00     0.278 HD
HETATM    4  H   UNL     1       5.782  27.351  57.629  1.00  0.00     0.278 HD
HETATM    5  C   UNL     1       4.651  28.210  56.071  1.00  0.00     0.209 C 
HETATM    6  C   UNL     1       4.772  28.338  54.532  1.00  0.00     0.115 C 
HETATM    7  N   UNL     1       6.092  28.792  54.097  1.00  0.00    -0.353 N 
HETATM    8  C   UNL     1       7.257  28.352  54.675  1.00  0.00     0.249 C 
HETATM    9  O   UNL     1       8.304  28.381  54.038  1.00  0.00    -0.271 OA
HETATM   10  C   UNL     1       4.527  29.556  56.788  1.00  0.00     0.035 C 
HETATM   11  C   UNL     1       3.398  30.393  56.194  1.00  0.00     0.002 C 
HETATM   12  C   UNL     1       3.581  30.584  54.691  1.00  0.00     0.002 C 
HETATM   13  C   UNL     1       3.673  29.243  53.964  1.00  0.00     0.027 C 
HETATM   14  H   UNL     1       6.215  28.990  53.105  1.00  0.00     0.163 HD
ENDROOT
BRANCH   1  15
HETATM   15  C   UNL     1       8.338  27.027  56.558  1.00  0.00     0.146 C 
BRANCH  15  16
HETATM   16  C   UNL     1       7.850  25.859  57.373  1.00  0.00     0.224 C 
HETATM   17  N   UNL     1       7.657  24.623  56.843  1.00  0.00    -0.327 N 
HETATM   18  H   UNL     1       7.417  23.948  57.565  1.00  0.00     0.169 HD
HETATM   19  O   UNL     1       7.733  26.002  58.599  1.00  0.00    -0.273 OA
BRANCH  17  20
HETATM   20  C   UNL     1       7.732  24.078  55.544  1.00  0.00     0.035 A 
HETATM   21  C   UNL     1       7.677  24.794  54.348  1.00  0.00     0.036 A 
HETATM   22  C   UNL     1       7.730  24.137  53.106  1.00  0.00    -0.059 A 
HETATM   23  C   UNL     1       7.581  24.919  51.832  1.00  0.00     0.048 C 
HETATM   24  C   UNL     1       7.842  22.745  53.064  1.00  0.00     0.013 A 
HETATM   25  C   UNL     1       7.922  22.007  54.246  1.00  0.00    -0.059 A 
HETATM   26  C   UNL     1       7.845  22.679  55.474  1.00  0.00     0.036 A 
HETATM   27  C   UNL     1       8.017  20.510  54.202  1.00  0.00     0.048 C 
ENDBRANCH  17  20
ENDBRANCH  15  16
ENDBRANCH   1  15
TORSDOF 3
ENDMDL
MODEL 5
REMARK VINA RESULT:      -8.7      4.816      7.972
REMARK  3 active torsions:
REMARK  status: ('A' for Active; 'I' for Inactive)
REMARK    1  A    between atoms: C_4  and  N_5 
REMARK       I    between atoms: N_5  and  C_6 
REMARK    2  A    between atoms: C_6  and  C_7 
REMARK    3  A    between atoms: C_7  and  C_8 
ROOT
HETATM    1  C   UNL     1       4.845  25.967  52.280  1.00  0.00     0.286 C 
HETATM    2  N   UNL     1       5.755  25.948  51.058  1.00  0.00    -0.056 N 
HETATM    3  H   UNL     1       6.637  26.409  51.370  1.00  0.00     0.278 HD
HETATM    4  H   UNL     1       6.017  24.988  50.804  1.00  0.00     0.278 HD
HETATM    5  C   UNL     1       5.239  26.710  49.868  1.00  0.00     0.209 C 
HETATM    6  C   UNL     1       4.854  28.147  50.299  1.00  0.00     0.115 C 
HETATM    7  N   UNL     1       4.026  28.182  51.503  1.00  0.00    -0.353 N 
HETATM    8  C   UNL     1       4.245  27.357  52.579  1.00  0.00     0.249 C 
HETATM    9  O   UNL     1       3.860  27.692  53.694  1.00  0.00    -0.271 OA
HETATM   10  C   UNL     1       4.091  25.940  49.212  1.00  0.00     0.035 C 
HETATM   11  C   UNL     1       3.481  26.737  48.063  1.00  0.00     0.002 C 
HETATM   12  C   UNL     1       3.025  28.118  48.526  1.00  0.00     0.002 C 
HETATM   13  C   UNL     1       4.175  28.906  49.153  1.00  0.00     0.027 C 
HETATM   14  H   UNL     1       3.655  29.086  51.791  1.00  0.00     0.163 HD
ENDROOT
BRANCH   1  15
HETATM   15  C   UNL     1       5.529  25.375  53.523  1.00  0.00     0.146 C 
BRANCH  15  16
HETATM   16  C   UNL     1       6.964  25.817  53.642  1.00  0.00     0.224 C 
HETATM   17  N   UNL     1       7.964  24.972  54.003  1.00  0.00    -0.327 N 
HETATM   18  H   UNL     1       8.871  25.427  53.937  1.00  0.00     0.169 HD
HETATM   19  O   UNL     1       7.261  26.964  53.280  1.00  0.00    -0.273 OA
BRANCH  17  20
HETATM   20  C   UNL     1       8.023  23.626  54.425  1.00  0.00     0.035 A 
HETATM   21  C   UNL     1       8.035  23.180  55.746  1.00  0.00     0.036 A 
HETATM   22  C   UNL     1       8.128  21.809  56.048  1.00  0.00    -0.059 A 
HETATM   23  C   UNL     1       8.226  21.356  57.477  1.00  0.00     0.048 C 
HETATM   24  C   UNL     1       8.208  20.876  55.011  1.00  0.00     0.013 A 
HETATM   25  C   UNL     1       8.177  21.296  53.680  1.00  0.00    -0.059 A 
HETATM   26  C   UNL     1       8.106  22.668  53.400  1.00  0.00     0.036 A 
HETATM   27  C   UNL     1       8.289  20.297  52.565  1.00  0.00     0.048 C 
ENDBRANCH  17  20
ENDBRANCH  15  16
ENDBRANCH   1  15
TORSDOF 3
ENDMDL
MODEL 6
REMARK VINA RESULT:      -8.7      2.745      7.153
REMARK  3 active torsions:
REMARK  status: ('A' for Active; 'I' for Inactive)
REMARK    1  A    between atoms: C_4  and  N_5 
REMARK       I    between atoms: N_5  and  C_6 
REMARK    2  A    between atoms: C_6  and  C_7 
REMARK    3  A    between atoms: C_7  and  C_8 
ROOT
HETATM    1  C   UNL     1       7.157  27.841  56.041  1.00  0.00     0.286 C 
HETATM    2  N   UNL     1       5.776  27.338  56.445  1.00  0.00    -0.056 N 
HETATM    3  H   UNL     1       5.684  26.405  55.988  1.00  0.00     0.278 HD
HETATM    4  H   UNL     1       5.726  27.159  57.455  1.00  0.00     0.278 HD
HETATM    5  C   UNL     1       4.627  28.189  55.980  1.00  0.00     0.209 C 
HETATM    6  C   UNL     1       4.747  28.436  54.455  1.00  0.00     0.115 C 
HETATM    7  N   UNL     1       6.083  28.866  54.048  1.00  0.00    -0.353 N 
HETATM    8  C   UNL     1       7.231  28.331  54.580  1.00  0.00     0.249 C 
HETATM    9  O   UNL     1       8.275  28.366  53.940  1.00  0.00    -0.271 OA
HETATM   10  C   UNL     1       4.564  29.477  56.803  1.00  0.00     0.035 C 
HETATM   11  C   UNL     1       3.471  30.407  56.287  1.00  0.00     0.002 C 
HETATM   12  C   UNL     1       3.655  30.710  54.803  1.00  0.00     0.002 C 
HETATM   13  C   UNL     1       3.686  29.430  53.969  1.00  0.00     0.027 C 
HETATM   14  H   UNL     1       6.211  29.138  53.074  1.00  0.00     0.163 HD
ENDROOT
BRANCH   1  15
HETATM   15  C   UNL     1       8.261  26.814  56.342  1.00  0.00     0.146 C 
BRANCH  15  16
HETATM   16  C   UNL     1       7.775  25.713  57.248  1.00  0.00     0.224 C 
HETATM   17  N   UNL     1       7.577  24.441  56.816  1.00  0.00    -0.327 N 
HETATM   18  H   UNL     1       7.340  23.823  57.588  1.00  0.00     0.169 HD
HETATM   19  O   UNL     1       7.667  25.949  58.460  1.00  0.00    -0.273 OA
BRANCH  17  20
HETATM   20  C   UNL     1       7.642  23.797  55.561  1.00  0.00     0.035 A 
HETATM   21  C   UNL     1       7.784  22.427  55.348  1.00  0.00     0.036 A 
HETATM   22  C   UNL     1       7.870  21.899  54.046  1.00  0.00    -0.059 A 
HETATM   23  C   UNL     1       8.110  20.430  53.842  1.00  0.00     0.048 C 
HETATM   24  C   UNL     1       7.809  22.759  52.947  1.00  0.00     0.013 A 
HETATM   25  C   UNL     1       7.644  24.133  53.133  1.00  0.00    -0.059 A 
HETATM   26  C   UNL     1       7.583  24.640  54.439  1.00  0.00     0.036 A 
HETATM   27  C   UNL     1       7.604  25.060  51.953  1.00  0.00     0.048 C 
ENDBRANCH  17  20
ENDBRANCH  15  16
ENDBRANCH   1  15
TORSDOF 3
ENDMDL
MODEL 7
REMARK VINA RESULT:      -8.5      2.959      4.282
REMARK  3 active torsions:
REMARK  status: ('A' for Active; 'I' for Inactive)
REMARK    1  A    between atoms: C_4  and  N_5 
REMARK       I    between atoms: N_5  and  C_6 
REMARK    2  A    between atoms: C_6  and  C_7 
REMARK    3  A    between atoms: C_7  and  C_8 
ROOT
HETATM    1  C   UNL     1       6.875  24.443  56.269  1.00  0.00     0.286 C 
HETATM    2  N   UNL     1       8.337  24.031  56.400  1.00  0.00    -0.056 N 
HETATM    3  H   UNL     1       8.881  24.846  56.043  1.00  0.00     0.278 HD
HETATM    4  H   UNL     1       8.607  23.926  57.385  1.00  0.00     0.278 HD
HETATM    5  C   UNL     1       8.735  22.828  55.590  1.00  0.00     0.209 C 
HETATM    6  C   UNL     1       8.305  23.029  54.115  1.00  0.00     0.115 C 
HETATM    7  N   UNL     1       6.920  23.478  53.979  1.00  0.00    -0.353 N 
HETATM    8  C   UNL     1       6.354  24.406  54.818  1.00  0.00     0.249 C 
HETATM    9  O   UNL     1       5.400  25.074  54.434  1.00  0.00    -0.271 OA
HETATM   10  C   UNL     1       8.164  21.558  56.225  1.00  0.00     0.035 C 
HETATM   11  C   UNL     1       8.465  20.332  55.370  1.00  0.00     0.002 C 
HETATM   12  C   UNL     1       7.956  20.512  53.943  1.00  0.00     0.002 C 
HETATM   13  C   UNL     1       8.548  21.761  53.289  1.00  0.00     0.027 C 
HETATM   14  H   UNL     1       6.539  23.539  53.036  1.00  0.00     0.163 HD
ENDROOT
BRANCH   1  15
HETATM   15  C   UNL     1       6.593  25.802  56.930  1.00  0.00     0.146 C 
BRANCH  15  16
HETATM   16  C   UNL     1       7.714  26.782  56.705  1.00  0.00     0.224 C 
HETATM   17  N   UNL     1       7.601  27.848  55.870  1.00  0.00    -0.327 N 
HETATM   18  H   UNL     1       8.424  28.443  55.922  1.00  0.00     0.169 HD
HETATM   19  O   UNL     1       8.736  26.680  57.398  1.00  0.00    -0.273 OA
BRANCH  17  20
HETATM   20  C   UNL     1       6.609  28.310  54.980  1.00  0.00     0.035 A 
HETATM   21  C   UNL     1       6.552  28.058  53.610  1.00  0.00     0.036 A 
HETATM   22  C   UNL     1       5.528  28.600  52.813  1.00  0.00    -0.059 A 
HETATM   23  C   UNL     1       5.535  28.386  51.326  1.00  0.00     0.048 C 
HETATM   24  C   UNL     1       4.547  29.403  53.400  1.00  0.00     0.013 A 
HETATM   25  C   UNL     1       4.569  29.654  54.773  1.00  0.00    -0.059 A 
HETATM   26  C   UNL     1       5.611  29.122  55.546  1.00  0.00     0.036 A 
HETATM   27  C   UNL     1       3.531  30.538  55.401  1.00  0.00     0.048 C 
ENDBRANCH  17  20
ENDBRANCH  15  16
ENDBRANCH   1  15
TORSDOF 3
ENDMDL
MODEL 8
REMARK VINA RESULT:      -8.5      2.206      7.675
REMARK  3 active torsions:
REMARK  status: ('A' for Active; 'I' for Inactive)
REMARK    1  A    between atoms: C_4  and  N_5 
REMARK       I    between atoms: N_5  and  C_6 
REMARK    2  A    between atoms: C_6  and  C_7 
REMARK    3  A    between atoms: C_7  and  C_8 
ROOT
HETATM    1  C   UNL     1       6.269  29.441  57.302  1.00  0.00     0.286 C 
HETATM    2  N   UNL     1       6.191  30.940  57.039  1.00  0.00    -0.056 N 
HETATM    3  H   UNL     1       6.952  31.134  56.353  1.00  0.00     0.278 HD
HETATM    4  H   UNL     1       5.316  31.189  56.561  1.00  0.00     0.278 HD
HETATM    5  C   UNL     1       6.427  31.812  58.241  1.00  0.00     0.209 C 
HETATM    6  C   UNL     1       7.751  31.398  58.930  1.00  0.00     0.115 C 
HETATM    7  N   UNL     1       7.862  29.956  59.139  1.00  0.00    -0.353 N 
HETATM    8  C   UNL     1       7.453  29.036  58.205  1.00  0.00     0.249 C 
HETATM    9  O   UNL     1       7.945  27.914  58.196  1.00  0.00    -0.271 OA
HETATM   10  C   UNL     1       5.212  31.759  59.170  1.00  0.00     0.035 C 
HETATM   11  C   UNL     1       5.463  32.553  60.448  1.00  0.00     0.002 C 
HETATM   12  C   UNL     1       6.724  32.073  61.161  1.00  0.00     0.002 C 
HETATM   13  C   UNL     1       7.948  32.154  60.249  1.00  0.00     0.027 C 
HETATM   14  H   UNL     1       8.663  29.620  59.672  1.00  0.00     0.163 HD
ENDROOT
BRANCH   1  15
HETATM   15  C   UNL     1       6.252  28.620  56.002  1.00  0.00     0.146 C 
BRANCH  15  16
HETATM   16  C   UNL     1       4.984  27.822  55.854  1.00  0.00     0.224 C 
HETATM   17  N   UNL     1       4.980  26.497  55.557  1.00  0.00    -0.327 N 
HETATM   18  H   UNL     1       4.038  26.115  55.592  1.00  0.00     0.169 HD
HETATM   19  O   UNL     1       3.906  28.369  56.133  1.00  0.00    -0.273 OA
BRANCH  17  20
HETATM   20  C   UNL     1       5.976  25.550  55.234  1.00  0.00     0.035 A 
HETATM   21  C   UNL     1       6.583  24.662  56.120  1.00  0.00     0.036 A 
HETATM   22  C   UNL     1       7.591  23.780  55.689  1.00  0.00    -0.059 A 
HETATM   23  C   UNL     1       8.291  22.893  56.679  1.00  0.00     0.048 C 
HETATM   24  C   UNL     1       7.991  23.790  54.351  1.00  0.00     0.013 A 
HETATM   25  C   UNL     1       7.384  24.654  53.439  1.00  0.00    -0.059 A 
HETATM   26  C   UNL     1       6.397  25.540  53.893  1.00  0.00     0.036 A 
HETATM   27  C   UNL     1       7.831  24.684  52.006  1.00  0.00     0.048 C 
ENDBRANCH  17  20
ENDBRANCH  15  16
ENDBRANCH   1  15
TORSDOF 3
ENDMDL
MODEL 9
REMARK VINA RESULT:      -8.3      4.503      6.939
REMARK  3 active torsions:
REMARK  status: ('A' for Active; 'I' for Inactive)
REMARK    1  A    between atoms: C_4  and  N_5 
REMARK       I    between atoms: N_5  and  C_6 
REMARK    2  A    between atoms: C_6  and  C_7 
REMARK    3  A    between atoms: C_7  and  C_8 
ROOT
HETATM    1  C   UNL     1       5.833  25.601  54.257  1.00  0.00     0.286 C 
HETATM    2  N   UNL     1       7.242  25.621  54.837  1.00  0.00    -0.056 N 
HETATM    3  H   UNL     1       7.773  26.287  54.235  1.00  0.00     0.278 HD
HETATM    4  H   UNL     1       7.250  26.030  55.779  1.00  0.00     0.278 HD
HETATM    5  C   UNL     1       7.963  24.302  54.804  1.00  0.00     0.209 C 
HETATM    6  C   UNL     1       7.921  23.723  53.368  1.00  0.00     0.115 C 
HETATM    7  N   UNL     1       6.584  23.748  52.779  1.00  0.00    -0.353 N 
HETATM    8  C   UNL     1       5.721  24.805  52.939  1.00  0.00     0.249 C 
HETATM    9  O   UNL     1       4.840  25.005  52.112  1.00  0.00    -0.271 OA
HETATM   10  C   UNL     1       7.380  23.361  55.860  1.00  0.00     0.035 C 
HETATM   11  C   UNL     1       8.023  21.980  55.782  1.00  0.00     0.002 C 
HETATM   12  C   UNL     1       7.895  21.386  54.383  1.00  0.00     0.002 C 
HETATM   13  C   UNL     1       8.505  22.306  53.325  1.00  0.00     0.027 C 
HETATM   14  H   UNL     1       6.461  23.296  51.874  1.00  0.00     0.163 HD
ENDROOT
BRANCH   1  15
HETATM   15  C   UNL     1       5.245  27.014  54.107  1.00  0.00     0.146 C 
BRANCH  15  16
HETATM   16  C   UNL     1       6.229  27.971  53.486  1.00  0.00     0.224 C 
HETATM   17  N   UNL     1       6.016  28.565  52.283  1.00  0.00    -0.327 N 
HETATM   18  H   UNL     1       6.743  29.245  52.076  1.00  0.00     0.169 HD
HETATM   19  O   UNL     1       7.214  28.321  54.152  1.00  0.00    -0.273 OA
BRANCH  17  20
HETATM   20  C   UNL     1       5.021  28.461  51.287  1.00  0.00     0.035 A 
HETATM   21  C   UNL     1       3.745  29.020  51.340  1.00  0.00     0.036 A 
HETATM   22  C   UNL     1       2.822  28.823  50.297  1.00  0.00    -0.059 A 
HETATM   23  C   UNL     1       1.424  29.362  50.414  1.00  0.00     0.048 C 
HETATM   24  C   UNL     1       3.187  28.057  49.187  1.00  0.00     0.013 A 
HETATM   25  C   UNL     1       4.465  27.504  49.100  1.00  0.00    -0.059 A 
HETATM   26  C   UNL     1       5.363  27.695  50.160  1.00  0.00     0.036 A 
HETATM   27  C   UNL     1       4.850  26.660  47.920  1.00  0.00     0.048 C 
ENDBRANCH  17  20
ENDBRANCH  15  16
ENDBRANCH   1  15
TORSDOF 3
ENDMDL
MODEL 10
REMARK VINA RESULT:      -8.3      4.302      6.410
REMARK  3 active torsions:
REMARK  status: ('A' for Active; 'I' for Inactive)
REMARK    1  A    between atoms: C_4  and  N_5 
REMARK       I    between atoms: N_5  and  C_6 
REMARK    2  A    between atoms: C_6  and  C_7 
REMARK    3  A    between atoms: C_7  and  C_8 
ROOT
HETATM    1  C   UNL     1       5.832  31.561  58.134  1.00  0.00     0.286 C 
HETATM    2  N   UNL     1       4.976  30.299  58.146  1.00  0.00    -0.056 N 
HETATM    3  H   UNL     1       4.935  30.010  59.148  1.00  0.00     0.278 HD
HETATM    4  H   UNL     1       4.007  30.505  57.876  1.00  0.00     0.278 HD
HETATM    5  C   UNL     1       5.534  29.144  57.361  1.00  0.00     0.209 C 
HETATM    6  C   UNL     1       6.995  28.875  57.799  1.00  0.00     0.115 C 
HETATM    7  N   UNL     1       7.812  30.086  57.845  1.00  0.00    -0.353 N 
HETATM    8  C   UNL     1       7.338  31.284  58.320  1.00  0.00     0.249 C 
HETATM    9  O   UNL     1       8.122  32.120  58.757  1.00  0.00    -0.271 OA
HETATM   10  C   UNL     1       5.385  29.412  55.862  1.00  0.00     0.035 C 
HETATM   11  C   UNL     1       6.033  28.303  55.038  1.00  0.00     0.002 C 
HETATM   12  C   UNL     1       7.497  28.111  55.421  1.00  0.00     0.002 C 
HETATM   13  C   UNL     1       7.651  27.810  56.912  1.00  0.00     0.027 C 
HETATM   14  H   UNL     1       8.807  29.973  58.032  1.00  0.00     0.163 HD
ENDROOT
BRANCH   1  15
HETATM   15  C   UNL     1       5.330  32.614  59.136  1.00  0.00     0.146 C 
BRANCH  15  16
HETATM   16  C   UNL     1       4.320  32.042  60.096  1.00  0.00     0.224 C 
HETATM   17  N   UNL     1       4.547  31.952  61.432  1.00  0.00    -0.327 N 
HETATM   18  H   UNL     1       3.717  31.629  61.924  1.00  0.00     0.169 HD
HETATM   19  O   UNL     1       3.194  31.754  59.666  1.00  0.00    -0.273 OA
BRANCH  17  20
HETATM   20  C   UNL     1       5.649  32.219  62.272  1.00  0.00     0.035 A 
HETATM   21  C   UNL     1       5.600  32.835  63.521  1.00  0.00     0.036 A 
HETATM   22  C   UNL     1       6.773  33.078  64.258  1.00  0.00    -0.059 A 
HETATM   23  C   UNL     1       6.704  33.821  65.563  1.00  0.00     0.048 C 
HETATM   24  C   UNL     1       8.010  32.695  63.734  1.00  0.00     0.013 A 
HETATM   25  C   UNL     1       8.085  32.057  62.495  1.00  0.00    -0.059 A 
HETATM   26  C   UNL     1       6.906  31.844  61.767  1.00  0.00     0.036 A 
HETATM   27  C   UNL     1       9.415  31.667  61.920  1.00  0.00     0.048 C 
ENDBRANCH  17  20
ENDBRANCH  15  16
ENDBRANCH   1  15
TORSDOF 3
ENDMDL
