MODEL 1
REMARK VINA RESULT:      -8.3      0.000      0.000
REMARK  10 active torsions:
REMARK  status: ('A' for Active; 'I' for Inactive)
REMARK    1  A    between atoms: C_2  and  O_3 
REMARK    2  A    between atoms: O_3  and  C_4 
REMARK    3  A    between atoms: C_4  and  C_5 
REMARK    4  A    between atoms: C_6  and  N_7 
REMARK       I    between atoms: N_7  and  C_8 
REMARK    5  A    between atoms: C_14  and  O_15 
REMARK    6  A    between atoms: O_15  and  C_16 
REMARK    7  A    between atoms: C_16  and  C_17 
REMARK    8  A    between atoms: C_17  and  O_18 
REMARK    9  A    between atoms: C_17  and  C_19 
REMARK   10  A    between atoms: C_19  and  N_20 
ROOT
HETATM    1  C   UNL     1       6.438  31.025  58.009  1.00  0.00     0.085 A 
HETATM    2  C   UNL     1       7.522  30.416  58.623  1.00  0.00     0.094 A 
HETATM    3  S   UNL     1       8.032  29.026  57.804  1.00  0.00    -0.068 SA
HETATM    4  C   UNL     1       6.808  29.144  56.595  1.00  0.00     0.053 A 
HETATM    5  C   UNL     1       6.042  30.296  56.805  1.00  0.00     0.003 A 
HETATM    6  C   UNL     1       6.573  28.227  55.526  1.00  0.00     0.104 A 
HETATM    7  C   UNL     1       5.491  28.516  54.668  1.00  0.00     0.045 A 
HETATM    8 BR   UNL     1       4.839  27.367  53.295  1.00  0.00    -0.048 Br
HETATM    9  C   UNL     1       4.747  29.683  54.826  1.00  0.00     0.023 A 
HETATM   10  C   UNL     1       5.012  30.564  55.872  1.00  0.00     0.015 A 
ENDROOT
BRANCH   6  11
HETATM   11  O   UNL     1       7.369  27.107  55.500  1.00  0.00    -0.346 OA
BRANCH  11  12
HETATM   12  C   UNL     1       6.840  25.904  56.053  1.00  0.00     0.209 C 
BRANCH  12  13
HETATM   13  C   UNL     1       7.998  24.976  56.449  1.00  0.00     0.168 C 
BRANCH  13  14
HETATM   14  O   UNL     1       8.575  25.383  57.705  1.00  0.00    -0.392 OA
HETATM   15  H   UNL     1       7.844  25.340  58.361  1.00  0.00     0.210 HD
ENDBRANCH  13  14
BRANCH  13  16
HETATM   16  C   UNL     1       7.475  23.540  56.637  1.00  0.00     0.268 C 
BRANCH  16  17
HETATM   17  N   UNL     1       7.988  22.661  55.500  1.00  0.00    -0.069 N 
HETATM   18  H   UNL     1       8.988  22.938  55.428  1.00  0.00     0.280 HD
HETATM   19  C   UNL     1       7.938  21.196  55.850  1.00  0.00     0.235 C 
HETATM   20  C   UNL     1       8.567  20.368  54.741  1.00  0.00     0.028 C 
HETATM   21  C   UNL     1       7.920  20.654  53.392  1.00  0.00     0.003 C 
HETATM   22  C   UNL     1       7.971  22.143  53.075  1.00  0.00     0.028 C 
HETATM   23  C   UNL     1       7.336  22.976  54.180  1.00  0.00     0.235 C 
ENDBRANCH  16  17
ENDBRANCH  13  16
ENDBRANCH  12  13
ENDBRANCH  11  12
ENDBRANCH   6  11
BRANCH   2  24
HETATM   24  N   UNL     1       8.157  30.829  59.789  1.00  0.00    -0.321 N 
HETATM   25  C   UNL     1       9.174  31.759  59.917  1.00  0.00     0.218 C 
HETATM   26  C   UNL     1       9.645  31.898  61.346  1.00  0.00     0.117 C 
HETATM   27  O   UNL     1       9.700  32.419  59.028  1.00  0.00    -0.274 OA
HETATM   28  H   UNL     1       7.816  30.389  60.640  1.00  0.00     0.169 HD
ENDBRANCH   2  24
BRANCH   1  29
HETATM   29  C   UNL     1       5.751  32.228  58.503  1.00  0.00     0.297 C 
HETATM   30  O   UNL     1       5.660  33.264  57.857  1.00  0.00    -0.259 OA
BRANCH  29  31
HETATM   31  O   UNL     1       5.205  32.073  59.752  1.00  0.00    -0.318 OA
BRANCH  31  32
HETATM   32  C   UNL     1       5.226  33.244  60.588  1.00  0.00     0.174 C 
HETATM   33  C   UNL     1       6.114  33.025  61.799  1.00  0.00     0.034 C 
ENDBRANCH  31  32
ENDBRANCH  29  31
ENDBRANCH   1  29
TORSDOF 10
ENDMDL
MODEL 2
REMARK VINA RESULT:      -8.1      3.867      6.187
REMARK  10 active torsions:
REMARK  status: ('A' for Active; 'I' for Inactive)
REMARK    1  A    between atoms: C_2  and  O_3 
REMARK    2  A    between atoms: O_3  and  C_4 
REMARK    3  A    between atoms: C_4  and  C_5 
REMARK    4  A    between atoms: C_6  and  N_7 
REMARK       I    between atoms: N_7  and  C_8 
REMARK    5  A    between atoms: C_14  and  O_15 
REMARK    6  A    between atoms: O_15  and  C_16 
REMARK    7  A    between atoms: C_16  and  C_17 
REMARK    8  A    between atoms: C_17  and  O_18 
REMARK    9  A    between atoms: C_17  and  C_19 
REMARK   10  A    between atoms: C_19  and  N_20 
ROOT
HETATM    1  C   UNL     1       7.397  28.398  56.782  1.00  0.00     0.085 A 
HETATM    2  C   UNL     1       6.385  28.849  55.948  1.00  0.00     0.094 A 
HETATM    3  S   UNL     1       5.660  27.592  55.076  1.00  0.00    -0.068 SA
HETATM    4  C   UNL     1       6.683  26.377  55.745  1.00  0.00     0.053 A 
HETATM    5  C   UNL     1       7.549  26.947  56.685  1.00  0.00     0.003 A 
HETATM    6  C   UNL     1       6.685  24.986  55.417  1.00  0.00     0.104 A 
HETATM    7  C   UNL     1       7.635  24.179  56.076  1.00  0.00     0.045 A 
HETATM    8 BR   UNL     1       7.983  22.347  55.685  1.00  0.00    -0.048 Br
HETATM    9  C   UNL     1       8.471  24.715  57.053  1.00  0.00     0.023 A 
HETATM   10  C   UNL     1       8.434  26.073  57.360  1.00  0.00     0.015 A 
ENDROOT
BRANCH   6  11
HETATM   11  O   UNL     1       5.820  24.597  54.421  1.00  0.00    -0.346 OA
BRANCH  11  12
HETATM   12  C   UNL     1       6.297  24.629  53.078  1.00  0.00     0.209 C 
BRANCH  12  13
HETATM   13  C   UNL     1       5.149  25.033  52.142  1.00  0.00     0.168 C 
BRANCH  13  14
HETATM   14  O   UNL     1       3.975  25.393  52.896  1.00  0.00    -0.392 OA
HETATM   15  H   UNL     1       3.276  24.759  52.621  1.00  0.00     0.210 HD
ENDBRANCH  13  14
BRANCH  13  16
HETATM   16  C   UNL     1       5.554  26.271  51.320  1.00  0.00     0.268 C 
BRANCH  16  17
HETATM   17  N   UNL     1       4.349  26.768  50.527  1.00  0.00    -0.069 N 
HETATM   18  H   UNL     1       3.549  26.330  51.027  1.00  0.00     0.280 HD
HETATM   19  C   UNL     1       4.190  28.265  50.620  1.00  0.00     0.235 C 
HETATM   20  C   UNL     1       2.914  28.702  49.918  1.00  0.00     0.028 C 
HETATM   21  C   UNL     1       2.870  28.212  48.477  1.00  0.00     0.003 C 
HETATM   22  C   UNL     1       3.052  26.701  48.415  1.00  0.00     0.028 C 
HETATM   23  C   UNL     1       4.331  26.258  49.111  1.00  0.00     0.235 C 
ENDBRANCH  16  17
ENDBRANCH  13  16
ENDBRANCH  12  13
ENDBRANCH  11  12
ENDBRANCH   6  11
BRANCH   2  24
HETATM   24  N   UNL     1       5.972  30.165  55.779  1.00  0.00    -0.321 N 
HETATM   25  C   UNL     1       5.104  30.890  56.576  1.00  0.00     0.218 C 
HETATM   26  C   UNL     1       4.853  32.278  56.034  1.00  0.00     0.117 C 
HETATM   27  O   UNL     1       4.546  30.521  57.603  1.00  0.00    -0.274 OA
HETATM   28  H   UNL     1       6.368  30.637  54.970  1.00  0.00     0.169 HD
ENDBRANCH   2  24
BRANCH   1  29
HETATM   29  C   UNL     1       8.233  29.255  57.637  1.00  0.00     0.297 C 
HETATM   30  O   UNL     1       8.266  29.159  58.857  1.00  0.00    -0.259 OA
BRANCH  29  31
HETATM   31  O   UNL     1       8.987  30.160  56.936  1.00  0.00    -0.318 OA
BRANCH  31  32
HETATM   32  C   UNL     1      10.135  29.619  56.257  1.00  0.00     0.174 C 
HETATM   33  C   UNL     1      11.369  29.702  57.135  1.00  0.00     0.034 C 
ENDBRANCH  31  32
ENDBRANCH  29  31
ENDBRANCH   1  29
TORSDOF 10
ENDMDL
MODEL 3
REMARK VINA RESULT:      -8.0      4.288     10.829
REMARK  10 active torsions:
REMARK  status: ('A' for Active; 'I' for Inactive)
REMARK    1  A    between atoms: C_2  and  O_3 
REMARK    2  A    between atoms: O_3  and  C_4 
REMARK    3  A    between atoms: C_4  and  C_5 
REMARK    4  A    between atoms: C_6  and  N_7 
REMARK       I    between atoms: N_7  and  C_8 
REMARK    5  A    between atoms: C_14  and  O_15 
REMARK    6  A    between atoms: O_15  and  C_16 
REMARK    7  A    between atoms: C_16  and  C_17 
REMARK    8  A    between atoms: C_17  and  O_18 
REMARK    9  A    between atoms: C_17  and  C_19 
REMARK   10  A    between atoms: C_19  and  N_20 
ROOT
HETATM    1  C   UNL     1       7.615  30.899  58.999  1.00  0.00     0.085 A 
HETATM    2  C   UNL     1       6.472  31.304  58.326  1.00  0.00     0.094 A 
HETATM    3  S   UNL     1       5.535  32.381  59.236  1.00  0.00    -0.068 SA
HETATM    4  C   UNL     1       6.595  32.341  60.595  1.00  0.00     0.053 A 
HETATM    5  C   UNL     1       7.701  31.532  60.314  1.00  0.00     0.003 A 
HETATM    6  C   UNL     1       6.410  33.014  61.842  1.00  0.00     0.104 A 
HETATM    7  C   UNL     1       7.401  32.813  62.825  1.00  0.00     0.045 A 
HETATM    8 BR   UNL     1       7.303  33.426  64.627  1.00  0.00    -0.048 Br
HETATM    9  C   UNL     1       8.536  32.054  62.550  1.00  0.00     0.023 A 
HETATM   10  C   UNL     1       8.693  31.423  61.318  1.00  0.00     0.015 A 
ENDROOT
BRANCH   6  11
HETATM   11  O   UNL     1       5.235  33.714  61.986  1.00  0.00    -0.346 OA
BRANCH  11  12
HETATM   12  C   UNL     1       4.168  33.081  62.690  1.00  0.00     0.209 C 
BRANCH  12  13
HETATM   13  C   UNL     1       3.122  34.136  63.078  1.00  0.00     0.168 C 
BRANCH  13  14
HETATM   14  O   UNL     1       1.905  33.509  63.530  1.00  0.00    -0.392 OA
HETATM   15  H   UNL     1       2.173  32.633  63.889  1.00  0.00     0.210 HD
ENDBRANCH  13  14
BRANCH  13  16
HETATM   16  C   UNL     1       3.649  34.990  64.246  1.00  0.00     0.268 C 
BRANCH  16  17
HETATM   17  N   UNL     1       4.007  36.382  63.733  1.00  0.00    -0.069 N 
HETATM   18  H   UNL     1       3.588  37.006  64.452  1.00  0.00     0.280 HD
HETATM   19  C   UNL     1       5.496  36.617  63.728  1.00  0.00     0.235 C 
HETATM   20  C   UNL     1       5.801  38.052  63.327  1.00  0.00     0.028 C 
HETATM   21  C   UNL     1       5.163  38.407  61.990  1.00  0.00     0.003 C 
HETATM   22  C   UNL     1       3.663  38.142  62.021  1.00  0.00     0.028 C 
HETATM   23  C   UNL     1       3.353  36.705  62.417  1.00  0.00     0.235 C 
ENDBRANCH  16  17
ENDBRANCH  13  16
ENDBRANCH  12  13
ENDBRANCH  11  12
ENDBRANCH   6  11
BRANCH   2  24
HETATM   24  N   UNL     1       6.065  30.900  57.060  1.00  0.00    -0.321 N 
HETATM   25  C   UNL     1       5.354  29.762  56.721  1.00  0.00     0.218 C 
HETATM   26  C   UNL     1       5.149  29.639  55.229  1.00  0.00     0.117 C 
HETATM   27  O   UNL     1       4.922  28.898  57.475  1.00  0.00    -0.274 OA
HETATM   28  H   UNL     1       6.326  31.530  56.306  1.00  0.00     0.169 HD
ENDBRANCH   2  24
BRANCH   1  29
HETATM   29  C   UNL     1       8.606  29.942  58.482  1.00  0.00     0.297 C 
HETATM   30  O   UNL     1       9.737  30.264  58.142  1.00  0.00    -0.259 OA
BRANCH  29  31
HETATM   31  O   UNL     1       8.148  28.651  58.436  1.00  0.00    -0.318 OA
BRANCH  31  32
HETATM   32  C   UNL     1       8.483  27.916  57.245  1.00  0.00     0.174 C 
HETATM   33  C   UNL     1       7.665  26.641  57.152  1.00  0.00     0.034 C 
ENDBRANCH  31  32
ENDBRANCH  29  31
ENDBRANCH   1  29
TORSDOF 10
ENDMDL
MODEL 4
REMARK VINA RESULT:      -7.8      4.900     10.381
REMARK  10 active torsions:
REMARK  status: ('A' for Active; 'I' for Inactive)
REMARK    1  A    between atoms: C_2  and  O_3 
REMARK    2  A    between atoms: O_3  and  C_4 
REMARK    3  A    between atoms: C_4  and  C_5 
REMARK    4  A    between atoms: C_6  and  N_7 
REMARK       I    between atoms: N_7  and  C_8 
REMARK    5  A    between atoms: C_14  and  O_15 
REMARK    6  A    between atoms: O_15  and  C_16 
REMARK    7  A    between atoms: C_16  and  C_17 
REMARK    8  A    between atoms: C_17  and  O_18 
REMARK    9  A    between atoms: C_17  and  C_19 
REMARK   10  A    between atoms: C_19  and  N_20 
ROOT
HETATM    1  C   UNL     1       7.413  30.225  58.035  1.00  0.00     0.085 A 
HETATM    2  C   UNL     1       6.310  30.780  57.403  1.00  0.00     0.094 A 
HETATM    3  S   UNL     1       5.550  31.958  58.351  1.00  0.00    -0.068 SA
HETATM    4  C   UNL     1       6.639  31.770  59.673  1.00  0.00     0.053 A 
HETATM    5  C   UNL     1       7.623  30.829  59.350  1.00  0.00     0.003 A 
HETATM    6  C   UNL     1       6.582  32.448  60.929  1.00  0.00     0.104 A 
HETATM    7  C   UNL     1       7.571  32.112  61.877  1.00  0.00     0.045 A 
HETATM    8 BR   UNL     1       7.611  32.714  63.684  1.00  0.00    -0.048 Br
HETATM    9  C   UNL     1       8.590  31.217  61.560  1.00  0.00     0.023 A 
HETATM   10  C   UNL     1       8.624  30.583  60.319  1.00  0.00     0.015 A 
ENDROOT
BRANCH   6  11
HETATM   11  O   UNL     1       5.513  33.291  61.116  1.00  0.00    -0.346 OA
BRANCH  11  12
HETATM   12  C   UNL     1       4.314  32.733  61.650  1.00  0.00     0.209 C 
BRANCH  12  13
HETATM   13  C   UNL     1       3.141  33.679  61.358  1.00  0.00     0.168 C 
BRANCH  13  14
HETATM   14  O   UNL     1       2.214  33.076  60.434  1.00  0.00    -0.392 OA
HETATM   15  H   UNL     1       1.317  33.325  60.753  1.00  0.00     0.210 HD
ENDBRANCH  13  14
BRANCH  13  16
HETATM   16  C   UNL     1       2.362  33.962  62.656  1.00  0.00     0.268 C 
BRANCH  16  17
HETATM   17  N   UNL     1       2.950  35.193  63.341  1.00  0.00    -0.069 N 
HETATM   18  H   UNL     1       2.107  35.670  63.718  1.00  0.00     0.280 HD
HETATM   19  C   UNL     1       3.834  34.824  64.505  1.00  0.00     0.235 C 
HETATM   20  C   UNL     1       4.300  36.077  65.230  1.00  0.00     0.028 C 
HETATM   21  C   UNL     1       4.986  37.051  64.280  1.00  0.00     0.003 C 
HETATM   22  C   UNL     1       4.076  37.390  63.106  1.00  0.00     0.028 C 
HETATM   23  C   UNL     1       3.611  36.139  62.374  1.00  0.00     0.235 C 
ENDBRANCH  16  17
ENDBRANCH  13  16
ENDBRANCH  12  13
ENDBRANCH  11  12
ENDBRANCH   6  11
BRANCH   2  24
HETATM   24  N   UNL     1       5.814  30.444  56.149  1.00  0.00    -0.321 N 
HETATM   25  C   UNL     1       5.094  29.316  55.797  1.00  0.00     0.218 C 
HETATM   26  C   UNL     1       4.779  29.276  54.320  1.00  0.00     0.117 C 
HETATM   27  O   UNL     1       4.733  28.401  56.528  1.00  0.00    -0.274 OA
HETATM   28  H   UNL     1       6.008  31.122  55.417  1.00  0.00     0.169 HD
ENDBRANCH   2  24
BRANCH   1  29
HETATM   29  C   UNL     1       8.256  29.154  57.480  1.00  0.00     0.297 C 
HETATM   30  O   UNL     1       8.322  28.032  57.964  1.00  0.00    -0.259 OA
BRANCH  29  31
HETATM   31  O   UNL     1       8.948  29.528  56.357  1.00  0.00    -0.318 OA
BRANCH  31  32
HETATM   32  C   UNL     1      10.376  29.364  56.424  1.00  0.00     0.174 C 
HETATM   33  C   UNL     1      10.986  30.353  57.399  1.00  0.00     0.034 C 
ENDBRANCH  31  32
ENDBRANCH  29  31
ENDBRANCH   1  29
TORSDOF 10
ENDMDL
MODEL 5
REMARK VINA RESULT:      -7.6      5.532      8.800
REMARK  10 active torsions:
REMARK  status: ('A' for Active; 'I' for Inactive)
REMARK    1  A    between atoms: C_2  and  O_3 
REMARK    2  A    between atoms: O_3  and  C_4 
REMARK    3  A    between atoms: C_4  and  C_5 
REMARK    4  A    between atoms: C_6  and  N_7 
REMARK       I    between atoms: N_7  and  C_8 
REMARK    5  A    between atoms: C_14  and  O_15 
REMARK    6  A    between atoms: O_15  and  C_16 
REMARK    7  A    between atoms: C_16  and  C_17 
REMARK    8  A    between atoms: C_17  and  O_18 
REMARK    9  A    between atoms: C_17  and  C_19 
REMARK   10  A    between atoms: C_19  and  N_20 
ROOT
HETATM    1  C   UNL     1       6.262  26.201  54.448  1.00  0.00     0.085 A 
HETATM    2  C   UNL     1       7.029  25.407  53.609  1.00  0.00     0.094 A 
HETATM    3  S   UNL     1       6.696  25.688  51.973  1.00  0.00    -0.068 SA
HETATM    4  C   UNL     1       5.484  26.869  52.299  1.00  0.00     0.053 A 
HETATM    5  C   UNL     1       5.381  27.078  53.679  1.00  0.00     0.003 A 
HETATM    6  C   UNL     1       4.679  27.554  51.338  1.00  0.00     0.104 A 
HETATM    7  C   UNL     1       3.726  28.464  51.841  1.00  0.00     0.045 A 
HETATM    8 BR   UNL     1       2.401  29.356  50.802  1.00  0.00    -0.048 Br
HETATM    9  C   UNL     1       3.642  28.727  53.207  1.00  0.00     0.023 A 
HETATM   10  C   UNL     1       4.453  28.052  54.116  1.00  0.00     0.015 A 
ENDROOT
BRANCH   6  11
HETATM   11  O   UNL     1       4.853  27.183  50.026  1.00  0.00    -0.346 OA
BRANCH  11  12
HETATM   12  C   UNL     1       5.564  28.078  49.173  1.00  0.00     0.209 C 
BRANCH  12  13
HETATM   13  C   UNL     1       5.124  27.851  47.720  1.00  0.00     0.168 C 
BRANCH  13  14
HETATM   14  O   UNL     1       6.200  27.295  46.938  1.00  0.00    -0.392 OA
HETATM   15  H   UNL     1       6.224  27.819  46.107  1.00  0.00     0.210 HD
ENDBRANCH  13  14
BRANCH  13  16
HETATM   16  C   UNL     1       3.966  26.836  47.677  1.00  0.00     0.268 C 
BRANCH  16  17
HETATM   17  N   UNL     1       2.640  27.586  47.575  1.00  0.00    -0.069 N 
HETATM   18  H   UNL     1       2.352  27.678  48.570  1.00  0.00     0.280 HD
HETATM   19  C   UNL     1       2.816  28.973  47.013  1.00  0.00     0.235 C 
HETATM   20  C   UNL     1       1.494  29.724  47.041  1.00  0.00     0.028 C 
HETATM   21  C   UNL     1       0.395  28.952  46.321  1.00  0.00     0.003 C 
HETATM   22  C   UNL     1       0.254  27.550  46.900  1.00  0.00     0.028 C 
HETATM   23  C   UNL     1       1.574  26.792  46.869  1.00  0.00     0.235 C 
ENDBRANCH  16  17
ENDBRANCH  13  16
ENDBRANCH  12  13
ENDBRANCH  11  12
ENDBRANCH   6  11
BRANCH   2  24
HETATM   24  N   UNL     1       7.965  24.454  53.992  1.00  0.00    -0.321 N 
HETATM   25  C   UNL     1       7.986  23.108  53.671  1.00  0.00     0.218 C 
HETATM   26  C   UNL     1       9.137  22.381  54.325  1.00  0.00     0.117 C 
HETATM   27  O   UNL     1       7.193  22.496  52.964  1.00  0.00    -0.274 OA
HETATM   28  H   UNL     1       8.721  24.807  54.574  1.00  0.00     0.169 HD
ENDBRANCH   2  24
BRANCH   1  29
HETATM   29  C   UNL     1       6.299  26.160  55.918  1.00  0.00     0.297 C 
HETATM   30  O   UNL     1       5.319  25.913  56.610  1.00  0.00    -0.259 OA
BRANCH  29  31
HETATM   31  O   UNL     1       7.542  26.408  56.442  1.00  0.00    -0.318 OA
BRANCH  31  32
HETATM   32  C   UNL     1       7.842  25.732  57.676  1.00  0.00     0.174 C 
HETATM   33  C   UNL     1       8.811  24.587  57.440  1.00  0.00     0.034 C 
ENDBRANCH  31  32
ENDBRANCH  29  31
ENDBRANCH   1  29
TORSDOF 10
ENDMDL
MODEL 6
REMARK VINA RESULT:      -7.6      4.485     10.251
REMARK  10 active torsions:
REMARK  status: ('A' for Active; 'I' for Inactive)
REMARK    1  A    between atoms: C_2  and  O_3 
REMARK    2  A    between atoms: O_3  and  C_4 
REMARK    3  A    between atoms: C_4  and  C_5 
REMARK    4  A    between atoms: C_6  and  N_7 
REMARK       I    between atoms: N_7  and  C_8 
REMARK    5  A    between atoms: C_14  and  O_15 
REMARK    6  A    between atoms: O_15  and  C_16 
REMARK    7  A    between atoms: C_16  and  C_17 
REMARK    8  A    between atoms: C_17  and  O_18 
REMARK    9  A    between atoms: C_17  and  C_19 
REMARK   10  A    between atoms: C_19  and  N_20 
ROOT
HETATM    1  C   UNL     1       7.553  31.160  59.273  1.00  0.00     0.085 A 
HETATM    2  C   UNL     1       6.419  31.555  58.580  1.00  0.00     0.094 A 
HETATM    3  S   UNL     1       5.437  32.593  59.488  1.00  0.00    -0.068 SA
HETATM    4  C   UNL     1       6.463  32.547  60.872  1.00  0.00     0.053 A 
HETATM    5  C   UNL     1       7.593  31.767  60.603  1.00  0.00     0.003 A 
HETATM    6  C   UNL     1       6.233  33.190  62.127  1.00  0.00     0.104 A 
HETATM    7  C   UNL     1       7.203  32.989  63.131  1.00  0.00     0.045 A 
HETATM    8 BR   UNL     1       7.048  33.563  64.941  1.00  0.00    -0.048 Br
HETATM    9  C   UNL     1       8.361  32.260  62.869  1.00  0.00     0.023 A 
HETATM   10  C   UNL     1       8.561  31.658  61.629  1.00  0.00     0.015 A 
ENDROOT
BRANCH   6  11
HETATM   11  O   UNL     1       5.041  33.862  62.255  1.00  0.00    -0.346 OA
BRANCH  11  12
HETATM   12  C   UNL     1       3.929  33.146  62.790  1.00  0.00     0.209 C 
BRANCH  12  13
HETATM   13  C   UNL     1       2.647  33.962  62.571  1.00  0.00     0.168 C 
BRANCH  13  14
HETATM   14  O   UNL     1       1.732  33.783  63.670  1.00  0.00    -0.392 OA
HETATM   15  H   UNL     1       1.651  32.811  63.795  1.00  0.00     0.210 HD
ENDBRANCH  13  14
BRANCH  13  16
HETATM   16  C   UNL     1       2.987  35.462  62.507  1.00  0.00     0.268 C 
BRANCH  16  17
HETATM   17  N   UNL     1       2.602  36.010  61.135  1.00  0.00    -0.069 N 
HETATM   18  H   UNL     1       2.075  36.874  61.374  1.00  0.00     0.280 HD
HETATM   19  C   UNL     1       3.809  36.412  60.327  1.00  0.00     0.235 C 
HETATM   20  C   UNL     1       3.376  37.062  59.022  1.00  0.00     0.028 C 
HETATM   21  C   UNL     1       2.436  36.160  58.233  1.00  0.00     0.003 C 
HETATM   22  C   UNL     1       1.236  35.757  59.081  1.00  0.00     0.028 C 
HETATM   23  C   UNL     1       1.664  35.101  60.386  1.00  0.00     0.235 C 
ENDBRANCH  16  17
ENDBRANCH  13  16
ENDBRANCH  12  13
ENDBRANCH  11  12
ENDBRANCH   6  11
BRANCH   2  24
HETATM   24  N   UNL     1       6.053  31.169  57.296  1.00  0.00    -0.321 N 
HETATM   25  C   UNL     1       5.285  30.079  56.926  1.00  0.00     0.218 C 
HETATM   26  C   UNL     1       5.151  29.957  55.425  1.00  0.00     0.117 C 
HETATM   27  O   UNL     1       4.758  29.251  57.659  1.00  0.00    -0.274 OA
HETATM   28  H   UNL     1       6.394  31.775  56.554  1.00  0.00     0.169 HD
ENDBRANCH   2  24
BRANCH   1  29
HETATM   29  C   UNL     1       8.577  30.235  58.763  1.00  0.00     0.297 C 
HETATM   30  O   UNL     1       9.725  30.576  58.507  1.00  0.00    -0.259 OA
BRANCH  29  31
HETATM   31  O   UNL     1       8.129  28.948  58.618  1.00  0.00    -0.318 OA
BRANCH  31  32
HETATM   32  C   UNL     1       8.481  28.303  57.381  1.00  0.00     0.174 C 
HETATM   33  C   UNL     1       7.575  27.115  57.116  1.00  0.00     0.034 C 
ENDBRANCH  31  32
ENDBRANCH  29  31
ENDBRANCH   1  29
TORSDOF 10
ENDMDL
MODEL 7
REMARK VINA RESULT:      -7.5      2.979      8.741
REMARK  10 active torsions:
REMARK  status: ('A' for Active; 'I' for Inactive)
REMARK    1  A    between atoms: C_2  and  O_3 
REMARK    2  A    between atoms: O_3  and  C_4 
REMARK    3  A    between atoms: C_4  and  C_5 
REMARK    4  A    between atoms: C_6  and  N_7 
REMARK       I    between atoms: N_7  and  C_8 
REMARK    5  A    between atoms: C_14  and  O_15 
REMARK    6  A    between atoms: O_15  and  C_16 
REMARK    7  A    between atoms: C_16  and  C_17 
REMARK    8  A    between atoms: C_17  and  O_18 
REMARK    9  A    between atoms: C_17  and  C_19 
REMARK   10  A    between atoms: C_19  and  N_20 
ROOT
HETATM    1  C   UNL     1       5.328  26.468  53.023  1.00  0.00     0.085 A 
HETATM    2  C   UNL     1       6.018  25.707  53.955  1.00  0.00     0.094 A 
HETATM    3  S   UNL     1       6.123  26.471  55.461  1.00  0.00    -0.068 SA
HETATM    4  C   UNL     1       5.275  27.879  54.941  1.00  0.00     0.053 A 
HETATM    5  C   UNL     1       4.866  27.724  53.611  1.00  0.00     0.003 A 
HETATM    6  C   UNL     1       5.009  29.050  55.714  1.00  0.00     0.104 A 
HETATM    7  C   UNL     1       4.316  30.094  55.066  1.00  0.00     0.045 A 
HETATM    8 BR   UNL     1       4.008  31.828  55.795  1.00  0.00    -0.048 Br
HETATM    9  C   UNL     1       3.855  29.943  53.760  1.00  0.00     0.023 A 
HETATM   10  C   UNL     1       4.119  28.781  53.039  1.00  0.00     0.015 A 
ENDROOT
BRANCH   6  11
HETATM   11  O   UNL     1       5.539  29.074  56.981  1.00  0.00    -0.346 OA
BRANCH  11  12
HETATM   12  C   UNL     1       6.776  29.757  57.171  1.00  0.00     0.209 C 
BRANCH  12  13
HETATM   13  C   UNL     1       7.552  29.093  58.316  1.00  0.00     0.168 C 
BRANCH  13  14
HETATM   14  O   UNL     1       8.313  27.967  57.835  1.00  0.00    -0.392 OA
HETATM   15  H   UNL     1       9.254  28.254  57.851  1.00  0.00     0.210 HD
ENDBRANCH  13  14
BRANCH  13  16
HETATM   16  C   UNL     1       8.558  30.093  58.916  1.00  0.00     0.268 C 
BRANCH  16  17
HETATM   17  N   UNL     1       8.032  30.597  60.257  1.00  0.00    -0.069 N 
HETATM   18  H   UNL     1       7.308  29.891  60.499  1.00  0.00     0.280 HD
HETATM   19  C   UNL     1       9.091  30.562  61.329  1.00  0.00     0.235 C 
HETATM   20  C   UNL     1       8.494  30.957  62.671  1.00  0.00     0.028 C 
HETATM   21  C   UNL     1       7.800  32.311  62.599  1.00  0.00     0.003 C 
HETATM   22  C   UNL     1       6.750  32.320  61.496  1.00  0.00     0.028 C 
HETATM   23  C   UNL     1       7.343  31.931  60.149  1.00  0.00     0.235 C 
ENDBRANCH  16  17
ENDBRANCH  13  16
ENDBRANCH  12  13
ENDBRANCH  11  12
ENDBRANCH   6  11
BRANCH   2  24
HETATM   24  N   UNL     1       6.602  24.463  53.744  1.00  0.00    -0.321 N 
HETATM   25  C   UNL     1       7.678  24.159  52.929  1.00  0.00     0.218 C 
HETATM   26  C   UNL     1       7.987  22.680  52.917  1.00  0.00     0.117 C 
HETATM   27  O   UNL     1       8.343  24.932  52.249  1.00  0.00    -0.274 OA
HETATM   28  H   UNL     1       6.178  23.699  54.264  1.00  0.00     0.169 HD
ENDBRANCH   2  24
BRANCH   1  29
HETATM   29  C   UNL     1       5.103  26.087  51.620  1.00  0.00     0.297 C 
HETATM   30  O   UNL     1       4.643  25.004  51.282  1.00  0.00    -0.259 OA
BRANCH  29  31
HETATM   31  O   UNL     1       5.441  27.069  50.725  1.00  0.00    -0.318 OA
BRANCH  31  32
HETATM   32  C   UNL     1       4.680  27.084  49.503  1.00  0.00     0.174 C 
HETATM   33  C   UNL     1       5.185  28.168  48.569  1.00  0.00     0.034 C 
ENDBRANCH  31  32
ENDBRANCH  29  31
ENDBRANCH   1  29
TORSDOF 10
ENDMDL
MODEL 8
REMARK VINA RESULT:      -7.4      4.587      8.220
REMARK  10 active torsions:
REMARK  status: ('A' for Active; 'I' for Inactive)
REMARK    1  A    between atoms: C_2  and  O_3 
REMARK    2  A    between atoms: O_3  and  C_4 
REMARK    3  A    between atoms: C_4  and  C_5 
REMARK    4  A    between atoms: C_6  and  N_7 
REMARK       I    between atoms: N_7  and  C_8 
REMARK    5  A    between atoms: C_14  and  O_15 
REMARK    6  A    between atoms: O_15  and  C_16 
REMARK    7  A    between atoms: C_16  and  C_17 
REMARK    8  A    between atoms: C_17  and  O_18 
REMARK    9  A    between atoms: C_17  and  C_19 
REMARK   10  A    between atoms: C_19  and  N_20 
ROOT
HETATM    1  C   UNL     1       6.608  26.017  55.643  1.00  0.00     0.085 A 
HETATM    2  C   UNL     1       6.265  25.313  54.499  1.00  0.00     0.094 A 
HETATM    3  S   UNL     1       5.133  26.138  53.549  1.00  0.00    -0.068 SA
HETATM    4  C   UNL     1       5.016  27.472  54.634  1.00  0.00     0.053 A 
HETATM    5  C   UNL     1       5.900  27.295  55.704  1.00  0.00     0.003 A 
HETATM    6  C   UNL     1       4.159  28.608  54.502  1.00  0.00     0.104 A 
HETATM    7  C   UNL     1       4.216  29.569  55.532  1.00  0.00     0.045 A 
HETATM    8 BR   UNL     1       3.050  31.066  55.705  1.00  0.00    -0.048 Br
HETATM    9  C   UNL     1       5.124  29.439  56.581  1.00  0.00     0.023 A 
HETATM   10  C   UNL     1       5.957  28.326  56.671  1.00  0.00     0.015 A 
ENDROOT
BRANCH   6  11
HETATM   11  O   UNL     1       3.300  28.598  53.429  1.00  0.00    -0.346 OA
BRANCH  11  12
HETATM   12  C   UNL     1       3.607  29.446  52.325  1.00  0.00     0.209 C 
BRANCH  12  13
HETATM   13  C   UNL     1       2.614  29.175  51.186  1.00  0.00     0.168 C 
BRANCH  13  14
HETATM   14  O   UNL     1       1.710  30.285  51.018  1.00  0.00    -0.392 OA
HETATM   15  H   UNL     1       1.449  30.556  51.927  1.00  0.00     0.210 HD
ENDBRANCH  13  14
BRANCH  13  16
HETATM   16  C   UNL     1       3.375  29.009  49.857  1.00  0.00     0.268 C 
BRANCH  16  17
HETATM   17  N   UNL     1       2.863  27.768  49.132  1.00  0.00    -0.069 N 
HETATM   18  H   UNL     1       2.178  27.374  49.807  1.00  0.00     0.280 HD
HETATM   19  C   UNL     1       2.118  28.118  47.868  1.00  0.00     0.235 C 
HETATM   20  C   UNL     1       1.524  26.865  47.244  1.00  0.00     0.028 C 
HETATM   21  C   UNL     1       2.587  25.801  47.003  1.00  0.00     0.003 C 
HETATM   22  C   UNL     1       3.333  25.482  48.293  1.00  0.00     0.028 C 
HETATM   23  C   UNL     1       3.934  26.733  48.919  1.00  0.00     0.235 C 
ENDBRANCH  16  17
ENDBRANCH  13  16
ENDBRANCH  12  13
ENDBRANCH  11  12
ENDBRANCH   6  11
BRANCH   2  24
HETATM   24  N   UNL     1       6.737  24.062  54.120  1.00  0.00    -0.321 N 
HETATM   25  C   UNL     1       7.641  23.766  53.115  1.00  0.00     0.218 C 
HETATM   26  C   UNL     1       7.864  22.279  52.965  1.00  0.00     0.117 C 
HETATM   27  O   UNL     1       8.221  24.552  52.376  1.00  0.00    -0.274 OA
HETATM   28  H   UNL     1       6.367  23.284  54.660  1.00  0.00     0.169 HD
ENDBRANCH   2  24
BRANCH   1  29
HETATM   29  C   UNL     1       7.539  25.545  56.680  1.00  0.00     0.297 C 
HETATM   30  O   UNL     1       8.376  26.264  57.211  1.00  0.00    -0.259 OA
BRANCH  29  31
HETATM   31  O   UNL     1       7.369  24.225  57.009  1.00  0.00    -0.318 OA
BRANCH  31  32
HETATM   32  C   UNL     1       8.578  23.453  57.123  1.00  0.00     0.174 C 
HETATM   33  C   UNL     1       8.347  22.022  56.674  1.00  0.00     0.034 C 
ENDBRANCH  31  32
ENDBRANCH  29  31
ENDBRANCH   1  29
TORSDOF 10
ENDMDL
MODEL 9
REMARK VINA RESULT:      -7.4      2.916      4.801
REMARK  10 active torsions:
REMARK  status: ('A' for Active; 'I' for Inactive)
REMARK    1  A    between atoms: C_2  and  O_3 
REMARK    2  A    between atoms: O_3  and  C_4 
REMARK    3  A    between atoms: C_4  and  C_5 
REMARK    4  A    between atoms: C_6  and  N_7 
REMARK       I    between atoms: N_7  and  C_8 
REMARK    5  A    between atoms: C_14  and  O_15 
REMARK    6  A    between atoms: O_15  and  C_16 
REMARK    7  A    between atoms: C_16  and  C_17 
REMARK    8  A    between atoms: C_17  and  O_18 
REMARK    9  A    between atoms: C_17  and  C_19 
REMARK   10  A    between atoms: C_19  and  N_20 
ROOT
HETATM    1  C   UNL     1       6.223  33.185  60.974  1.00  0.00     0.085 A 
HETATM    2  C   UNL     1       4.985  33.041  60.366  1.00  0.00     0.094 A 
HETATM    3  S   UNL     1       5.038  31.996  59.035  1.00  0.00    -0.068 SA
HETATM    4  C   UNL     1       6.730  31.702  59.181  1.00  0.00     0.053 A 
HETATM    5  C   UNL     1       7.237  32.376  60.298  1.00  0.00     0.003 A 
HETATM    6  C   UNL     1       7.536  30.902  58.315  1.00  0.00     0.104 A 
HETATM    7  C   UNL     1       8.912  30.826  58.617  1.00  0.00     0.045 A 
HETATM    8 BR   UNL     1      10.234  29.998  57.523  1.00  0.00    -0.048 Br
HETATM    9  C   UNL     1       9.429  31.447  59.752  1.00  0.00     0.023 A 
HETATM   10  C   UNL     1       8.612  32.208  60.585  1.00  0.00     0.015 A 
ENDROOT
BRANCH   6  11
HETATM   11  O   UNL     1       6.901  30.363  57.221  1.00  0.00    -0.346 OA
BRANCH  11  12
HETATM   12  C   UNL     1       6.402  29.031  57.333  1.00  0.00     0.209 C 
BRANCH  12  13
HETATM   13  C   UNL     1       7.166  28.121  56.361  1.00  0.00     0.168 C 
BRANCH  13  14
HETATM   14  O   UNL     1       7.933  27.134  57.079  1.00  0.00    -0.392 OA
HETATM   15  H   UNL     1       8.828  27.143  56.671  1.00  0.00     0.210 HD
ENDBRANCH  13  14
BRANCH  13  16
HETATM   16  C   UNL     1       6.171  27.357  55.468  1.00  0.00     0.268 C 
BRANCH  16  17
HETATM   17  N   UNL     1       6.894  26.205  54.776  1.00  0.00    -0.069 N 
HETATM   18  H   UNL     1       7.802  26.166  55.282  1.00  0.00     0.280 HD
HETATM   19  C   UNL     1       6.191  24.888  54.985  1.00  0.00     0.235 C 
HETATM   20  C   UNL     1       7.006  23.755  54.382  1.00  0.00     0.028 C 
HETATM   21  C   UNL     1       7.317  24.008  52.913  1.00  0.00     0.003 C 
HETATM   22  C   UNL     1       8.011  25.352  52.732  1.00  0.00     0.028 C 
HETATM   23  C   UNL     1       7.196  26.491  53.329  1.00  0.00     0.235 C 
ENDBRANCH  16  17
ENDBRANCH  13  16
ENDBRANCH  12  13
ENDBRANCH  11  12
ENDBRANCH   6  11
BRANCH   2  24
HETATM   24  N   UNL     1       3.799  33.664  60.735  1.00  0.00    -0.321 N 
HETATM   25  C   UNL     1       3.044  33.443  61.874  1.00  0.00     0.218 C 
HETATM   26  C   UNL     1       1.784  34.276  61.895  1.00  0.00     0.117 C 
HETATM   27  O   UNL     1       3.285  32.668  62.792  1.00  0.00    -0.274 OA
HETATM   28  H   UNL     1       3.465  34.368  60.082  1.00  0.00     0.169 HD
ENDBRANCH   2  24
BRANCH   1  29
HETATM   29  C   UNL     1       6.502  34.052  62.130  1.00  0.00     0.297 C 
HETATM   30  O   UNL     1       6.175  35.231  62.180  1.00  0.00    -0.259 OA
BRANCH  29  31
HETATM   31  O   UNL     1       7.147  33.409  63.154  1.00  0.00    -0.318 OA
BRANCH  31  32
HETATM   32  C   UNL     1       6.351  33.154  64.326  1.00  0.00     0.174 C 
HETATM   33  C   UNL     1       7.055  33.654  65.573  1.00  0.00     0.034 C 
ENDBRANCH  31  32
ENDBRANCH  29  31
ENDBRANCH   1  29
TORSDOF 10
ENDMDL
MODEL 10
REMARK VINA RESULT:      -7.2      5.344     10.766
REMARK  10 active torsions:
REMARK  status: ('A' for Active; 'I' for Inactive)
REMARK    1  A    between atoms: C_2  and  O_3 
REMARK    2  A    between atoms: O_3  and  C_4 
REMARK    3  A    between atoms: C_4  and  C_5 
REMARK    4  A    between atoms: C_6  and  N_7 
REMARK       I    between atoms: N_7  and  C_8 
REMARK    5  A    between atoms: C_14  and  O_15 
REMARK    6  A    between atoms: O_15  and  C_16 
REMARK    7  A    between atoms: C_16  and  C_17 
REMARK    8  A    between atoms: C_17  and  O_18 
REMARK    9  A    between atoms: C_17  and  C_19 
REMARK   10  A    between atoms: C_19  and  N_20 
ROOT
HETATM    1  C   UNL     1       7.247  30.679  58.704  1.00  0.00     0.085 A 
HETATM    2  C   UNL     1       6.027  31.089  58.187  1.00  0.00     0.094 A 
HETATM    3  S   UNL     1       5.224  32.171  59.212  1.00  0.00    -0.068 SA
HETATM    4  C   UNL     1       6.453  32.126  60.419  1.00  0.00     0.053 A 
HETATM    5  C   UNL     1       7.509  31.311  59.995  1.00  0.00     0.003 A 
HETATM    6  C   UNL     1       6.438  32.800  61.679  1.00  0.00     0.104 A 
HETATM    7  C   UNL     1       7.549  32.594  62.523  1.00  0.00     0.045 A 
HETATM    8 BR   UNL     1       7.693  33.208  64.321  1.00  0.00    -0.048 Br
HETATM    9  C   UNL     1       8.634  31.829  62.101  1.00  0.00     0.023 A 
HETATM   10  C   UNL     1       8.624  31.198  60.860  1.00  0.00     0.015 A 
ENDROOT
BRANCH   6  11
HETATM   11  O   UNL     1       5.296  33.506  61.976  1.00  0.00    -0.346 OA
BRANCH  11  12
HETATM   12  C   UNL     1       5.367  34.930  61.935  1.00  0.00     0.209 C 
BRANCH  12  13
HETATM   13  C   UNL     1       4.064  35.518  62.495  1.00  0.00     0.168 C 
BRANCH  13  14
HETATM   14  O   UNL     1       3.169  35.889  61.429  1.00  0.00    -0.392 OA
HETATM   15  H   UNL     1       2.370  35.326  61.542  1.00  0.00     0.210 HD
ENDBRANCH  13  14
BRANCH  13  16
HETATM   16  C   UNL     1       3.337  34.461  63.347  1.00  0.00     0.268 C 
BRANCH  16  17
HETATM   17  N   UNL     1       3.589  34.742  64.826  1.00  0.00    -0.069 N 
HETATM   18  H   UNL     1       2.641  34.652  65.242  1.00  0.00     0.280 HD
HETATM   19  C   UNL     1       4.473  33.697  65.457  1.00  0.00     0.235 C 
HETATM   20  C   UNL     1       4.600  33.948  66.952  1.00  0.00     0.028 C 
HETATM   21  C   UNL     1       5.089  35.361  67.243  1.00  0.00     0.003 C 
HETATM   22  C   UNL     1       4.187  36.393  66.578  1.00  0.00     0.028 C 
HETATM   23  C   UNL     1       4.062  36.149  65.080  1.00  0.00     0.235 C 
ENDBRANCH  16  17
ENDBRANCH  13  16
ENDBRANCH  12  13
ENDBRANCH  11  12
ENDBRANCH   6  11
BRANCH   2  24
HETATM   24  N   UNL     1       5.455  30.687  56.986  1.00  0.00    -0.321 N 
HETATM   25  C   UNL     1       4.986  31.488  55.960  1.00  0.00     0.218 C 
HETATM   26  C   UNL     1       4.378  30.682  54.836  1.00  0.00     0.117 C 
HETATM   27  O   UNL     1       5.003  32.712  55.899  1.00  0.00    -0.274 OA
HETATM   28  H   UNL     1       5.386  29.680  56.862  1.00  0.00     0.169 HD
ENDBRANCH   2  24
BRANCH   1  29
HETATM   29  C   UNL     1       8.157  29.716  58.062  1.00  0.00     0.297 C 
HETATM   30  O   UNL     1       8.172  28.522  58.332  1.00  0.00    -0.259 OA
BRANCH  29  31
HETATM   31  O   UNL     1       8.974  30.282  57.118  1.00  0.00    -0.318 OA
BRANCH  31  32
HETATM   32  C   UNL     1      10.224  30.800  57.609  1.00  0.00     0.174 C 
HETATM   33  C   UNL     1      11.360  29.840  57.307  1.00  0.00     0.034 C 
ENDBRANCH  31  32
ENDBRANCH  29  31
ENDBRANCH   1  29
TORSDOF 10
ENDMDL
