MODEL 1
REMARK VINA RESULT:     -10.0      0.000      0.000
REMARK  6 active torsions:
REMARK  status: ('A' for Active; 'I' for Inactive)
REMARK    1  A    between atoms: C_3  and  C_4 
REMARK    2  A    between atoms: C_4  and  N_5 
REMARK    3  A    between atoms: N_5  and  C_8 
REMARK    4  A    between atoms: C_8  and  C_9 
REMARK    5  A    between atoms: N_12  and  C_13 
REMARK    6  A    between atoms: C_28  and  O_29 
ROOT
HETATM    1  N   UNL     1       6.761  28.659  57.601  1.00  0.00    -0.062 N 
HETATM    2  H   UNL     1       6.266  28.566  58.493  1.00  0.00     0.278 HD
HETATM    3  H   UNL     1       6.072  28.502  56.859  1.00  0.00     0.278 HD
ENDROOT
BRANCH   1   4
HETATM    4  C   UNL     1       7.210  30.064  57.484  1.00  0.00     0.290 C 
BRANCH   4   5
HETATM    5  C   UNL     1       7.160  30.800  58.777  1.00  0.00     0.042 A 
HETATM    6  C   UNL     1       6.456  31.908  59.254  1.00  0.00    -0.025 A 
HETATM    7  C   UNL     1       5.441  32.751  58.556  1.00  0.00     0.051 C 
HETATM    8  C   UNL     1       6.895  32.141  60.602  1.00  0.00     0.001 A 
HETATM    9  C   UNL     1       7.838  31.170  60.914  1.00  0.00     0.043 A 
HETATM   10  C   UNL     1       6.577  33.099  61.590  1.00  0.00     0.051 A 
HETATM   11  N   UNL     1       7.974  30.370  59.810  1.00  0.00    -0.357 N 
HETATM   12  C   UNL     1       8.475  31.103  62.158  1.00  0.00     0.033 A 
HETATM   13  H   UNL     1       8.605  29.580  59.781  1.00  0.00     0.166 HD
HETATM   14  C   UNL     1       8.143  32.069  63.117  1.00  0.00     0.039 A 
HETATM   15  C   UNL     1       7.204  33.061  62.843  1.00  0.00     0.069 A 
BRANCH  15  16
HETATM   16  O   UNL     1       6.807  34.052  63.698  1.00  0.00    -0.356 OA
HETATM   17  C   UNL     1       7.027  33.835  65.087  1.00  0.00     0.210 C 
ENDBRANCH  15  16
ENDBRANCH   4   5
ENDBRANCH   1   4
BRANCH   1  18
HETATM   18  C   UNL     1       7.829  27.615  57.493  1.00  0.00     0.218 C 
HETATM   19  C   UNL     1       9.101  28.301  56.997  1.00  0.00     0.045 C 
BRANCH  18  20
HETATM   20  C   UNL     1       7.428  26.472  56.620  1.00  0.00     0.015 C 
HETATM   21  C   UNL     1       7.953  25.182  56.570  1.00  0.00     0.042 C 
HETATM   22  C   UNL     1       9.004  24.568  57.429  1.00  0.00     0.071 C 
HETATM   23  N   UNL     1       7.269  24.510  55.548  1.00  0.00    -0.238 N 
HETATM   24  N   UNL     1       6.221  25.263  55.122  1.00  0.00    -0.179 NA
HETATM   25  C   UNL     1       6.386  26.454  55.674  1.00  0.00     0.150 C 
BRANCH  23  26
HETATM   26  C   UNL     1       7.495  23.236  54.944  1.00  0.00     0.058 A 
HETATM   27  C   UNL     1       7.658  23.168  53.549  1.00  0.00     0.031 A 
HETATM   28  C   UNL     1       7.885  21.945  52.915  1.00  0.00     0.002 A 
HETATM   29  C   UNL     1       7.969  20.777  53.666  1.00  0.00     0.000 A 
HETATM   30  C   UNL     1       7.835  20.834  55.052  1.00  0.00     0.002 A 
HETATM   31  C   UNL     1       7.604  22.057  55.691  1.00  0.00     0.031 A 
ENDBRANCH  23  26
ENDBRANCH  18  20
ENDBRANCH   1  18
TORSDOF 6
ENDMDL
MODEL 2
REMARK VINA RESULT:      -9.7      1.679      2.670
REMARK  6 active torsions:
REMARK  status: ('A' for Active; 'I' for Inactive)
REMARK    1  A    between atoms: C_3  and  C_4 
REMARK    2  A    between atoms: C_4  and  N_5 
REMARK    3  A    between atoms: N_5  and  C_8 
REMARK    4  A    between atoms: C_8  and  C_9 
REMARK    5  A    between atoms: N_12  and  C_13 
REMARK    6  A    between atoms: C_28  and  O_29 
ROOT
HETATM    1  N   UNL     1       6.933  30.212  58.593  1.00  0.00    -0.062 N 
HETATM    2  H   UNL     1       6.473  29.923  59.462  1.00  0.00     0.278 HD
HETATM    3  H   UNL     1       6.206  30.266  57.873  1.00  0.00     0.278 HD
ENDROOT
BRANCH   1   4
HETATM    4  C   UNL     1       7.447  31.585  58.794  1.00  0.00     0.290 C 
BRANCH   4   5
HETATM    5  C   UNL     1       7.314  32.055  60.200  1.00  0.00     0.042 A 
HETATM    6  C   UNL     1       8.177  32.146  61.294  1.00  0.00    -0.025 A 
HETATM    7  C   UNL     1       9.622  31.784  61.387  1.00  0.00     0.051 C 
HETATM    8  C   UNL     1       7.411  32.660  62.397  1.00  0.00     0.001 A 
HETATM    9  C   UNL     1       6.116  32.879  61.946  1.00  0.00     0.043 A 
HETATM   10  C   UNL     1       7.703  32.956  63.746  1.00  0.00     0.051 A 
HETATM   11  N   UNL     1       6.081  32.520  60.624  1.00  0.00    -0.357 N 
HETATM   12  C   UNL     1       5.101  33.380  62.769  1.00  0.00     0.033 A 
HETATM   13  H   UNL     1       5.244  32.588  60.060  1.00  0.00     0.166 HD
HETATM   14  C   UNL     1       5.419  33.661  64.104  1.00  0.00     0.039 A 
HETATM   15  C   UNL     1       6.706  33.452  64.596  1.00  0.00     0.069 A 
BRANCH  15  16
HETATM   16  O   UNL     1       7.126  33.687  65.876  1.00  0.00    -0.356 OA
HETATM   17  C   UNL     1       6.147  34.130  66.809  1.00  0.00     0.210 C 
ENDBRANCH  15  16
ENDBRANCH   4   5
ENDBRANCH   1   4
BRANCH   1  18
HETATM   18  C   UNL     1       7.941  29.185  58.179  1.00  0.00     0.218 C 
HETATM   19  C   UNL     1       9.286  29.893  58.018  1.00  0.00     0.045 C 
BRANCH  18  20
HETATM   20  C   UNL     1       7.539  28.452  56.941  1.00  0.00     0.015 C 
HETATM   21  C   UNL     1       7.750  27.115  56.608  1.00  0.00     0.042 C 
HETATM   22  C   UNL     1       8.364  26.035  57.429  1.00  0.00     0.071 C 
HETATM   23  N   UNL     1       7.230  26.936  55.319  1.00  0.00    -0.238 N 
HETATM   24  N   UNL     1       6.534  28.043  54.946  1.00  0.00    -0.179 NA
HETATM   25  C   UNL     1       6.813  28.966  55.851  1.00  0.00     0.150 C 
BRANCH  23  26
HETATM   26  C   UNL     1       7.312  25.834  54.416  1.00  0.00     0.058 A 
HETATM   27  C   UNL     1       7.792  26.062  53.114  1.00  0.00     0.031 A 
HETATM   28  C   UNL     1       7.894  25.013  52.197  1.00  0.00     0.002 A 
HETATM   29  C   UNL     1       7.535  23.723  52.573  1.00  0.00     0.000 A 
HETATM   30  C   UNL     1       7.082  23.480  53.867  1.00  0.00     0.002 A 
HETATM   31  C   UNL     1       6.975  24.528  54.789  1.00  0.00     0.031 A 
ENDBRANCH  23  26
ENDBRANCH  18  20
ENDBRANCH   1  18
TORSDOF 6
ENDMDL
MODEL 3
REMARK VINA RESULT:      -9.7      2.574      3.807
REMARK  6 active torsions:
REMARK  status: ('A' for Active; 'I' for Inactive)
REMARK    1  A    between atoms: C_3  and  C_4 
REMARK    2  A    between atoms: C_4  and  N_5 
REMARK    3  A    between atoms: N_5  and  C_8 
REMARK    4  A    between atoms: C_8  and  C_9 
REMARK    5  A    between atoms: N_12  and  C_13 
REMARK    6  A    between atoms: C_28  and  O_29 
ROOT
HETATM    1  N   UNL     1       6.551  28.384  53.615  1.00  0.00    -0.062 N 
HETATM    2  H   UNL     1       6.008  28.795  54.381  1.00  0.00     0.278 HD
HETATM    3  H   UNL     1       6.636  29.104  52.890  1.00  0.00     0.278 HD
ENDROOT
BRANCH   1   4
HETATM    4  C   UNL     1       7.915  28.121  54.124  1.00  0.00     0.290 C 
BRANCH   4   5
HETATM    5  C   UNL     1       8.163  28.726  55.462  1.00  0.00     0.042 A 
HETATM    6  C   UNL     1       7.444  28.804  56.657  1.00  0.00    -0.025 A 
HETATM    7  C   UNL     1       6.102  28.240  56.987  1.00  0.00     0.051 C 
HETATM    8  C   UNL     1       8.235  29.572  57.578  1.00  0.00     0.001 A 
HETATM    9  C   UNL     1       9.410  29.929  56.931  1.00  0.00     0.043 A 
HETATM   10  C   UNL     1       8.054  30.003  58.910  1.00  0.00     0.051 A 
HETATM   11  N   UNL     1       9.352  29.403  55.667  1.00  0.00    -0.357 N 
HETATM   12  C   UNL     1      10.414  30.689  57.545  1.00  0.00     0.033 A 
HETATM   13  H   UNL     1      10.095  29.521  54.990  1.00  0.00     0.166 HD
HETATM   14  C   UNL     1      10.204  31.105  58.865  1.00  0.00     0.039 A 
HETATM   15  C   UNL     1       9.038  30.770  59.548  1.00  0.00     0.069 A 
BRANCH  15  16
HETATM   16  O   UNL     1       8.727  31.123  60.833  1.00  0.00    -0.356 OA
HETATM   17  C   UNL     1       9.365  30.397  61.877  1.00  0.00     0.210 C 
ENDBRANCH  15  16
ENDBRANCH   4   5
ENDBRANCH   1   4
BRANCH   1  18
HETATM   18  C   UNL     1       5.823  27.209  53.041  1.00  0.00     0.218 C 
HETATM   19  C   UNL     1       4.326  27.509  53.115  1.00  0.00     0.045 C 
BRANCH  18  20
HETATM   20  C   UNL     1       6.174  25.927  53.721  1.00  0.00     0.015 C 
HETATM   21  C   UNL     1       7.060  24.932  53.311  1.00  0.00     0.042 C 
HETATM   22  C   UNL     1       7.957  24.914  52.121  1.00  0.00     0.071 C 
HETATM   23  N   UNL     1       6.992  23.913  54.271  1.00  0.00    -0.238 N 
HETATM   24  N   UNL     1       6.268  24.337  55.340  1.00  0.00    -0.179 NA
HETATM   25  C   UNL     1       5.700  25.471  54.965  1.00  0.00     0.150 C 
BRANCH  23  26
HETATM   26  C   UNL     1       7.545  22.597  54.287  1.00  0.00     0.058 A 
HETATM   27  C   UNL     1       7.836  21.971  53.062  1.00  0.00     0.031 A 
HETATM   28  C   UNL     1       8.382  20.686  53.030  1.00  0.00     0.002 A 
HETATM   29  C   UNL     1       8.660  20.018  54.217  1.00  0.00     0.000 A 
HETATM   30  C   UNL     1       8.401  20.637  55.438  1.00  0.00     0.002 A 
HETATM   31  C   UNL     1       7.850  21.924  55.476  1.00  0.00     0.031 A 
ENDBRANCH  23  26
ENDBRANCH  18  20
ENDBRANCH   1  18
TORSDOF 6
ENDMDL
MODEL 4
REMARK VINA RESULT:      -9.5      5.571      8.825
REMARK  6 active torsions:
REMARK  status: ('A' for Active; 'I' for Inactive)
REMARK    1  A    between atoms: C_3  and  C_4 
REMARK    2  A    between atoms: C_4  and  N_5 
REMARK    3  A    between atoms: N_5  and  C_8 
REMARK    4  A    between atoms: C_8  and  C_9 
REMARK    5  A    between atoms: N_12  and  C_13 
REMARK    6  A    between atoms: C_28  and  O_29 
ROOT
HETATM    1  N   UNL     1       6.852  28.820  54.579  1.00  0.00    -0.062 N 
HETATM    2  H   UNL     1       7.450  28.718  53.753  1.00  0.00     0.278 HD
HETATM    3  H   UNL     1       7.130  29.689  55.044  1.00  0.00     0.278 HD
ENDROOT
BRANCH   1   4
HETATM    4  C   UNL     1       5.463  29.008  54.105  1.00  0.00     0.290 C 
BRANCH   4   5
HETATM    5  C   UNL     1       5.254  28.524  52.712  1.00  0.00     0.042 A 
HETATM    6  C   UNL     1       4.832  27.322  52.140  1.00  0.00    -0.025 A 
HETATM    7  C   UNL     1       4.410  26.057  52.809  1.00  0.00     0.051 C 
HETATM    8  C   UNL     1       4.882  27.492  50.713  1.00  0.00     0.001 A 
HETATM    9  C   UNL     1       5.317  28.785  50.456  1.00  0.00     0.043 A 
HETATM   10  C   UNL     1       4.599  26.655  49.612  1.00  0.00     0.051 A 
HETATM   11  N   UNL     1       5.524  29.391  51.668  1.00  0.00    -0.357 N 
HETATM   12  C   UNL     1       5.481  29.287  49.160  1.00  0.00     0.033 A 
HETATM   13  H   UNL     1       5.844  30.347  51.755  1.00  0.00     0.166 HD
HETATM   14  C   UNL     1       5.196  28.433  48.087  1.00  0.00     0.039 A 
HETATM   15  C   UNL     1       4.760  27.128  48.302  1.00  0.00     0.069 A 
BRANCH  15  16
HETATM   16  O   UNL     1       4.458  26.210  47.334  1.00  0.00    -0.356 OA
HETATM   17  C   UNL     1       3.349  25.352  47.577  1.00  0.00     0.210 C 
ENDBRANCH  15  16
ENDBRANCH   4   5
ENDBRANCH   1   4
BRANCH   1  18
HETATM   18  C   UNL     1       7.078  27.679  55.522  1.00  0.00     0.218 C 
HETATM   19  C   UNL     1       8.162  28.104  56.513  1.00  0.00     0.045 C 
BRANCH  18  20
HETATM   20  C   UNL     1       7.427  26.411  54.816  1.00  0.00     0.015 C 
HETATM   21  C   UNL     1       7.327  25.098  55.274  1.00  0.00     0.042 C 
HETATM   22  C   UNL     1       6.770  24.599  56.562  1.00  0.00     0.071 C 
HETATM   23  N   UNL     1       7.830  24.278  54.254  1.00  0.00    -0.238 N 
HETATM   24  N   UNL     1       8.033  25.014  53.130  1.00  0.00    -0.179 NA
HETATM   25  C   UNL     1       7.902  26.278  53.498  1.00  0.00     0.150 C 
BRANCH  23  26
HETATM   26  C   UNL     1       8.124  22.881  54.229  1.00  0.00     0.058 A 
HETATM   27  C   UNL     1       7.714  22.125  53.117  1.00  0.00     0.031 A 
HETATM   28  C   UNL     1       7.984  20.756  53.045  1.00  0.00     0.002 A 
HETATM   29  C   UNL     1       8.681  20.130  54.073  1.00  0.00     0.000 A 
HETATM   30  C   UNL     1       9.116  20.874  55.168  1.00  0.00     0.002 A 
HETATM   31  C   UNL     1       8.845  22.245  55.246  1.00  0.00     0.031 A 
ENDBRANCH  23  26
ENDBRANCH  18  20
ENDBRANCH   1  18
TORSDOF 6
ENDMDL
MODEL 5
REMARK VINA RESULT:      -9.5      1.951      3.510
REMARK  6 active torsions:
REMARK  status: ('A' for Active; 'I' for Inactive)
REMARK    1  A    between atoms: C_3  and  C_4 
REMARK    2  A    between atoms: C_4  and  N_5 
REMARK    3  A    between atoms: N_5  and  C_8 
REMARK    4  A    between atoms: C_8  and  C_9 
REMARK    5  A    between atoms: N_12  and  C_13 
REMARK    6  A    between atoms: C_28  and  O_29 
ROOT
HETATM    1  N   UNL     1       6.487  28.459  54.073  1.00  0.00    -0.062 N 
HETATM    2  H   UNL     1       6.802  29.185  53.422  1.00  0.00     0.278 HD
HETATM    3  H   UNL     1       7.311  28.151  54.598  1.00  0.00     0.278 HD
ENDROOT
BRANCH   1   4
HETATM    4  C   UNL     1       5.569  29.097  55.044  1.00  0.00     0.290 C 
BRANCH   4   5
HETATM    5  C   UNL     1       6.261  29.564  56.277  1.00  0.00     0.042 A 
HETATM    6  C   UNL     1       7.314  29.083  57.058  1.00  0.00    -0.025 A 
HETATM    7  C   UNL     1       8.146  27.859  56.867  1.00  0.00     0.051 C 
HETATM    8  C   UNL     1       7.478  29.995  58.156  1.00  0.00     0.001 A 
HETATM    9  C   UNL     1       6.538  31.006  58.010  1.00  0.00     0.043 A 
HETATM   10  C   UNL     1       8.343  30.050  59.270  1.00  0.00     0.051 A 
HETATM   11  N   UNL     1       5.826  30.735  56.871  1.00  0.00    -0.357 N 
HETATM   12  C   UNL     1       6.419  32.069  58.913  1.00  0.00     0.033 A 
HETATM   13  H   UNL     1       5.076  31.328  56.539  1.00  0.00     0.166 HD
HETATM   14  C   UNL     1       7.289  32.094  60.011  1.00  0.00     0.039 A 
HETATM   15  C   UNL     1       8.243  31.097  60.195  1.00  0.00     0.069 A 
BRANCH  15  16
HETATM   16  O   UNL     1       9.138  31.021  61.228  1.00  0.00    -0.356 OA
HETATM   17  C   UNL     1       8.626  30.654  62.504  1.00  0.00     0.210 C 
ENDBRANCH  15  16
ENDBRANCH   4   5
ENDBRANCH   1   4
BRANCH   1  18
HETATM   18  C   UNL     1       5.937  27.291  53.315  1.00  0.00     0.218 C 
HETATM   19  C   UNL     1       4.423  27.474  53.214  1.00  0.00     0.045 C 
BRANCH  18  20
HETATM   20  C   UNL     1       6.307  25.982  53.929  1.00  0.00     0.015 C 
HETATM   21  C   UNL     1       7.183  25.007  53.453  1.00  0.00     0.042 C 
HETATM   22  C   UNL     1       8.048  25.042  52.242  1.00  0.00     0.071 C 
HETATM   23  N   UNL     1       7.141  23.948  54.370  1.00  0.00    -0.238 N 
HETATM   24  N   UNL     1       6.444  24.323  55.475  1.00  0.00    -0.179 NA
HETATM   25  C   UNL     1       5.866  25.471  55.164  1.00  0.00     0.150 C 
BRANCH  23  26
HETATM   26  C   UNL     1       7.695  22.633  54.315  1.00  0.00     0.058 A 
HETATM   27  C   UNL     1       8.243  22.082  55.487  1.00  0.00     0.031 A 
HETATM   28  C   UNL     1       8.792  20.798  55.483  1.00  0.00     0.002 A 
HETATM   29  C   UNL     1       8.785  20.042  54.315  1.00  0.00     0.000 A 
HETATM   30  C   UNL     1       8.221  20.566  53.155  1.00  0.00     0.002 A 
HETATM   31  C   UNL     1       7.673  21.854  53.153  1.00  0.00     0.031 A 
ENDBRANCH  23  26
ENDBRANCH  18  20
ENDBRANCH   1  18
TORSDOF 6
ENDMDL
MODEL 6
REMARK VINA RESULT:      -9.3      3.440      9.912
REMARK  6 active torsions:
REMARK  status: ('A' for Active; 'I' for Inactive)
REMARK    1  A    between atoms: C_3  and  C_4 
REMARK    2  A    between atoms: C_4  and  N_5 
REMARK    3  A    between atoms: N_5  and  C_8 
REMARK    4  A    between atoms: C_8  and  C_9 
REMARK    5  A    between atoms: N_12  and  C_13 
REMARK    6  A    between atoms: C_28  and  O_29 
ROOT
HETATM    1  N   UNL     1       6.036  28.994  54.790  1.00  0.00    -0.062 N 
HETATM    2  H   UNL     1       6.870  28.590  55.228  1.00  0.00     0.278 HD
HETATM    3  H   UNL     1       6.343  29.819  54.267  1.00  0.00     0.278 HD
ENDROOT
BRANCH   1   4
HETATM    4  C   UNL     1       5.533  28.016  53.800  1.00  0.00     0.290 C 
BRANCH   4   5
HETATM    5  C   UNL     1       6.055  26.640  54.026  1.00  0.00     0.042 A 
HETATM    6  C   UNL     1       6.040  25.744  55.097  1.00  0.00    -0.025 A 
HETATM    7  C   UNL     1       5.427  25.902  56.449  1.00  0.00     0.051 C 
HETATM    8  C   UNL     1       6.763  24.574  54.682  1.00  0.00     0.001 A 
HETATM    9  C   UNL     1       7.186  24.780  53.375  1.00  0.00     0.043 A 
HETATM   10  C   UNL     1       7.102  23.353  55.304  1.00  0.00     0.051 A 
HETATM   11  N   UNL     1       6.743  26.020  52.997  1.00  0.00    -0.357 N 
HETATM   12  C   UNL     1       7.925  23.832  52.658  1.00  0.00     0.033 A 
HETATM   13  H   UNL     1       6.920  26.409  52.080  1.00  0.00     0.166 HD
HETATM   14  C   UNL     1       8.250  22.631  53.303  1.00  0.00     0.039 A 
HETATM   15  C   UNL     1       7.847  22.387  54.613  1.00  0.00     0.069 A 
BRANCH  15  16
HETATM   16  O   UNL     1       8.109  21.257  55.339  1.00  0.00    -0.356 OA
HETATM   17  C   UNL     1       8.640  20.142  54.632  1.00  0.00     0.210 C 
ENDBRANCH  15  16
ENDBRANCH   4   5
ENDBRANCH   1   4
BRANCH   1  18
HETATM   18  C   UNL     1       5.062  29.428  55.841  1.00  0.00     0.218 C 
HETATM   19  C   UNL     1       3.853  30.036  55.130  1.00  0.00     0.045 C 
BRANCH  18  20
HETATM   20  C   UNL     1       5.666  30.370  56.829  1.00  0.00     0.015 C 
HETATM   21  C   UNL     1       6.683  30.136  57.754  1.00  0.00     0.042 C 
HETATM   22  C   UNL     1       7.498  28.905  57.952  1.00  0.00     0.071 C 
HETATM   23  N   UNL     1       6.846  31.323  58.480  1.00  0.00    -0.238 N 
HETATM   24  N   UNL     1       6.124  32.320  57.902  1.00  0.00    -0.179 NA
HETATM   25  C   UNL     1       5.351  31.730  57.005  1.00  0.00     0.150 C 
BRANCH  23  26
HETATM   26  C   UNL     1       7.615  31.615  59.647  1.00  0.00     0.058 A 
HETATM   27  C   UNL     1       6.954  31.716  60.884  1.00  0.00     0.031 A 
HETATM   28  C   UNL     1       7.666  31.994  62.053  1.00  0.00     0.002 A 
HETATM   29  C   UNL     1       9.047  32.159  62.005  1.00  0.00     0.000 A 
HETATM   30  C   UNL     1       9.716  32.036  60.790  1.00  0.00     0.002 A 
HETATM   31  C   UNL     1       9.007  31.760  59.615  1.00  0.00     0.031 A 
ENDBRANCH  23  26
ENDBRANCH  18  20
ENDBRANCH   1  18
TORSDOF 6
ENDMDL
MODEL 7
REMARK VINA RESULT:      -9.3      3.199     10.459
REMARK  6 active torsions:
REMARK  status: ('A' for Active; 'I' for Inactive)
REMARK    1  A    between atoms: C_3  and  C_4 
REMARK    2  A    between atoms: C_4  and  N_5 
REMARK    3  A    between atoms: N_5  and  C_8 
REMARK    4  A    between atoms: C_8  and  C_9 
REMARK    5  A    between atoms: N_12  and  C_13 
REMARK    6  A    between atoms: C_28  and  O_29 
ROOT
HETATM    1  N   UNL     1       7.720  29.308  58.488  1.00  0.00    -0.062 N 
HETATM    2  H   UNL     1       6.882  29.113  59.044  1.00  0.00     0.278 HD
HETATM    3  H   UNL     1       8.404  28.578  58.711  1.00  0.00     0.278 HD
ENDROOT
BRANCH   1   4
HETATM    4  C   UNL     1       7.360  29.142  57.062  1.00  0.00     0.290 C 
BRANCH   4   5
HETATM    5  C   UNL     1       7.496  27.737  56.589  1.00  0.00     0.042 A 
HETATM    6  C   UNL     1       7.111  27.043  55.439  1.00  0.00    -0.025 A 
HETATM    7  C   UNL     1       6.402  27.548  54.227  1.00  0.00     0.051 C 
HETATM    8  C   UNL     1       7.513  25.675  55.615  1.00  0.00     0.001 A 
HETATM    9  C   UNL     1       8.139  25.574  56.851  1.00  0.00     0.043 A 
HETATM   10  C   UNL     1       7.397  24.506  54.833  1.00  0.00     0.051 A 
HETATM   11  N   UNL     1       8.127  26.823  57.414  1.00  0.00    -0.357 N 
HETATM   12  C   UNL     1       8.656  24.370  57.344  1.00  0.00     0.033 A 
HETATM   13  H   UNL     1       8.528  27.019  58.322  1.00  0.00     0.166 HD
HETATM   14  C   UNL     1       8.523  23.226  56.547  1.00  0.00     0.039 A 
HETATM   15  C   UNL     1       7.900  23.285  55.303  1.00  0.00     0.069 A 
BRANCH  15  16
HETATM   16  O   UNL     1       7.712  22.235  54.446  1.00  0.00    -0.356 OA
HETATM   17  C   UNL     1       7.732  22.523  53.053  1.00  0.00     0.210 C 
ENDBRANCH  15  16
ENDBRANCH   4   5
ENDBRANCH   1   4
BRANCH   1  18
HETATM   18  C   UNL     1       8.295  30.636  58.872  1.00  0.00     0.218 C 
HETATM   19  C   UNL     1       9.767  30.642  58.460  1.00  0.00     0.045 C 
BRANCH  18  20
HETATM   20  C   UNL     1       8.115  30.942  60.323  1.00  0.00     0.015 C 
HETATM   21  C   UNL     1       7.131  31.712  60.940  1.00  0.00     0.042 C 
HETATM   22  C   UNL     1       5.945  32.375  60.329  1.00  0.00     0.071 C 
HETATM   23  N   UNL     1       7.436  31.732  62.308  1.00  0.00    -0.238 N 
HETATM   24  N   UNL     1       8.432  30.844  62.570  1.00  0.00    -0.179 NA
HETATM   25  C   UNL     1       8.900  30.469  61.391  1.00  0.00     0.150 C 
BRANCH  23  26
HETATM   26  C   UNL     1       6.882  32.487  63.385  1.00  0.00     0.058 A 
HETATM   27  C   UNL     1       7.753  33.198  64.230  1.00  0.00     0.031 A 
HETATM   28  C   UNL     1       7.256  33.954  65.294  1.00  0.00     0.002 A 
HETATM   29  C   UNL     1       5.885  34.024  65.517  1.00  0.00     0.000 A 
HETATM   30  C   UNL     1       5.010  33.346  64.672  1.00  0.00     0.002 A 
HETATM   31  C   UNL     1       5.503  32.583  63.606  1.00  0.00     0.031 A 
ENDBRANCH  23  26
ENDBRANCH  18  20
ENDBRANCH   1  18
TORSDOF 6
ENDMDL
MODEL 8
REMARK VINA RESULT:      -9.2      6.898     10.199
REMARK  6 active torsions:
REMARK  status: ('A' for Active; 'I' for Inactive)
REMARK    1  A    between atoms: C_3  and  C_4 
REMARK    2  A    between atoms: C_4  and  N_5 
REMARK    3  A    between atoms: N_5  and  C_8 
REMARK    4  A    between atoms: C_8  and  C_9 
REMARK    5  A    between atoms: N_12  and  C_13 
REMARK    6  A    between atoms: C_28  and  O_29 
ROOT
HETATM    1  N   UNL     1       4.817  27.123  52.961  1.00  0.00    -0.062 N 
HETATM    2  H   UNL     1       3.851  27.309  53.250  1.00  0.00     0.278 HD
HETATM    3  H   UNL     1       4.838  26.169  52.588  1.00  0.00     0.278 HD
ENDROOT
BRANCH   1   4
HETATM    4  C   UNL     1       5.132  28.034  51.839  1.00  0.00     0.290 C 
BRANCH   4   5
HETATM    5  C   UNL     1       4.267  27.808  50.647  1.00  0.00     0.042 A 
HETATM    6  C   UNL     1       3.168  28.464  50.089  1.00  0.00    -0.025 A 
HETATM    7  C   UNL     1       2.479  29.706  50.549  1.00  0.00     0.051 C 
HETATM    8  C   UNL     1       2.761  27.706  48.938  1.00  0.00     0.001 A 
HETATM    9  C   UNL     1       3.624  26.624  48.818  1.00  0.00     0.043 A 
HETATM   10  C   UNL     1       1.729  27.841  47.985  1.00  0.00     0.051 A 
HETATM   11  N   UNL     1       4.525  26.710  49.846  1.00  0.00    -0.357 N 
HETATM   12  C   UNL     1       3.512  25.674  47.796  1.00  0.00     0.033 A 
HETATM   13  H   UNL     1       5.267  26.035  49.982  1.00  0.00     0.166 HD
HETATM   14  C   UNL     1       2.476  25.832  46.867  1.00  0.00     0.039 A 
HETATM   15  C   UNL     1       1.588  26.901  46.954  1.00  0.00     0.069 A 
BRANCH  15  16
HETATM   16  O   UNL     1       0.542  27.151  46.108  1.00  0.00    -0.356 OA
HETATM   17  C   UNL     1      -0.119  28.403  46.246  1.00  0.00     0.210 C 
ENDBRANCH  15  16
ENDBRANCH   4   5
ENDBRANCH   1   4
BRANCH   1  18
HETATM   18  C   UNL     1       5.731  27.194  54.145  1.00  0.00     0.218 C 
HETATM   19  C   UNL     1       6.882  28.133  53.787  1.00  0.00     0.045 C 
BRANCH  18  20
HETATM   20  C   UNL     1       6.215  25.850  54.579  1.00  0.00     0.015 C 
HETATM   21  C   UNL     1       6.989  24.929  53.875  1.00  0.00     0.042 C 
HETATM   22  C   UNL     1       7.612  25.069  52.529  1.00  0.00     0.071 C 
HETATM   23  N   UNL     1       7.124  23.804  54.700  1.00  0.00    -0.238 N 
HETATM   24  N   UNL     1       6.646  24.084  55.941  1.00  0.00    -0.179 NA
HETATM   25  C   UNL     1       6.015  25.242  55.832  1.00  0.00     0.150 C 
BRANCH  23  26
HETATM   26  C   UNL     1       7.664  22.508  54.443  1.00  0.00     0.058 A 
HETATM   27  C   UNL     1       8.025  21.698  55.535  1.00  0.00     0.031 A 
HETATM   28  C   UNL     1       8.552  20.421  55.332  1.00  0.00     0.002 A 
HETATM   29  C   UNL     1       8.709  19.929  54.040  1.00  0.00     0.000 A 
HETATM   30  C   UNL     1       8.331  20.711  52.952  1.00  0.00     0.002 A 
HETATM   31  C   UNL     1       7.805  21.994  53.149  1.00  0.00     0.031 A 
ENDBRANCH  23  26
ENDBRANCH  18  20
ENDBRANCH   1  18
TORSDOF 6
ENDMDL
MODEL 9
REMARK VINA RESULT:      -9.0      1.287      2.093
REMARK  6 active torsions:
REMARK  status: ('A' for Active; 'I' for Inactive)
REMARK    1  A    between atoms: C_3  and  C_4 
REMARK    2  A    between atoms: C_4  and  N_5 
REMARK    3  A    between atoms: N_5  and  C_8 
REMARK    4  A    between atoms: C_8  and  C_9 
REMARK    5  A    between atoms: N_12  and  C_13 
REMARK    6  A    between atoms: C_28  and  O_29 
ROOT
HETATM    1  N   UNL     1       6.635  30.279  56.309  1.00  0.00    -0.062 N 
HETATM    2  H   UNL     1       6.237  31.161  56.645  1.00  0.00     0.278 HD
HETATM    3  H   UNL     1       7.264  30.512  55.534  1.00  0.00     0.278 HD
ENDROOT
BRANCH   1   4
HETATM    4  C   UNL     1       7.474  29.725  57.395  1.00  0.00     0.290 C 
BRANCH   4   5
HETATM    5  C   UNL     1       7.382  30.509  58.658  1.00  0.00     0.042 A 
HETATM    6  C   UNL     1       6.656  31.627  59.072  1.00  0.00    -0.025 A 
HETATM    7  C   UNL     1       5.653  32.433  58.315  1.00  0.00     0.051 C 
HETATM    8  C   UNL     1       7.056  31.915  60.422  1.00  0.00     0.001 A 
HETATM    9  C   UNL     1       7.997  30.966  60.796  1.00  0.00     0.043 A 
HETATM   10  C   UNL     1       6.702  32.906  61.363  1.00  0.00     0.051 A 
HETATM   11  N   UNL     1       8.171  30.126  59.728  1.00  0.00    -0.357 N 
HETATM   12  C   UNL     1       8.601  30.952  62.059  1.00  0.00     0.033 A 
HETATM   13  H   UNL     1       8.810  29.341  59.746  1.00  0.00     0.166 HD
HETATM   14  C   UNL     1       8.234  31.950  62.971  1.00  0.00     0.039 A 
HETATM   15  C   UNL     1       7.295  32.922  62.633  1.00  0.00     0.069 A 
BRANCH  15  16
HETATM   16  O   UNL     1       6.866  33.940  63.440  1.00  0.00    -0.356 OA
HETATM   17  C   UNL     1       7.168  33.841  64.826  1.00  0.00     0.210 C 
ENDBRANCH  15  16
ENDBRANCH   4   5
ENDBRANCH   1   4
BRANCH   1  18
HETATM   18  C   UNL     1       5.549  29.387  55.794  1.00  0.00     0.218 C 
HETATM   19  C   UNL     1       4.292  29.663  56.618  1.00  0.00     0.045 C 
BRANCH  18  20
HETATM   20  C   UNL     1       5.932  27.944  55.817  1.00  0.00     0.015 C 
HETATM   21  C   UNL     1       6.838  27.265  55.003  1.00  0.00     0.042 C 
HETATM   22  C   UNL     1       7.729  27.811  53.942  1.00  0.00     0.071 C 
HETATM   23  N   UNL     1       6.797  25.919  55.392  1.00  0.00    -0.238 N 
HETATM   24  N   UNL     1       6.068  25.792  56.532  1.00  0.00    -0.179 NA
HETATM   25  C   UNL     1       5.473  26.960  56.712  1.00  0.00     0.150 C 
BRANCH  23  26
HETATM   26  C   UNL     1       7.378  24.753  54.810  1.00  0.00     0.058 A 
HETATM   27  C   UNL     1       8.303  24.011  55.565  1.00  0.00     0.031 A 
HETATM   28  C   UNL     1       8.895  22.860  55.039  1.00  0.00     0.002 A 
HETATM   29  C   UNL     1       8.558  22.427  53.761  1.00  0.00     0.000 A 
HETATM   30  C   UNL     1       7.624  23.139  53.013  1.00  0.00     0.002 A 
HETATM   31  C   UNL     1       7.031  24.295  53.534  1.00  0.00     0.031 A 
ENDBRANCH  23  26
ENDBRANCH  18  20
ENDBRANCH   1  18
TORSDOF 6
ENDMDL
MODEL 10
REMARK VINA RESULT:      -9.0      3.336     10.277
REMARK  6 active torsions:
REMARK  status: ('A' for Active; 'I' for Inactive)
REMARK    1  A    between atoms: C_3  and  C_4 
REMARK    2  A    between atoms: C_4  and  N_5 
REMARK    3  A    between atoms: N_5  and  C_8 
REMARK    4  A    between atoms: C_8  and  C_9 
REMARK    5  A    between atoms: N_12  and  C_13 
REMARK    6  A    between atoms: C_28  and  O_29 
ROOT
HETATM    1  N   UNL     1       6.922  28.394  56.414  1.00  0.00    -0.062 N 
HETATM    2  H   UNL     1       5.993  28.581  56.803  1.00  0.00     0.278 HD
HETATM    3  H   UNL     1       7.341  27.654  56.986  1.00  0.00     0.278 HD
ENDROOT
BRANCH   1   4
HETATM    4  C   UNL     1       6.735  27.837  55.056  1.00  0.00     0.290 C 
BRANCH   4   5
HETATM    5  C   UNL     1       7.034  26.380  54.979  1.00  0.00     0.042 A 
HETATM    6  C   UNL     1       6.916  25.402  53.989  1.00  0.00    -0.025 A 
HETATM    7  C   UNL     1       6.431  25.536  52.584  1.00  0.00     0.051 C 
HETATM    8  C   UNL     1       7.347  24.159  54.569  1.00  0.00     0.001 A 
HETATM    9  C   UNL     1       7.725  24.413  55.881  1.00  0.00     0.043 A 
HETATM   10  C   UNL     1       7.447  22.834  54.094  1.00  0.00     0.051 A 
HETATM   11  N   UNL     1       7.539  25.752  56.103  1.00  0.00    -0.357 N 
HETATM   12  C   UNL     1       8.199  23.416  56.740  1.00  0.00     0.033 A 
HETATM   13  H   UNL     1       7.745  26.194  56.990  1.00  0.00     0.166 HD
HETATM   14  C   UNL     1       8.283  22.109  56.243  1.00  0.00     0.039 A 
HETATM   15  C   UNL     1       7.911  21.812  54.934  1.00  0.00     0.069 A 
BRANCH  15  16
HETATM   16  O   UNL     1       7.949  20.577  54.347  1.00  0.00    -0.356 OA
HETATM   17  C   UNL     1       8.344  20.520  52.981  1.00  0.00     0.210 C 
ENDBRANCH  15  16
ENDBRANCH   4   5
ENDBRANCH   1   4
BRANCH   1  18
HETATM   18  C   UNL     1       7.778  29.619  56.513  1.00  0.00     0.218 C 
HETATM   19  C   UNL     1       9.102  29.318  55.811  1.00  0.00     0.045 C 
BRANCH  18  20
HETATM   20  C   UNL     1       7.978  30.067  57.923  1.00  0.00     0.015 C 
HETATM   21  C   UNL     1       7.140  30.844  58.721  1.00  0.00     0.042 C 
HETATM   22  C   UNL     1       5.781  31.371  58.412  1.00  0.00     0.071 C 
HETATM   23  N   UNL     1       7.805  31.028  59.941  1.00  0.00    -0.238 N 
HETATM   24  N   UNL     1       8.905  30.230  59.990  1.00  0.00    -0.179 NA
HETATM   25  C   UNL     1       9.061  29.756  58.765  1.00  0.00     0.150 C 
BRANCH  23  26
HETATM   26  C   UNL     1       7.506  31.862  61.060  1.00  0.00     0.058 A 
HETATM   27  C   UNL     1       8.241  31.689  62.247  1.00  0.00     0.031 A 
HETATM   28  C   UNL     1       7.987  32.486  63.366  1.00  0.00     0.002 A 
HETATM   29  C   UNL     1       7.010  33.475  63.309  1.00  0.00     0.000 A 
HETATM   30  C   UNL     1       6.294  33.674  62.131  1.00  0.00     0.002 A 
HETATM   31  C   UNL     1       6.542  32.876  61.008  1.00  0.00     0.031 A 
ENDBRANCH  23  26
ENDBRANCH  18  20
ENDBRANCH   1  18
TORSDOF 6
ENDMDL
