MODEL 1
REMARK VINA RESULT:      -9.5      0.000      0.000
REMARK  6 active torsions:
REMARK  status: ('A' for Active; 'I' for Inactive)
REMARK    1  A    between atoms: C_3  and  C_4 
REMARK    2  A    between atoms: C_4  and  N_5 
REMARK    3  A    between atoms: C_4  and  C_9 
REMARK       I    between atoms: N_5  and  C_6 
REMARK       I    between atoms: C_6  and  N_7 
REMARK    4  A    between atoms: C_9  and  C_10 
REMARK       I    between atoms: C_10  and  N_11 
REMARK    5  A    between atoms: N_11  and  C_12 
REMARK    6  A    between atoms: C_14  and  C_15 
ROOT
HETATM    1  C   UNL     1       7.272  27.701  57.754  1.00  0.00     0.133 C 
ENDROOT
BRANCH   1   2
HETATM    2  C   UNL     1       7.341  29.038  57.009  1.00  0.00     0.128 C 
BRANCH   2   3
HETATM    3  C   UNL     1       8.204  30.040  57.779  1.00  0.00    -0.029 A 
HETATM    4  C   UNL     1       9.566  30.246  57.449  1.00  0.00    -0.054 A 
HETATM    5  C   UNL     1      10.240  29.511  56.319  1.00  0.00     0.049 C 
HETATM    6  C   UNL     1      10.328  31.165  58.192  1.00  0.00     0.007 A 
HETATM    7  C   UNL     1       9.767  31.867  59.257  1.00  0.00     0.001 A 
HETATM    8  C   UNL     1       8.438  31.653  59.600  1.00  0.00     0.001 A 
HETATM    9  C   UNL     1       7.667  30.745  58.874  1.00  0.00     0.010 A 
ENDBRANCH   2   3
BRANCH   2  10
HETATM   10  N   UNL     1       6.052  29.616  56.613  1.00  0.00    -0.334 N 
HETATM   11  C   UNL     1       5.417  29.450  55.425  1.00  0.00     0.314 C 
HETATM   12  N   UNL     1       4.222  30.091  55.384  1.00  0.00    -0.352 N 
HETATM   13  O   UNL     1       5.827  28.817  54.465  1.00  0.00    -0.248 OA
HETATM   14  H   UNL     1       3.681  30.133  56.236  1.00  0.00     0.160 HD
HETATM   15  H   UNL     1       3.686  29.899  54.548  1.00  0.00     0.160 HD
HETATM   16  H   UNL     1       5.657  30.295  57.245  1.00  0.00     0.165 HD
ENDBRANCH   2  10
ENDBRANCH   1   2
BRANCH   1  17
HETATM   17  C   UNL     1       7.885  26.600  56.913  1.00  0.00     0.224 C 
HETATM   18  N   UNL     1       7.265  26.447  55.687  1.00  0.00    -0.327 N 
HETATM   19  H   UNL     1       6.552  27.132  55.456  1.00  0.00     0.169 HD
HETATM   20  O   UNL     1       8.798  25.913  57.360  1.00  0.00    -0.273 OA
BRANCH  18  21
HETATM   21  C   UNL     1       7.540  25.484  54.696  1.00  0.00     0.035 A 
HETATM   22  C   UNL     1       7.850  24.147  54.968  1.00  0.00     0.042 A 
HETATM   23  C   UNL     1       8.115  23.232  53.932  1.00  0.00    -0.021 A 
HETATM   24  C   UNL     1       8.043  23.682  52.607  1.00  0.00     0.012 A 
HETATM   25  C   UNL     1       7.737  25.012  52.324  1.00  0.00     0.003 A 
HETATM   26  C   UNL     1       7.497  25.911  53.364  1.00  0.00     0.029 A 
BRANCH  23  27
HETATM   27  C   UNL     1       8.458  21.852  54.249  1.00  0.00     0.010 A 
HETATM   28  C   UNL     1       8.517  20.699  53.426  1.00  0.00     0.152 A 
HETATM   29  N   UNL     1       8.856  19.595  54.097  1.00  0.00    -0.187 NA
HETATM   30  N   UNL     1       9.009  20.031  55.356  1.00  0.00    -0.289 N 
HETATM   31  H   UNL     1       9.265  19.358  56.070  1.00  0.00     0.188 HD
HETATM   32  C   UNL     1       8.782  21.369  55.501  1.00  0.00     0.123 A 
ENDBRANCH  23  27
ENDBRANCH  18  21
ENDBRANCH   1  17
TORSDOF 6
ENDMDL
MODEL 2
REMARK VINA RESULT:      -9.2      4.595      8.325
REMARK  6 active torsions:
REMARK  status: ('A' for Active; 'I' for Inactive)
REMARK    1  A    between atoms: C_3  and  C_4 
REMARK    2  A    between atoms: C_4  and  N_5 
REMARK    3  A    between atoms: C_4  and  C_9 
REMARK       I    between atoms: N_5  and  C_6 
REMARK       I    between atoms: C_6  and  N_7 
REMARK    4  A    between atoms: C_9  and  C_10 
REMARK       I    between atoms: C_10  and  N_11 
REMARK    5  A    between atoms: N_11  and  C_12 
REMARK    6  A    between atoms: C_14  and  C_15 
ROOT
HETATM    1  C   UNL     1       7.673  24.730  52.370  1.00  0.00     0.133 C 
ENDROOT
BRANCH   1   2
HETATM    2  C   UNL     1       7.631  24.440  53.874  1.00  0.00     0.128 C 
BRANCH   2   3
HETATM    3  C   UNL     1       7.904  22.960  54.145  1.00  0.00    -0.029 A 
HETATM    4  C   UNL     1       8.407  22.520  55.395  1.00  0.00    -0.054 A 
HETATM    5  C   UNL     1       8.686  23.471  56.530  1.00  0.00     0.049 C 
HETATM    6  C   UNL     1       8.660  21.152  55.597  1.00  0.00     0.007 A 
HETATM    7  C   UNL     1       8.436  20.223  54.582  1.00  0.00     0.001 A 
HETATM    8  C   UNL     1       7.964  20.650  53.348  1.00  0.00     0.001 A 
HETATM    9  C   UNL     1       7.708  22.004  53.129  1.00  0.00     0.010 A 
ENDBRANCH   2   3
BRANCH   2  10
HETATM   10  N   UNL     1       6.439  24.916  54.583  1.00  0.00    -0.334 N 
HETATM   11  C   UNL     1       6.326  26.058  55.308  1.00  0.00     0.314 C 
HETATM   12  N   UNL     1       5.077  26.229  55.812  1.00  0.00    -0.352 N 
HETATM   13  O   UNL     1       7.210  26.872  55.523  1.00  0.00    -0.248 OA
HETATM   14  H   UNL     1       4.298  25.914  55.252  1.00  0.00     0.160 HD
HETATM   15  H   UNL     1       4.941  27.121  56.270  1.00  0.00     0.160 HD
HETATM   16  H   UNL     1       5.664  24.273  54.630  1.00  0.00     0.165 HD
ENDBRANCH   2  10
ENDBRANCH   1   2
BRANCH   1  17
HETATM   17  C   UNL     1       6.332  25.254  51.898  1.00  0.00     0.224 C 
HETATM   18  N   UNL     1       6.409  26.522  51.353  1.00  0.00    -0.327 N 
HETATM   19  H   UNL     1       7.341  26.910  51.246  1.00  0.00     0.169 HD
HETATM   20  O   UNL     1       5.313  24.591  52.067  1.00  0.00    -0.273 OA
BRANCH  18  21
HETATM   21  C   UNL     1       5.349  27.321  50.879  1.00  0.00     0.035 A 
HETATM   22  C   UNL     1       4.498  26.952  49.832  1.00  0.00     0.042 A 
HETATM   23  C   UNL     1       3.455  27.795  49.405  1.00  0.00    -0.021 A 
HETATM   24  C   UNL     1       3.268  29.016  50.066  1.00  0.00     0.012 A 
HETATM   25  C   UNL     1       4.112  29.395  51.109  1.00  0.00     0.003 A 
HETATM   26  C   UNL     1       5.153  28.556  51.507  1.00  0.00     0.029 A 
BRANCH  23  27
HETATM   27  C   UNL     1       2.600  27.393  48.295  1.00  0.00     0.010 A 
HETATM   28  C   UNL     1       1.241  27.685  48.019  1.00  0.00     0.152 A 
HETATM   29  N   UNL     1       0.800  27.107  46.898  1.00  0.00    -0.187 NA
HETATM   30  N   UNL     1       1.871  26.435  46.452  1.00  0.00    -0.289 N 
HETATM   31  H   UNL     1       1.780  25.898  45.597  1.00  0.00     0.188 HD
HETATM   32  C   UNL     1       2.971  26.572  47.250  1.00  0.00     0.123 A 
ENDBRANCH  23  27
ENDBRANCH  18  21
ENDBRANCH   1  17
TORSDOF 6
ENDMDL
MODEL 3
REMARK VINA RESULT:      -9.2      3.931      7.813
REMARK  6 active torsions:
REMARK  status: ('A' for Active; 'I' for Inactive)
REMARK    1  A    between atoms: C_3  and  C_4 
REMARK    2  A    between atoms: C_4  and  N_5 
REMARK    3  A    between atoms: C_4  and  C_9 
REMARK       I    between atoms: N_5  and  C_6 
REMARK       I    between atoms: C_6  and  N_7 
REMARK    4  A    between atoms: C_9  and  C_10 
REMARK       I    between atoms: C_10  and  N_11 
REMARK    5  A    between atoms: N_11  and  C_12 
REMARK    6  A    between atoms: C_14  and  C_15 
ROOT
HETATM    1  C   UNL     1       6.184  24.555  55.623  1.00  0.00     0.133 C 
ENDROOT
BRANCH   1   2
HETATM    2  C   UNL     1       7.637  24.070  55.633  1.00  0.00     0.128 C 
BRANCH   2   3
HETATM    3  C   UNL     1       7.791  22.811  54.777  1.00  0.00    -0.029 A 
HETATM    4  C   UNL     1       7.962  22.891  53.372  1.00  0.00    -0.054 A 
HETATM    5  C   UNL     1       8.019  24.209  52.642  1.00  0.00     0.049 C 
HETATM    6  C   UNL     1       8.083  21.709  52.621  1.00  0.00     0.007 A 
HETATM    7  C   UNL     1       8.025  20.459  53.234  1.00  0.00     0.001 A 
HETATM    8  C   UNL     1       7.835  20.374  54.608  1.00  0.00     0.001 A 
HETATM    9  C   UNL     1       7.712  21.536  55.369  1.00  0.00     0.010 A 
ENDBRANCH   2   3
BRANCH   2  10
HETATM   10  N   UNL     1       8.250  23.910  56.956  1.00  0.00    -0.334 N 
HETATM   11  C   UNL     1       8.616  24.901  57.808  1.00  0.00     0.314 C 
HETATM   12  N   UNL     1       9.124  24.421  58.971  1.00  0.00    -0.352 N 
HETATM   13  O   UNL     1       8.531  26.102  57.603  1.00  0.00    -0.248 OA
HETATM   14  H   UNL     1       8.729  23.568  59.340  1.00  0.00     0.160 HD
HETATM   15  H   UNL     1       9.311  25.138  59.660  1.00  0.00     0.160 HD
HETATM   16  H   UNL     1       8.528  22.974  57.206  1.00  0.00     0.165 HD
ENDBRANCH   2  10
ENDBRANCH   1   2
BRANCH   1  17
HETATM   17  C   UNL     1       6.055  25.808  54.782  1.00  0.00     0.224 C 
HETATM   18  N   UNL     1       4.972  25.774  53.924  1.00  0.00    -0.327 N 
HETATM   19  H   UNL     1       4.349  24.978  54.018  1.00  0.00     0.169 HD
HETATM   20  O   UNL     1       6.894  26.700  54.863  1.00  0.00    -0.273 OA
BRANCH  18  21
HETATM   21  C   UNL     1       4.600  26.740  52.967  1.00  0.00     0.035 A 
HETATM   22  C   UNL     1       4.902  26.649  51.604  1.00  0.00     0.042 A 
HETATM   23  C   UNL     1       4.501  27.647  50.698  1.00  0.00    -0.021 A 
HETATM   24  C   UNL     1       3.767  28.738  51.184  1.00  0.00     0.012 A 
HETATM   25  C   UNL     1       3.463  28.840  52.541  1.00  0.00     0.003 A 
HETATM   26  C   UNL     1       3.886  27.851  53.429  1.00  0.00     0.029 A 
BRANCH  23  27
HETATM   27  C   UNL     1       4.851  27.536  49.287  1.00  0.00     0.010 A 
HETATM   28  C   UNL     1       4.591  26.508  48.346  1.00  0.00     0.152 A 
HETATM   29  N   UNL     1       5.100  26.766  47.138  1.00  0.00    -0.187 NA
HETATM   30  N   UNL     1       5.695  27.956  47.299  1.00  0.00    -0.289 N 
HETATM   31  H   UNL     1       6.170  28.368  46.503  1.00  0.00     0.188 HD
HETATM   32  C   UNL     1       5.577  28.459  48.563  1.00  0.00     0.123 A 
ENDBRANCH  23  27
ENDBRANCH  18  21
ENDBRANCH   1  17
TORSDOF 6
ENDMDL
MODEL 4
REMARK VINA RESULT:      -9.0      1.849      3.069
REMARK  6 active torsions:
REMARK  status: ('A' for Active; 'I' for Inactive)
REMARK    1  A    between atoms: C_3  and  C_4 
REMARK    2  A    between atoms: C_4  and  N_5 
REMARK    3  A    between atoms: C_4  and  C_9 
REMARK       I    between atoms: N_5  and  C_6 
REMARK       I    between atoms: C_6  and  N_7 
REMARK    4  A    between atoms: C_9  and  C_10 
REMARK       I    between atoms: C_10  and  N_11 
REMARK    5  A    between atoms: N_11  and  C_12 
REMARK    6  A    between atoms: C_14  and  C_15 
ROOT
HETATM    1  C   UNL     1       6.497  27.972  57.427  1.00  0.00     0.133 C 
ENDROOT
BRANCH   1   2
HETATM    2  C   UNL     1       7.272  29.286  57.575  1.00  0.00     0.128 C 
BRANCH   2   3
HETATM    3  C   UNL     1       6.370  30.482  57.266  1.00  0.00    -0.029 A 
HETATM    4  C   UNL     1       6.242  31.563  58.173  1.00  0.00    -0.054 A 
HETATM    5  C   UNL     1       6.991  31.610  59.480  1.00  0.00     0.049 C 
HETATM    6  C   UNL     1       5.389  32.635  57.857  1.00  0.00     0.007 A 
HETATM    7  C   UNL     1       4.658  32.645  56.670  1.00  0.00     0.001 A 
HETATM    8  C   UNL     1       4.763  31.578  55.787  1.00  0.00     0.001 A 
HETATM    9  C   UNL     1       5.603  30.506  56.085  1.00  0.00     0.010 A 
ENDBRANCH   2   3
BRANCH   2  10
HETATM   10  N   UNL     1       8.547  29.360  56.855  1.00  0.00    -0.334 N 
HETATM   11  C   UNL     1       9.721  29.850  57.328  1.00  0.00     0.314 C 
HETATM   12  N   UNL     1      10.727  29.745  56.422  1.00  0.00    -0.352 N 
HETATM   13  O   UNL     1       9.911  30.346  58.427  1.00  0.00    -0.248 OA
HETATM   14  H   UNL     1      10.732  28.937  55.817  1.00  0.00     0.160 HD
HETATM   15  H   UNL     1      11.633  30.011  56.787  1.00  0.00     0.160 HD
HETATM   16  H   UNL     1       8.517  29.129  55.874  1.00  0.00     0.165 HD
ENDBRANCH   2  10
ENDBRANCH   1   2
BRANCH   1  17
HETATM   17  C   UNL     1       7.308  26.970  56.631  1.00  0.00     0.224 C 
HETATM   18  N   UNL     1       6.690  26.585  55.457  1.00  0.00    -0.327 N 
HETATM   19  H   UNL     1       5.832  27.073  55.220  1.00  0.00     0.169 HD
HETATM   20  O   UNL     1       8.371  26.543  57.072  1.00  0.00    -0.273 OA
BRANCH  18  21
HETATM   21  C   UNL     1       7.136  25.629  54.522  1.00  0.00     0.035 A 
HETATM   22  C   UNL     1       7.389  24.289  54.831  1.00  0.00     0.042 A 
HETATM   23  C   UNL     1       7.832  23.383  53.850  1.00  0.00    -0.021 A 
HETATM   24  C   UNL     1       7.999  23.845  52.538  1.00  0.00     0.012 A 
HETATM   25  C   UNL     1       7.753  25.180  52.219  1.00  0.00     0.003 A 
HETATM   26  C   UNL     1       7.333  26.069  53.208  1.00  0.00     0.029 A 
BRANCH  23  27
HETATM   27  C   UNL     1       8.110  21.998  54.209  1.00  0.00     0.010 A 
HETATM   28  C   UNL     1       8.638  20.929  53.442  1.00  0.00     0.152 A 
HETATM   29  N   UNL     1       8.726  19.787  54.129  1.00  0.00    -0.187 NA
HETATM   30  N   UNL     1       8.247  20.114  55.338  1.00  0.00    -0.289 N 
HETATM   31  H   UNL     1       8.205  19.392  56.049  1.00  0.00     0.188 HD
HETATM   32  C   UNL     1       7.865  21.420  55.438  1.00  0.00     0.123 A 
ENDBRANCH  23  27
ENDBRANCH  18  21
ENDBRANCH   1  17
TORSDOF 6
ENDMDL
MODEL 5
REMARK VINA RESULT:      -9.0      2.821      8.201
REMARK  6 active torsions:
REMARK  status: ('A' for Active; 'I' for Inactive)
REMARK    1  A    between atoms: C_3  and  C_4 
REMARK    2  A    between atoms: C_4  and  N_5 
REMARK    3  A    between atoms: C_4  and  C_9 
REMARK       I    between atoms: N_5  and  C_6 
REMARK       I    between atoms: C_6  and  N_7 
REMARK    4  A    between atoms: C_9  and  C_10 
REMARK       I    between atoms: C_10  and  N_11 
REMARK    5  A    between atoms: N_11  and  C_12 
REMARK    6  A    between atoms: C_14  and  C_15 
ROOT
HETATM    1  C   UNL     1       5.855  26.302  56.571  1.00  0.00     0.133 C 
ENDROOT
BRANCH   1   2
HETATM    2  C   UNL     1       5.771  26.171  55.047  1.00  0.00     0.128 C 
BRANCH   2   3
HETATM    3  C   UNL     1       6.652  25.022  54.554  1.00  0.00    -0.029 A 
HETATM    4  C   UNL     1       6.358  24.329  53.354  1.00  0.00    -0.054 A 
HETATM    5  C   UNL     1       5.180  24.687  52.486  1.00  0.00     0.049 C 
HETATM    6  C   UNL     1       7.185  23.268  52.946  1.00  0.00     0.007 A 
HETATM    7  C   UNL     1       8.283  22.878  53.711  1.00  0.00     0.001 A 
HETATM    8  C   UNL     1       8.564  23.539  54.901  1.00  0.00     0.001 A 
HETATM    9  C   UNL     1       7.754  24.593  55.321  1.00  0.00     0.010 A 
ENDBRANCH   2   3
BRANCH   2  10
HETATM   10  N   UNL     1       6.001  27.403  54.285  1.00  0.00    -0.334 N 
HETATM   11  C   UNL     1       5.068  28.142  53.633  1.00  0.00     0.314 C 
HETATM   12  N   UNL     1       5.599  29.247  53.052  1.00  0.00    -0.352 N 
HETATM   13  O   UNL     1       3.877  27.889  53.539  1.00  0.00    -0.248 OA
HETATM   14  H   UNL     1       6.358  29.712  53.530  1.00  0.00     0.160 HD
HETATM   15  H   UNL     1       4.908  29.866  52.646  1.00  0.00     0.160 HD
HETATM   16  H   UNL     1       6.964  27.660  54.139  1.00  0.00     0.165 HD
ENDBRANCH   2  10
ENDBRANCH   1   2
BRANCH   1  17
HETATM   17  C   UNL     1       6.332  27.688  56.953  1.00  0.00     0.224 C 
HETATM   18  N   UNL     1       7.689  27.743  57.207  1.00  0.00    -0.327 N 
HETATM   19  H   UNL     1       8.215  26.894  57.022  1.00  0.00     0.169 HD
HETATM   20  O   UNL     1       5.530  28.611  57.065  1.00  0.00    -0.273 OA
BRANCH  18  21
HETATM   21  C   UNL     1       8.440  28.853  57.644  1.00  0.00     0.035 A 
HETATM   22  C   UNL     1       8.152  29.588  58.798  1.00  0.00     0.042 A 
HETATM   23  C   UNL     1       8.942  30.688  59.181  1.00  0.00    -0.021 A 
HETATM   24  C   UNL     1      10.048  31.026  58.390  1.00  0.00     0.012 A 
HETATM   25  C   UNL     1      10.344  30.301  57.236  1.00  0.00     0.003 A 
HETATM   26  C   UNL     1       9.538  29.226  56.860  1.00  0.00     0.029 A 
BRANCH  23  27
HETATM   27  C   UNL     1       8.602  31.449  60.376  1.00  0.00     0.010 A 
HETATM   28  C   UNL     1       9.205  31.480  61.659  1.00  0.00     0.152 A 
HETATM   29  N   UNL     1       8.582  32.301  62.509  1.00  0.00    -0.187 NA
HETATM   30  N   UNL     1       7.571  32.796  61.779  1.00  0.00    -0.289 N 
HETATM   31  H   UNL     1       6.937  33.453  62.220  1.00  0.00     0.188 HD
HETATM   32  C   UNL     1       7.537  32.319  60.501  1.00  0.00     0.123 A 
ENDBRANCH  23  27
ENDBRANCH  18  21
ENDBRANCH   1  17
TORSDOF 6
ENDMDL
MODEL 6
REMARK VINA RESULT:      -9.0      2.440      8.113
REMARK  6 active torsions:
REMARK  status: ('A' for Active; 'I' for Inactive)
REMARK    1  A    between atoms: C_3  and  C_4 
REMARK    2  A    between atoms: C_4  and  N_5 
REMARK    3  A    between atoms: C_4  and  C_9 
REMARK       I    between atoms: N_5  and  C_6 
REMARK       I    between atoms: C_6  and  N_7 
REMARK    4  A    between atoms: C_9  and  C_10 
REMARK       I    between atoms: C_10  and  N_11 
REMARK    5  A    between atoms: N_11  and  C_12 
REMARK    6  A    between atoms: C_14  and  C_15 
ROOT
HETATM    1  C   UNL     1       7.177  26.623  54.175  1.00  0.00     0.133 C 
ENDROOT
BRANCH   1   2
HETATM    2  C   UNL     1       7.186  25.521  55.240  1.00  0.00     0.128 C 
BRANCH   2   3
HETATM    3  C   UNL     1       7.779  24.229  54.674  1.00  0.00    -0.029 A 
HETATM    4  C   UNL     1       8.668  23.430  55.435  1.00  0.00    -0.054 A 
HETATM    5  C   UNL     1       9.070  23.791  56.842  1.00  0.00     0.049 C 
HETATM    6  C   UNL     1       9.203  22.259  54.871  1.00  0.00     0.007 A 
HETATM    7  C   UNL     1       8.881  21.878  53.569  1.00  0.00     0.001 A 
HETATM    8  C   UNL     1       8.027  22.668  52.811  1.00  0.00     0.001 A 
HETATM    9  C   UNL     1       7.488  23.834  53.354  1.00  0.00     0.010 A 
ENDBRANCH   2   3
BRANCH   2  10
HETATM   10  N   UNL     1       5.913  25.285  55.927  1.00  0.00    -0.334 N 
HETATM   11  C   UNL     1       5.373  26.035  56.921  1.00  0.00     0.314 C 
HETATM   12  N   UNL     1       4.163  25.568  57.322  1.00  0.00    -0.352 N 
HETATM   13  O   UNL     1       5.873  27.020  57.441  1.00  0.00    -0.248 OA
HETATM   14  H   UNL     1       3.560  25.162  56.621  1.00  0.00     0.160 HD
HETATM   15  H   UNL     1       3.697  26.168  57.991  1.00  0.00     0.160 HD
HETATM   16  H   UNL     1       5.449  24.414  55.716  1.00  0.00     0.165 HD
ENDBRANCH   2  10
ENDBRANCH   1   2
BRANCH   1  17
HETATM   17  C   UNL     1       7.524  27.959  54.799  1.00  0.00     0.224 C 
HETATM   18  N   UNL     1       8.450  27.855  55.820  1.00  0.00    -0.327 N 
HETATM   19  H   UNL     1       8.852  26.935  55.969  1.00  0.00     0.169 HD
HETATM   20  O   UNL     1       6.960  28.983  54.426  1.00  0.00    -0.273 OA
BRANCH  18  21
HETATM   21  C   UNL     1       8.942  28.886  56.646  1.00  0.00     0.035 A 
HETATM   22  C   UNL     1       8.249  29.406  57.744  1.00  0.00     0.042 A 
HETATM   23  C   UNL     1       8.796  30.437  58.532  1.00  0.00    -0.021 A 
HETATM   24  C   UNL     1      10.068  30.925  58.207  1.00  0.00     0.012 A 
HETATM   25  C   UNL     1      10.766  30.415  57.113  1.00  0.00     0.003 A 
HETATM   26  C   UNL     1      10.201  29.407  56.331  1.00  0.00     0.029 A 
BRANCH  23  27
HETATM   27  C   UNL     1       8.040  30.974  59.655  1.00  0.00     0.010 A 
HETATM   28  C   UNL     1       8.300  30.943  61.048  1.00  0.00     0.152 A 
HETATM   29  N   UNL     1       7.347  31.536  61.772  1.00  0.00    -0.187 NA
HETATM   30  N   UNL     1       6.465  31.945  60.848  1.00  0.00    -0.289 N 
HETATM   31  H   UNL     1       5.629  32.427  61.161  1.00  0.00     0.188 HD
HETATM   32  C   UNL     1       6.830  31.633  59.570  1.00  0.00     0.123 A 
ENDBRANCH  23  27
ENDBRANCH  18  21
ENDBRANCH   1  17
TORSDOF 6
ENDMDL
MODEL 7
REMARK VINA RESULT:      -8.9      4.531      7.600
REMARK  6 active torsions:
REMARK  status: ('A' for Active; 'I' for Inactive)
REMARK    1  A    between atoms: C_3  and  C_4 
REMARK    2  A    between atoms: C_4  and  N_5 
REMARK    3  A    between atoms: C_4  and  C_9 
REMARK       I    between atoms: N_5  and  C_6 
REMARK       I    between atoms: C_6  and  N_7 
REMARK    4  A    between atoms: C_9  and  C_10 
REMARK       I    between atoms: C_10  and  N_11 
REMARK    5  A    between atoms: N_11  and  C_12 
REMARK    6  A    between atoms: C_14  and  C_15 
ROOT
HETATM    1  C   UNL     1       5.394  26.592  49.850  1.00  0.00     0.133 C 
ENDROOT
BRANCH   1   2
HETATM    2  C   UNL     1       4.276  27.634  49.960  1.00  0.00     0.128 C 
BRANCH   2   3
HETATM    3  C   UNL     1       3.210  27.396  48.888  1.00  0.00    -0.029 A 
HETATM    4  C   UNL     1       1.944  28.028  48.955  1.00  0.00    -0.054 A 
HETATM    5  C   UNL     1       1.575  28.977  50.066  1.00  0.00     0.049 C 
HETATM    6  C   UNL     1       0.987  27.769  47.958  1.00  0.00     0.007 A 
HETATM    7  C   UNL     1       1.261  26.891  46.911  1.00  0.00     0.001 A 
HETATM    8  C   UNL     1       2.493  26.251  46.852  1.00  0.00     0.001 A 
HETATM    9  C   UNL     1       3.454  26.495  47.833  1.00  0.00     0.010 A 
ENDBRANCH   2   3
BRANCH   2  10
HETATM   10  N   UNL     1       4.708  29.034  50.002  1.00  0.00    -0.334 N 
HETATM   11  C   UNL     1       5.512  29.610  50.932  1.00  0.00     0.314 C 
HETATM   12  N   UNL     1       5.752  30.920  50.667  1.00  0.00    -0.352 N 
HETATM   13  O   UNL     1       5.986  29.068  51.917  1.00  0.00    -0.248 OA
HETATM   14  H   UNL     1       5.832  31.197  49.700  1.00  0.00     0.160 HD
HETATM   15  H   UNL     1       6.427  31.343  51.290  1.00  0.00     0.160 HD
HETATM   16  H   UNL     1       4.272  29.653  49.336  1.00  0.00     0.165 HD
ENDBRANCH   2  10
ENDBRANCH   1   2
BRANCH   1  17
HETATM   17  C   UNL     1       5.487  25.784  51.128  1.00  0.00     0.224 C 
HETATM   18  N   UNL     1       6.713  25.901  51.755  1.00  0.00    -0.327 N 
HETATM   19  H   UNL     1       7.361  26.571  51.352  1.00  0.00     0.169 HD
HETATM   20  O   UNL     1       4.551  25.072  51.482  1.00  0.00    -0.273 OA
BRANCH  18  21
HETATM   21  C   UNL     1       7.152  25.240  52.920  1.00  0.00     0.035 A 
HETATM   22  C   UNL     1       7.558  23.902  52.954  1.00  0.00     0.042 A 
HETATM   23  C   UNL     1       7.988  23.299  54.151  1.00  0.00    -0.021 A 
HETATM   24  C   UNL     1       8.023  24.075  55.317  1.00  0.00     0.012 A 
HETATM   25  C   UNL     1       7.619  25.409  55.294  1.00  0.00     0.003 A 
HETATM   26  C   UNL     1       7.176  25.985  54.104  1.00  0.00     0.029 A 
BRANCH  23  27
HETATM   27  C   UNL     1       8.382  21.895  54.159  1.00  0.00     0.010 A 
HETATM   28  C   UNL     1       8.408  20.933  53.119  1.00  0.00     0.152 A 
HETATM   29  N   UNL     1       8.817  19.730  53.531  1.00  0.00    -0.187 NA
HETATM   30  N   UNL     1       9.047  19.911  54.839  1.00  0.00    -0.289 N 
HETATM   31  H   UNL     1       9.367  19.118  55.385  1.00  0.00     0.188 HD
HETATM   32  C   UNL     1       8.802  21.184  55.265  1.00  0.00     0.123 A 
ENDBRANCH  23  27
ENDBRANCH  18  21
ENDBRANCH   1  17
TORSDOF 6
ENDMDL
MODEL 8
REMARK VINA RESULT:      -8.8      4.393      7.087
REMARK  6 active torsions:
REMARK  status: ('A' for Active; 'I' for Inactive)
REMARK    1  A    between atoms: C_3  and  C_4 
REMARK    2  A    between atoms: C_4  and  N_5 
REMARK    3  A    between atoms: C_4  and  C_9 
REMARK       I    between atoms: N_5  and  C_6 
REMARK       I    between atoms: C_6  and  N_7 
REMARK    4  A    between atoms: C_9  and  C_10 
REMARK       I    between atoms: C_10  and  N_11 
REMARK    5  A    between atoms: N_11  and  C_12 
REMARK    6  A    between atoms: C_14  and  C_15 
ROOT
HETATM    1  C   UNL     1       6.724  32.794  61.365  1.00  0.00     0.133 C 
ENDROOT
BRANCH   1   2
HETATM    2  C   UNL     1       5.209  33.001  61.461  1.00  0.00     0.128 C 
BRANCH   2   3
HETATM    3  C   UNL     1       4.831  33.604  62.815  1.00  0.00    -0.029 A 
HETATM    4  C   UNL     1       4.047  34.781  62.906  1.00  0.00    -0.054 A 
HETATM    5  C   UNL     1       3.526  35.496  61.686  1.00  0.00     0.049 C 
HETATM    6  C   UNL     1       3.737  35.311  64.171  1.00  0.00     0.007 A 
HETATM    7  C   UNL     1       4.199  34.703  65.337  1.00  0.00     0.001 A 
HETATM    8  C   UNL     1       4.987  33.562  65.254  1.00  0.00     0.001 A 
HETATM    9  C   UNL     1       5.306  33.023  64.007  1.00  0.00     0.010 A 
ENDBRANCH   2   3
BRANCH   2  10
HETATM   10  N   UNL     1       4.381  31.837  61.130  1.00  0.00    -0.334 N 
HETATM   11  C   UNL     1       3.354  31.793  60.245  1.00  0.00     0.314 C 
HETATM   12  N   UNL     1       2.812  30.553  60.141  1.00  0.00    -0.352 N 
HETATM   13  O   UNL     1       2.917  32.730  59.594  1.00  0.00    -0.248 OA
HETATM   14  H   UNL     1       3.433  29.761  60.222  1.00  0.00     0.160 HD
HETATM   15  H   UNL     1       2.112  30.474  59.415  1.00  0.00     0.160 HD
HETATM   16  H   UNL     1       4.519  31.018  61.702  1.00  0.00     0.165 HD
ENDBRANCH   2  10
ENDBRANCH   1   2
BRANCH   1  17
HETATM   17  C   UNL     1       7.089  32.199  60.021  1.00  0.00     0.224 C 
HETATM   18  N   UNL     1       8.057  31.216  60.109  1.00  0.00    -0.327 N 
HETATM   19  H   UNL     1       8.337  30.945  61.046  1.00  0.00     0.169 HD
HETATM   20  O   UNL     1       6.581  32.633  58.991  1.00  0.00    -0.273 OA
BRANCH  18  21
HETATM   21  C   UNL     1       8.664  30.508  59.053  1.00  0.00     0.035 A 
HETATM   22  C   UNL     1       8.111  29.372  58.452  1.00  0.00     0.042 A 
HETATM   23  C   UNL     1       8.768  28.709  57.399  1.00  0.00    -0.021 A 
HETATM   24  C   UNL     1       9.990  29.221  56.943  1.00  0.00     0.012 A 
HETATM   25  C   UNL     1      10.551  30.351  57.536  1.00  0.00     0.003 A 
HETATM   26  C   UNL     1       9.896  30.985  58.593  1.00  0.00     0.029 A 
BRANCH  23  27
HETATM   27  C   UNL     1       8.177  27.514  56.808  1.00  0.00     0.010 A 
HETATM   28  C   UNL     1       8.141  26.174  57.268  1.00  0.00     0.152 A 
HETATM   29  N   UNL     1       7.515  25.349  56.424  1.00  0.00    -0.187 NA
HETATM   30  N   UNL     1       7.154  26.154  55.414  1.00  0.00    -0.289 N 
HETATM   31  H   UNL     1       6.658  25.746  54.629  1.00  0.00     0.188 HD
HETATM   32  C   UNL     1       7.526  27.455  55.593  1.00  0.00     0.123 A 
ENDBRANCH  23  27
ENDBRANCH  18  21
ENDBRANCH   1  17
TORSDOF 6
ENDMDL
MODEL 9
REMARK VINA RESULT:      -8.8      2.121      8.505
REMARK  6 active torsions:
REMARK  status: ('A' for Active; 'I' for Inactive)
REMARK    1  A    between atoms: C_3  and  C_4 
REMARK    2  A    between atoms: C_4  and  N_5 
REMARK    3  A    between atoms: C_4  and  C_9 
REMARK       I    between atoms: N_5  and  C_6 
REMARK       I    between atoms: C_6  and  N_7 
REMARK    4  A    between atoms: C_9  and  C_10 
REMARK       I    between atoms: C_10  and  N_11 
REMARK    5  A    between atoms: N_11  and  C_12 
REMARK    6  A    between atoms: C_14  and  C_15 
ROOT
HETATM    1  C   UNL     1       6.273  24.789  55.357  1.00  0.00     0.133 C 
ENDROOT
BRANCH   1   2
HETATM    2  C   UNL     1       7.673  24.185  55.500  1.00  0.00     0.128 C 
BRANCH   2   3
HETATM    3  C   UNL     1       7.801  22.915  54.657  1.00  0.00    -0.029 A 
HETATM    4  C   UNL     1       7.869  22.972  53.243  1.00  0.00    -0.054 A 
HETATM    5  C   UNL     1       7.837  24.276  52.488  1.00  0.00     0.049 C 
HETATM    6  C   UNL     1       7.969  21.780  52.505  1.00  0.00     0.007 A 
HETATM    7  C   UNL     1       7.990  20.541  53.142  1.00  0.00     0.001 A 
HETATM    8  C   UNL     1       7.902  20.476  54.527  1.00  0.00     0.001 A 
HETATM    9  C   UNL     1       7.801  21.649  55.275  1.00  0.00     0.010 A 
ENDBRANCH   2   3
BRANCH   2  10
HETATM   10  N   UNL     1       8.144  23.980  56.873  1.00  0.00    -0.334 N 
HETATM   11  C   UNL     1       8.662  24.919  57.705  1.00  0.00     0.314 C 
HETATM   12  N   UNL     1       8.972  24.414  58.926  1.00  0.00    -0.352 N 
HETATM   13  O   UNL     1       8.858  26.095  57.439  1.00  0.00    -0.248 OA
HETATM   14  H   UNL     1       8.374  23.692  59.301  1.00  0.00     0.160 HD
HETATM   15  H   UNL     1       9.265  25.116  59.594  1.00  0.00     0.160 HD
HETATM   16  H   UNL     1       8.192  23.023  57.188  1.00  0.00     0.165 HD
ENDBRANCH   2  10
ENDBRANCH   1   2
BRANCH   1  17
HETATM   17  C   UNL     1       6.350  26.302  55.369  1.00  0.00     0.224 C 
HETATM   18  N   UNL     1       5.896  26.857  56.551  1.00  0.00    -0.327 N 
HETATM   19  H   UNL     1       5.659  26.205  57.292  1.00  0.00     0.169 HD
HETATM   20  O   UNL     1       6.732  26.912  54.375  1.00  0.00    -0.273 OA
BRANCH  18  21
HETATM   21  C   UNL     1       5.773  28.225  56.869  1.00  0.00     0.035 A 
HETATM   22  C   UNL     1       6.752  28.963  57.544  1.00  0.00     0.042 A 
HETATM   23  C   UNL     1       6.569  30.328  57.832  1.00  0.00    -0.021 A 
HETATM   24  C   UNL     1       5.387  30.949  57.409  1.00  0.00     0.012 A 
HETATM   25  C   UNL     1       4.404  30.223  56.738  1.00  0.00     0.003 A 
HETATM   26  C   UNL     1       4.592  28.865  56.479  1.00  0.00     0.029 A 
BRANCH  23  27
HETATM   27  C   UNL     1       7.597  31.064  58.557  1.00  0.00     0.010 A 
HETATM   28  C   UNL     1       9.005  31.094  58.394  1.00  0.00     0.152 A 
HETATM   29  N   UNL     1       9.616  31.887  59.279  1.00  0.00    -0.187 NA
HETATM   30  N   UNL     1       8.605  32.364  60.019  1.00  0.00    -0.289 N 
HETATM   31  H   UNL     1       8.824  32.998  60.780  1.00  0.00     0.188 HD
HETATM   32  C   UNL     1       7.380  31.903  59.631  1.00  0.00     0.123 A 
ENDBRANCH  23  27
ENDBRANCH  18  21
ENDBRANCH   1  17
TORSDOF 6
ENDMDL
MODEL 10
REMARK VINA RESULT:      -8.8      2.331      8.421
REMARK  6 active torsions:
REMARK  status: ('A' for Active; 'I' for Inactive)
REMARK    1  A    between atoms: C_3  and  C_4 
REMARK    2  A    between atoms: C_4  and  N_5 
REMARK    3  A    between atoms: C_4  and  C_9 
REMARK       I    between atoms: N_5  and  C_6 
REMARK       I    between atoms: C_6  and  N_7 
REMARK    4  A    between atoms: C_9  and  C_10 
REMARK       I    between atoms: C_10  and  N_11 
REMARK    5  A    between atoms: N_11  and  C_12 
REMARK    6  A    between atoms: C_14  and  C_15 
ROOT
HETATM    1  C   UNL     1       8.337  24.780  56.043  1.00  0.00     0.133 C 
ENDROOT
BRANCH   1   2
HETATM    2  C   UNL     1       7.181  23.801  55.817  1.00  0.00     0.128 C 
BRANCH   2   3
HETATM    3  C   UNL     1       7.664  22.560  55.064  1.00  0.00    -0.029 A 
HETATM    4  C   UNL     1       8.154  21.423  55.754  1.00  0.00    -0.054 A 
HETATM    5  C   UNL     1       8.213  21.359  57.259  1.00  0.00     0.049 C 
HETATM    6  C   UNL     1       8.604  20.310  55.024  1.00  0.00     0.007 A 
HETATM    7  C   UNL     1       8.589  20.312  53.630  1.00  0.00     0.001 A 
HETATM    8  C   UNL     1       8.131  21.432  52.947  1.00  0.00     0.001 A 
HETATM    9  C   UNL     1       7.681  22.546  53.656  1.00  0.00     0.010 A 
ENDBRANCH   2   3
BRANCH   2  10
HETATM   10  N   UNL     1       5.970  24.369  55.215  1.00  0.00    -0.334 N 
HETATM   11  C   UNL     1       5.911  25.276  54.207  1.00  0.00     0.314 C 
HETATM   12  N   UNL     1       4.635  25.575  53.854  1.00  0.00    -0.352 N 
HETATM   13  O   UNL     1       6.861  25.804  53.649  1.00  0.00    -0.248 OA
HETATM   14  H   UNL     1       3.950  24.834  53.898  1.00  0.00     0.160 HD
HETATM   15  H   UNL     1       4.567  26.171  53.040  1.00  0.00     0.160 HD
HETATM   16  H   UNL     1       5.100  24.147  55.674  1.00  0.00     0.165 HD
ENDBRANCH   2  10
ENDBRANCH   1   2
BRANCH   1  17
HETATM   17  C   UNL     1       7.928  25.858  57.027  1.00  0.00     0.224 C 
HETATM   18  N   UNL     1       7.653  27.068  56.419  1.00  0.00    -0.327 N 
HETATM   19  H   UNL     1       7.662  27.074  55.404  1.00  0.00     0.169 HD
HETATM   20  O   UNL     1       7.920  25.627  58.232  1.00  0.00    -0.273 OA
BRANCH  18  21
HETATM   21  C   UNL     1       7.308  28.286  57.041  1.00  0.00     0.035 A 
HETATM   22  C   UNL     1       8.100  28.927  57.999  1.00  0.00     0.042 A 
HETATM   23  C   UNL     1       7.700  30.143  58.582  1.00  0.00    -0.021 A 
HETATM   24  C   UNL     1       6.491  30.719  58.169  1.00  0.00     0.012 A 
HETATM   25  C   UNL     1       5.693  30.088  57.216  1.00  0.00     0.003 A 
HETATM   26  C   UNL     1       6.095  28.872  56.662  1.00  0.00     0.029 A 
BRANCH  23  27
HETATM   27  C   UNL     1       8.535  30.776  59.596  1.00  0.00     0.010 A 
HETATM   28  C   UNL     1       8.720  30.470  60.967  1.00  0.00     0.152 A 
HETATM   29  N   UNL     1       9.565  31.305  61.579  1.00  0.00    -0.187 NA
HETATM   30  N   UNL     1       9.920  32.156  60.606  1.00  0.00    -0.289 N 
HETATM   31  H   UNL     1      10.566  32.904  60.834  1.00  0.00     0.188 HD
HETATM   32  C   UNL     1       9.333  31.885  59.403  1.00  0.00     0.123 A 
ENDBRANCH  23  27
ENDBRANCH  18  21
ENDBRANCH   1  17
TORSDOF 6
ENDMDL
