MODEL 1
REMARK VINA RESULT:      -8.5      0.000      0.000
REMARK  11 active torsions:
REMARK  status: ('A' for Active; 'I' for Inactive)
REMARK    1  A    between atoms: C_2  and  C_3 
REMARK    2  A    between atoms: C_3  and  N_4 
REMARK    3  A    between atoms: N_4  and  C_6 
REMARK    4  A    between atoms: N_4  and  C_30 
REMARK    5  A    between atoms: C_6  and  C_7 
REMARK    6  A    between atoms: N_8  and  C_9 
REMARK    7  A    between atoms: C_13  and  N_14 
REMARK    8  A    between atoms: C_17  and  C_18 
REMARK       I    between atoms: C_18  and  N_19 
REMARK    9  A    between atoms: N_19  and  N_20 
REMARK   10  A    between atoms: C_21  and  C_22 
REMARK   11  A    between atoms: C_30  and  C_31 
ROOT
HETATM    1  C   UNL     1       5.178  32.039  59.421  1.00  0.00     0.096 A 
HETATM    2  N   UNL     1       4.073  32.700  59.961  1.00  0.00    -0.215 N 
HETATM    3  N   UNL     1       2.944  32.141  59.443  1.00  0.00     0.012 NA
HETATM    4  N   UNL     1       3.273  31.235  58.539  1.00  0.00    -0.152 NA
HETATM    5  C   UNL     1       4.631  31.164  58.493  1.00  0.00     0.170 A 
ENDROOT
BRANCH   5   6
HETATM    6  C   UNL     1       5.369  30.280  57.603  1.00  0.00     0.293 C 
HETATM    7  N   UNL     1       5.074  28.942  57.764  1.00  0.00    -0.242 N 
HETATM    8  H   UNL     1       4.383  28.649  58.451  1.00  0.00     0.192 HD
HETATM    9  O   UNL     1       6.168  30.759  56.801  1.00  0.00    -0.264 OA
BRANCH   7  10
HETATM   10  N   UNL     1       5.809  28.009  57.096  1.00  0.00    -0.184 NA
HETATM   11  C   UNL     1       5.131  27.084  56.494  1.00  0.00     0.150 C 
BRANCH  11  12
HETATM   12  C   UNL     1       5.797  25.979  55.775  1.00  0.00    -0.017 A 
HETATM   13  C   UNL     1       6.730  25.162  56.424  1.00  0.00     0.014 A 
HETATM   14  C   UNL     1       7.330  24.107  55.734  1.00  0.00     0.020 A 
HETATM   15  C   UNL     1       6.995  23.874  54.400  1.00  0.00     0.011 A 
HETATM   16 BR   UNL     1       7.802  22.441  53.469  1.00  0.00    -0.051 Br
HETATM   17  C   UNL     1       6.067  24.687  53.748  1.00  0.00     0.020 A 
HETATM   18  C   UNL     1       5.464  25.743  54.437  1.00  0.00     0.014 A 
ENDBRANCH  11  12
ENDBRANCH   7  10
ENDBRANCH   5   6
BRANCH   1  19
HETATM   19  C   UNL     1       6.594  32.193  59.849  1.00  0.00     0.296 C 
BRANCH  19  20
HETATM   20  N   UNL     1       7.101  31.154  60.840  1.00  0.00    -0.066 N 
HETATM   21  H   UNL     1       6.518  30.309  60.667  1.00  0.00     0.280 HD
BRANCH  20  22
HETATM   22  C   UNL     1       6.887  31.586  62.282  1.00  0.00     0.235 C 
BRANCH  22  23
HETATM   23  C   UNL     1       8.088  32.276  62.927  1.00  0.00     0.023 C 
HETATM   24  C   UNL     1       7.749  33.089  64.165  1.00  0.00     0.007 C 
ENDBRANCH  22  23
ENDBRANCH  20  22
BRANCH  20  25
HETATM   25  C   UNL     1       8.554  30.788  60.580  1.00  0.00     0.235 C 
BRANCH  25  26
HETATM   26  C   UNL     1       8.843  30.388  59.133  1.00  0.00     0.023 C 
HETATM   27  C   UNL     1       9.893  31.245  58.446  1.00  0.00     0.007 C 
ENDBRANCH  25  26
ENDBRANCH  20  25
ENDBRANCH  19  20
ENDBRANCH   1  19
BRANCH   2  28
HETATM   28  C   UNL     1       4.018  33.799  60.851  1.00  0.00     0.225 A 
HETATM   29  N   UNL     1       4.529  34.979  60.496  1.00  0.00    -0.081 NA
HETATM   30  O   UNL     1       4.268  35.801  61.596  1.00  0.00    -0.103 OA
HETATM   31  N   UNL     1       3.587  35.110  62.588  1.00  0.00    -0.083 NA
HETATM   32  C   UNL     1       3.429  33.871  62.126  1.00  0.00     0.201 A 
BRANCH  32  33
HETATM   33  N   UNL     1       2.812  32.885  62.795  1.00  0.00    -0.379 N 
HETATM   34  H   UNL     1       2.256  33.097  63.620  1.00  0.00     0.158 HD
HETATM   35  H   UNL     1       2.683  31.945  62.426  1.00  0.00     0.158 HD
ENDBRANCH  32  33
ENDBRANCH   2  28
TORSDOF 11
ENDMDL
MODEL 2
REMARK VINA RESULT:      -8.3      2.340      4.360
REMARK  11 active torsions:
REMARK  status: ('A' for Active; 'I' for Inactive)
REMARK    1  A    between atoms: C_2  and  C_3 
REMARK    2  A    between atoms: C_3  and  N_4 
REMARK    3  A    between atoms: N_4  and  C_6 
REMARK    4  A    between atoms: N_4  and  C_30 
REMARK    5  A    between atoms: C_6  and  C_7 
REMARK    6  A    between atoms: N_8  and  C_9 
REMARK    7  A    between atoms: C_13  and  N_14 
REMARK    8  A    between atoms: C_17  and  C_18 
REMARK       I    between atoms: C_18  and  N_19 
REMARK    9  A    between atoms: N_19  and  N_20 
REMARK   10  A    between atoms: C_21  and  C_22 
REMARK   11  A    between atoms: C_30  and  C_31 
ROOT
HETATM    1  C   UNL     1       6.826  32.077  61.284  1.00  0.00     0.096 A 
HETATM    2  N   UNL     1       7.031  32.164  62.662  1.00  0.00    -0.215 N 
HETATM    3  N   UNL     1       8.234  31.594  62.953  1.00  0.00     0.012 NA
HETATM    4  N   UNL     1       8.754  31.071  61.856  1.00  0.00    -0.152 NA
HETATM    5  C   UNL     1       7.907  31.336  60.825  1.00  0.00     0.170 A 
ENDROOT
BRANCH   5   6
HETATM    6  C   UNL     1       8.137  30.905  59.453  1.00  0.00     0.293 C 
HETATM    7  N   UNL     1       7.606  29.668  59.154  1.00  0.00    -0.242 N 
HETATM    8  H   UNL     1       7.094  29.145  59.861  1.00  0.00     0.192 HD
HETATM    9  O   UNL     1       8.758  31.638  58.686  1.00  0.00    -0.264 OA
BRANCH   7  10
HETATM   10  N   UNL     1       7.886  29.092  57.951  1.00  0.00    -0.184 NA
HETATM   11  C   UNL     1       7.047  28.190  57.549  1.00  0.00     0.150 C 
BRANCH  11  12
HETATM   12  C   UNL     1       7.252  27.447  56.290  1.00  0.00    -0.017 A 
HETATM   13  C   UNL     1       7.294  26.048  56.283  1.00  0.00     0.014 A 
HETATM   14  C   UNL     1       7.464  25.363  55.078  1.00  0.00     0.020 A 
HETATM   15  C   UNL     1       7.593  26.079  53.888  1.00  0.00     0.011 A 
HETATM   16 BR   UNL     1       7.817  25.151  52.257  1.00  0.00    -0.051 Br
HETATM   17  C   UNL     1       7.557  27.474  53.891  1.00  0.00     0.020 A 
HETATM   18  C   UNL     1       7.385  28.161  55.095  1.00  0.00     0.014 A 
ENDBRANCH  11  12
ENDBRANCH   7  10
ENDBRANCH   5   6
BRANCH   1  19
HETATM   19  C   UNL     1       5.741  32.736  60.510  1.00  0.00     0.296 C 
BRANCH  19  20
HETATM   20  N   UNL     1       4.605  31.826  60.060  1.00  0.00    -0.066 N 
HETATM   21  H   UNL     1       4.797  30.909  60.515  1.00  0.00     0.280 HD
BRANCH  20  22
HETATM   22  C   UNL     1       4.606  31.612  58.555  1.00  0.00     0.235 C 
BRANCH  22  23
HETATM   23  C   UNL     1       5.373  32.666  57.760  1.00  0.00     0.023 C 
HETATM   24  C   UNL     1       4.497  33.558  56.897  1.00  0.00     0.007 C 
ENDBRANCH  22  23
ENDBRANCH  20  22
BRANCH  20  25
HETATM   25  C   UNL     1       3.255  32.325  60.549  1.00  0.00     0.235 C 
BRANCH  25  26
HETATM   26  C   UNL     1       3.224  33.820  60.866  1.00  0.00     0.023 C 
HETATM   27  C   UNL     1       2.356  34.641  59.926  1.00  0.00     0.007 C 
ENDBRANCH  25  26
ENDBRANCH  20  25
ENDBRANCH  19  20
ENDBRANCH   1  19
BRANCH   2  28
HETATM   28  C   UNL     1       6.188  32.679  63.675  1.00  0.00     0.225 A 
HETATM   29  N   UNL     1       4.922  32.271  63.768  1.00  0.00    -0.081 NA
HETATM   30  O   UNL     1       4.428  32.964  64.877  1.00  0.00    -0.103 OA
HETATM   31  N   UNL     1       5.409  33.762  65.447  1.00  0.00    -0.083 NA
HETATM   32  C   UNL     1       6.500  33.584  64.705  1.00  0.00     0.201 A 
BRANCH  32  33
HETATM   33  N   UNL     1       7.678  34.187  64.930  1.00  0.00    -0.379 N 
HETATM   34  H   UNL     1       7.738  34.963  65.585  1.00  0.00     0.158 HD
HETATM   35  H   UNL     1       8.576  33.798  64.649  1.00  0.00     0.158 HD
ENDBRANCH  32  33
ENDBRANCH   2  28
TORSDOF 11
ENDMDL
MODEL 3
REMARK VINA RESULT:      -8.3      0.765      1.170
REMARK  11 active torsions:
REMARK  status: ('A' for Active; 'I' for Inactive)
REMARK    1  A    between atoms: C_2  and  C_3 
REMARK    2  A    between atoms: C_3  and  N_4 
REMARK    3  A    between atoms: N_4  and  C_6 
REMARK    4  A    between atoms: N_4  and  C_30 
REMARK    5  A    between atoms: C_6  and  C_7 
REMARK    6  A    between atoms: N_8  and  C_9 
REMARK    7  A    between atoms: C_13  and  N_14 
REMARK    8  A    between atoms: C_17  and  C_18 
REMARK       I    between atoms: C_18  and  N_19 
REMARK    9  A    between atoms: N_19  and  N_20 
REMARK   10  A    between atoms: C_21  and  C_22 
REMARK   11  A    between atoms: C_30  and  C_31 
ROOT
HETATM    1  C   UNL     1       5.193  31.734  58.987  1.00  0.00     0.096 A 
HETATM    2  N   UNL     1       4.261  32.321  59.844  1.00  0.00    -0.215 N 
HETATM    3  N   UNL     1       3.046  31.748  59.615  1.00  0.00     0.012 NA
HETATM    4  N   UNL     1       3.139  30.905  58.601  1.00  0.00    -0.152 NA
HETATM    5  C   UNL     1       4.435  30.889  58.187  1.00  0.00     0.170 A 
ENDROOT
BRANCH   5   6
HETATM    6  C   UNL     1       4.925  30.083  57.079  1.00  0.00     0.293 C 
HETATM    7  N   UNL     1       4.619  28.742  57.177  1.00  0.00    -0.242 N 
HETATM    8  H   UNL     1       4.083  28.395  57.970  1.00  0.00     0.192 HD
HETATM    9  O   UNL     1       5.549  30.624  56.167  1.00  0.00    -0.264 OA
BRANCH   7  10
HETATM   10  N   UNL     1       5.152  27.866  56.280  1.00  0.00    -0.184 NA
HETATM   11  C   UNL     1       5.234  26.634  56.677  1.00  0.00     0.150 C 
BRANCH  11  12
HETATM   12  C   UNL     1       5.839  25.587  55.830  1.00  0.00    -0.017 A 
HETATM   13  C   UNL     1       5.591  25.546  54.453  1.00  0.00     0.014 A 
HETATM   14  C   UNL     1       6.193  24.562  53.666  1.00  0.00     0.020 A 
HETATM   15  C   UNL     1       7.037  23.625  54.258  1.00  0.00     0.011 A 
HETATM   16 BR   UNL     1       7.857  22.297  53.191  1.00  0.00    -0.051 Br
HETATM   17  C   UNL     1       7.284  23.658  55.631  1.00  0.00     0.020 A 
HETATM   18  C   UNL     1       6.685  24.643  56.421  1.00  0.00     0.014 A 
ENDBRANCH  11  12
ENDBRANCH   7  10
ENDBRANCH   5   6
BRANCH   1  19
HETATM   19  C   UNL     1       6.668  31.919  59.028  1.00  0.00     0.296 C 
BRANCH  19  20
HETATM   20  N   UNL     1       7.393  31.203  60.160  1.00  0.00    -0.066 N 
HETATM   21  H   UNL     1       6.654  30.657  60.650  1.00  0.00     0.280 HD
BRANCH  20  22
HETATM   22  C   UNL     1       7.997  32.178  61.159  1.00  0.00     0.235 C 
BRANCH  22  23
HETATM   23  C   UNL     1       8.046  31.669  62.598  1.00  0.00     0.023 C 
HETATM   24  C   UNL     1       7.953  32.761  63.650  1.00  0.00     0.007 C 
ENDBRANCH  22  23
ENDBRANCH  20  22
BRANCH  20  25
HETATM   25  C   UNL     1       8.435  30.229  59.636  1.00  0.00     0.235 C 
BRANCH  25  26
HETATM   26  C   UNL     1       8.959  30.573  58.242  1.00  0.00     0.023 C 
HETATM   27  C   UNL     1      10.268  31.346  58.239  1.00  0.00     0.007 C 
ENDBRANCH  25  26
ENDBRANCH  20  25
ENDBRANCH  19  20
ENDBRANCH   1  19
BRANCH   2  28
HETATM   28  C   UNL     1       4.423  33.368  60.783  1.00  0.00     0.225 A 
HETATM   29  N   UNL     1       4.499  34.634  60.372  1.00  0.00    -0.081 NA
HETATM   30  O   UNL     1       4.627  35.363  61.558  1.00  0.00    -0.103 OA
HETATM   31  N   UNL     1       4.606  34.527  62.665  1.00  0.00    -0.083 NA
HETATM   32  C   UNL     1       4.476  33.292  62.186  1.00  0.00     0.201 A 
BRANCH  32  33
HETATM   33  N   UNL     1       4.416  32.187  62.945  1.00  0.00    -0.379 N 
HETATM   34  H   UNL     1       5.197  31.535  62.962  1.00  0.00     0.158 HD
HETATM   35  H   UNL     1       3.725  32.040  63.678  1.00  0.00     0.158 HD
ENDBRANCH  32  33
ENDBRANCH   2  28
TORSDOF 11
ENDMDL
MODEL 4
REMARK VINA RESULT:      -8.2      2.160      4.668
REMARK  11 active torsions:
REMARK  status: ('A' for Active; 'I' for Inactive)
REMARK    1  A    between atoms: C_2  and  C_3 
REMARK    2  A    between atoms: C_3  and  N_4 
REMARK    3  A    between atoms: N_4  and  C_6 
REMARK    4  A    between atoms: N_4  and  C_30 
REMARK    5  A    between atoms: C_6  and  C_7 
REMARK    6  A    between atoms: N_8  and  C_9 
REMARK    7  A    between atoms: C_13  and  N_14 
REMARK    8  A    between atoms: C_17  and  C_18 
REMARK       I    between atoms: C_18  and  N_19 
REMARK    9  A    between atoms: N_19  and  N_20 
REMARK   10  A    between atoms: C_21  and  C_22 
REMARK   11  A    between atoms: C_30  and  C_31 
ROOT
HETATM    1  C   UNL     1       6.836  30.422  58.109  1.00  0.00     0.096 A 
HETATM    2  N   UNL     1       6.887  31.320  59.176  1.00  0.00    -0.215 N 
HETATM    3  N   UNL     1       8.031  31.087  59.879  1.00  0.00     0.012 NA
HETATM    4  N   UNL     1       8.654  30.036  59.375  1.00  0.00    -0.152 NA
HETATM    5  C   UNL     1       7.938  29.599  58.304  1.00  0.00     0.170 A 
ENDROOT
BRANCH   5   6
HETATM    6  C   UNL     1       8.307  28.447  57.495  1.00  0.00     0.293 C 
HETATM    7  N   UNL     1       7.536  27.326  57.723  1.00  0.00    -0.242 N 
HETATM    8  H   UNL     1       6.777  27.356  58.400  1.00  0.00     0.192 HD
HETATM    9  O   UNL     1       9.238  28.542  56.697  1.00  0.00    -0.264 OA
BRANCH   7  10
HETATM   10  N   UNL     1       7.882  26.145  57.139  1.00  0.00    -0.184 NA
HETATM   11  C   UNL     1       7.267  25.862  56.033  1.00  0.00     0.150 C 
BRANCH  11  12
HETATM   12  C   UNL     1       7.503  24.592  55.319  1.00  0.00    -0.017 A 
HETATM   13  C   UNL     1       7.459  23.369  55.998  1.00  0.00     0.014 A 
HETATM   14  C   UNL     1       7.660  22.177  55.298  1.00  0.00     0.020 A 
HETATM   15  C   UNL     1       7.906  22.214  53.926  1.00  0.00     0.011 A 
HETATM   16 BR   UNL     1       8.171  20.600  52.979  1.00  0.00    -0.051 Br
HETATM   17  C   UNL     1       7.955  23.431  53.246  1.00  0.00     0.020 A 
HETATM   18  C   UNL     1       7.752  24.625  53.943  1.00  0.00     0.014 A 
ENDBRANCH  11  12
ENDBRANCH   7  10
ENDBRANCH   5   6
BRANCH   1  19
HETATM   19  C   UNL     1       5.866  30.443  56.982  1.00  0.00     0.296 C 
BRANCH  19  20
HETATM   20  N   UNL     1       4.595  29.631  57.191  1.00  0.00    -0.066 N 
HETATM   21  H   UNL     1       4.700  29.202  58.133  1.00  0.00     0.280 HD
BRANCH  20  22
HETATM   22  C   UNL     1       4.460  28.509  56.174  1.00  0.00     0.235 C 
BRANCH  22  23
HETATM   23  C   UNL     1       5.242  28.721  54.880  1.00  0.00     0.023 C 
HETATM   24  C   UNL     1       4.901  27.735  53.776  1.00  0.00     0.007 C 
ENDBRANCH  22  23
ENDBRANCH  20  22
BRANCH  20  25
HETATM   25  C   UNL     1       3.358  30.516  57.208  1.00  0.00     0.235 C 
BRANCH  25  26
HETATM   26  C   UNL     1       3.449  31.728  56.280  1.00  0.00     0.023 C 
HETATM   27  C   UNL     1       2.690  31.572  54.973  1.00  0.00     0.007 C 
ENDBRANCH  25  26
ENDBRANCH  20  25
ENDBRANCH  19  20
ENDBRANCH   1  19
BRANCH   2  28
HETATM   28  C   UNL     1       5.951  32.301  59.583  1.00  0.00     0.225 A 
HETATM   29  N   UNL     1       5.519  33.218  58.716  1.00  0.00    -0.081 NA
HETATM   30  O   UNL     1       4.608  33.975  59.458  1.00  0.00    -0.103 OA
HETATM   31  N   UNL     1       4.491  33.491  60.753  1.00  0.00    -0.083 NA
HETATM   32  C   UNL     1       5.320  32.452  60.830  1.00  0.00     0.201 A 
BRANCH  32  33
HETATM   33  N   UNL     1       5.499  31.704  61.930  1.00  0.00    -0.379 N 
HETATM   34  H   UNL     1       5.452  32.131  62.852  1.00  0.00     0.158 HD
HETATM   35  H   UNL     1       5.478  30.686  61.932  1.00  0.00     0.158 HD
ENDBRANCH  32  33
ENDBRANCH   2  28
TORSDOF 11
ENDMDL
MODEL 5
REMARK VINA RESULT:      -8.0      3.397      5.403
REMARK  11 active torsions:
REMARK  status: ('A' for Active; 'I' for Inactive)
REMARK    1  A    between atoms: C_2  and  C_3 
REMARK    2  A    between atoms: C_3  and  N_4 
REMARK    3  A    between atoms: N_4  and  C_6 
REMARK    4  A    between atoms: N_4  and  C_30 
REMARK    5  A    between atoms: C_6  and  C_7 
REMARK    6  A    between atoms: N_8  and  C_9 
REMARK    7  A    between atoms: C_13  and  N_14 
REMARK    8  A    between atoms: C_17  and  C_18 
REMARK       I    between atoms: C_18  and  N_19 
REMARK    9  A    between atoms: N_19  and  N_20 
REMARK   10  A    between atoms: C_21  and  C_22 
REMARK   11  A    between atoms: C_30  and  C_31 
ROOT
HETATM    1  C   UNL     1       6.777  30.137  57.820  1.00  0.00     0.096 A 
HETATM    2  N   UNL     1       7.075  31.343  58.456  1.00  0.00    -0.215 N 
HETATM    3  N   UNL     1       6.191  32.286  58.024  1.00  0.00     0.012 NA
HETATM    4  N   UNL     1       5.417  31.769  57.085  1.00  0.00    -0.152 NA
HETATM    5  C   UNL     1       5.764  30.463  56.928  1.00  0.00     0.170 A 
ENDROOT
BRANCH   5   6
HETATM    6  C   UNL     1       5.137  29.565  55.970  1.00  0.00     0.293 C 
HETATM    7  N   UNL     1       5.513  29.784  54.661  1.00  0.00    -0.242 N 
HETATM    8  H   UNL     1       6.185  30.514  54.436  1.00  0.00     0.192 HD
HETATM    9  O   UNL     1       4.351  28.708  56.369  1.00  0.00    -0.264 OA
BRANCH   7  10
HETATM   10  N   UNL     1       4.880  29.109  53.660  1.00  0.00    -0.184 NA
HETATM   11  C   UNL     1       5.629  28.739  52.670  1.00  0.00     0.150 C 
BRANCH  11  12
HETATM   12  C   UNL     1       5.069  28.046  51.492  1.00  0.00    -0.017 A 
HETATM   13  C   UNL     1       4.271  28.732  50.570  1.00  0.00     0.014 A 
HETATM   14  C   UNL     1       3.772  28.064  49.449  1.00  0.00     0.020 A 
HETATM   15  C   UNL     1       4.071  26.716  49.258  1.00  0.00     0.011 A 
HETATM   16 BR   UNL     1       3.401  25.814  47.738  1.00  0.00    -0.051 Br
HETATM   17  C   UNL     1       4.863  26.027  50.177  1.00  0.00     0.020 A 
HETATM   18  C   UNL     1       5.366  26.693  51.298  1.00  0.00     0.014 A 
ENDBRANCH  11  12
ENDBRANCH   7  10
ENDBRANCH   5   6
BRANCH   1  19
HETATM   19  C   UNL     1       7.362  28.806  58.134  1.00  0.00     0.296 C 
BRANCH  19  20
HETATM   20  N   UNL     1       8.481  28.343  57.210  1.00  0.00    -0.066 N 
HETATM   21  H   UNL     1       9.329  28.300  57.813  1.00  0.00     0.280 HD
BRANCH  20  22
HETATM   22  C   UNL     1       8.749  29.338  56.092  1.00  0.00     0.235 C 
BRANCH  22  23
HETATM   23  C   UNL     1      10.220  29.701  55.899  1.00  0.00     0.023 C 
HETATM   24  C   UNL     1      11.034  29.708  57.182  1.00  0.00     0.007 C 
ENDBRANCH  22  23
ENDBRANCH  20  22
BRANCH  20  25
HETATM   25  C   UNL     1       8.218  26.950  56.661  1.00  0.00     0.235 C 
BRANCH  25  26
HETATM   26  C   UNL     1       7.559  26.941  55.281  1.00  0.00     0.023 C 
HETATM   27  C   UNL     1       7.109  25.566  54.813  1.00  0.00     0.007 C 
ENDBRANCH  25  26
ENDBRANCH  20  25
ENDBRANCH  19  20
ENDBRANCH   1  19
BRANCH   2  28
HETATM   28  C   UNL     1       8.116  31.660  59.361  1.00  0.00     0.225 A 
HETATM   29  N   UNL     1       9.251  32.201  58.918  1.00  0.00    -0.081 NA
HETATM   30  O   UNL     1      10.006  32.391  60.079  1.00  0.00    -0.103 OA
HETATM   31  N   UNL     1       9.307  31.981  61.205  1.00  0.00    -0.083 NA
HETATM   32  C   UNL     1       8.135  31.531  60.762  1.00  0.00     0.201 A 
BRANCH  32  33
HETATM   33  N   UNL     1       7.164  31.040  61.547  1.00  0.00    -0.379 N 
HETATM   34  H   UNL     1       7.044  31.394  62.493  1.00  0.00     0.158 HD
HETATM   35  H   UNL     1       6.390  30.474  61.205  1.00  0.00     0.158 HD
ENDBRANCH  32  33
ENDBRANCH   2  28
TORSDOF 11
ENDMDL
MODEL 6
REMARK VINA RESULT:      -7.9      2.644      4.799
REMARK  11 active torsions:
REMARK  status: ('A' for Active; 'I' for Inactive)
REMARK    1  A    between atoms: C_2  and  C_3 
REMARK    2  A    between atoms: C_3  and  N_4 
REMARK    3  A    between atoms: N_4  and  C_6 
REMARK    4  A    between atoms: N_4  and  C_30 
REMARK    5  A    between atoms: C_6  and  C_7 
REMARK    6  A    between atoms: N_8  and  C_9 
REMARK    7  A    between atoms: C_13  and  N_14 
REMARK    8  A    between atoms: C_17  and  C_18 
REMARK       I    between atoms: C_18  and  N_19 
REMARK    9  A    between atoms: N_19  and  N_20 
REMARK   10  A    between atoms: C_21  and  C_22 
REMARK   11  A    between atoms: C_30  and  C_31 
ROOT
HETATM    1  C   UNL     1       5.678  30.390  57.360  1.00  0.00     0.096 A 
HETATM    2  N   UNL     1       5.728  31.330  58.392  1.00  0.00    -0.215 N 
HETATM    3  N   UNL     1       6.979  31.309  58.932  1.00  0.00     0.012 NA
HETATM    4  N   UNL     1       7.689  30.348  58.366  1.00  0.00    -0.152 NA
HETATM    5  C   UNL     1       6.914  29.759  57.415  1.00  0.00     0.170 A 
ENDROOT
BRANCH   5   6
HETATM    6  C   UNL     1       7.351  28.646  56.585  1.00  0.00     0.293 C 
HETATM    7  N   UNL     1       7.080  27.404  57.119  1.00  0.00    -0.242 N 
HETATM    8  H   UNL     1       6.601  27.323  58.013  1.00  0.00     0.192 HD
HETATM    9  O   UNL     1       7.906  28.874  55.512  1.00  0.00    -0.264 OA
BRANCH   7  10
HETATM   10  N   UNL     1       7.575  26.290  56.509  1.00  0.00    -0.184 NA
HETATM   11  C   UNL     1       6.770  25.693  55.687  1.00  0.00     0.150 C 
BRANCH  11  12
HETATM   12  C   UNL     1       7.154  24.447  54.995  1.00  0.00    -0.017 A 
HETATM   13  C   UNL     1       7.353  24.428  53.610  1.00  0.00     0.014 A 
HETATM   14  C   UNL     1       7.740  23.244  52.978  1.00  0.00     0.020 A 
HETATM   15  C   UNL     1       7.925  22.087  53.733  1.00  0.00     0.011 A 
HETATM   16 BR   UNL     1       8.456  20.487  52.878  1.00  0.00    -0.051 Br
HETATM   17  C   UNL     1       7.724  22.099  55.114  1.00  0.00     0.020 A 
HETATM   18  C   UNL     1       7.338  23.283  55.749  1.00  0.00     0.014 A 
ENDBRANCH  11  12
ENDBRANCH   7  10
ENDBRANCH   5   6
BRANCH   1  19
HETATM   19  C   UNL     1       4.574  30.213  56.381  1.00  0.00     0.296 C 
BRANCH  19  20
HETATM   20  N   UNL     1       4.857  30.709  54.969  1.00  0.00    -0.066 N 
HETATM   21  H   UNL     1       5.895  30.752  54.901  1.00  0.00     0.280 HD
BRANCH  20  22
HETATM   22  C   UNL     1       4.313  32.110  54.735  1.00  0.00     0.235 C 
BRANCH  22  23
HETATM   23  C   UNL     1       3.121  32.487  55.612  1.00  0.00     0.023 C 
HETATM   24  C   UNL     1       1.813  32.640  54.855  1.00  0.00     0.007 C 
ENDBRANCH  22  23
ENDBRANCH  20  22
BRANCH  20  25
HETATM   25  C   UNL     1       4.352  29.735  53.917  1.00  0.00     0.235 C 
BRANCH  25  26
HETATM   26  C   UNL     1       4.373  28.274  54.364  1.00  0.00     0.023 C 
HETATM   27  C   UNL     1       4.481  27.273  53.224  1.00  0.00     0.007 C 
ENDBRANCH  25  26
ENDBRANCH  20  25
ENDBRANCH  19  20
ENDBRANCH   1  19
BRANCH   2  28
HETATM   28  C   UNL     1       4.710  32.168  58.906  1.00  0.00     0.225 A 
HETATM   29  N   UNL     1       4.795  33.492  58.767  1.00  0.00    -0.081 NA
HETATM   30  O   UNL     1       3.622  33.965  59.363  1.00  0.00    -0.103 OA
HETATM   31  N   UNL     1       2.841  32.920  59.833  1.00  0.00    -0.083 NA
HETATM   32  C   UNL     1       3.512  31.806  59.548  1.00  0.00     0.201 A 
BRANCH  32  33
HETATM   33  N   UNL     1       3.088  30.568  59.843  1.00  0.00    -0.379 N 
HETATM   34  H   UNL     1       3.186  29.818  59.163  1.00  0.00     0.158 HD
HETATM   35  H   UNL     1       2.855  30.258  60.785  1.00  0.00     0.158 HD
ENDBRANCH  32  33
ENDBRANCH   2  28
TORSDOF 11
ENDMDL
MODEL 7
REMARK VINA RESULT:      -7.9      2.437      3.106
REMARK  11 active torsions:
REMARK  status: ('A' for Active; 'I' for Inactive)
REMARK    1  A    between atoms: C_2  and  C_3 
REMARK    2  A    between atoms: C_3  and  N_4 
REMARK    3  A    between atoms: N_4  and  C_6 
REMARK    4  A    between atoms: N_4  and  C_30 
REMARK    5  A    between atoms: C_6  and  C_7 
REMARK    6  A    between atoms: N_8  and  C_9 
REMARK    7  A    between atoms: C_13  and  N_14 
REMARK    8  A    between atoms: C_17  and  C_18 
REMARK       I    between atoms: C_18  and  N_19 
REMARK    9  A    between atoms: N_19  and  N_20 
REMARK   10  A    between atoms: C_21  and  C_22 
REMARK   11  A    between atoms: C_30  and  C_31 
ROOT
HETATM    1  C   UNL     1       5.258  30.770  56.944  1.00  0.00     0.096 A 
HETATM    2  N   UNL     1       4.341  31.821  56.999  1.00  0.00    -0.215 N 
HETATM    3  N   UNL     1       3.086  31.302  56.889  1.00  0.00     0.012 NA
HETATM    4  N   UNL     1       3.162  30.000  56.672  1.00  0.00    -0.152 NA
HETATM    5  C   UNL     1       4.477  29.651  56.683  1.00  0.00     0.170 A 
ENDROOT
BRANCH   5   6
HETATM    6  C   UNL     1       4.960  28.295  56.467  1.00  0.00     0.293 C 
HETATM    7  N   UNL     1       5.017  27.921  55.140  1.00  0.00    -0.242 N 
HETATM    8  H   UNL     1       4.747  28.577  54.411  1.00  0.00     0.192 HD
HETATM    9  O   UNL     1       5.273  27.603  57.434  1.00  0.00    -0.264 OA
BRANCH   7  10
HETATM   10  N   UNL     1       5.307  26.628  54.821  1.00  0.00    -0.184 NA
HETATM   11  C   UNL     1       6.568  26.336  54.749  1.00  0.00     0.150 C 
BRANCH  11  12
HETATM   12  C   UNL     1       7.028  24.987  54.362  1.00  0.00    -0.017 A 
HETATM   13  C   UNL     1       7.043  23.941  55.291  1.00  0.00     0.014 A 
HETATM   14  C   UNL     1       7.459  22.667  54.898  1.00  0.00     0.020 A 
HETATM   15  C   UNL     1       7.858  22.446  53.580  1.00  0.00     0.011 A 
HETATM   16 BR   UNL     1       8.414  20.720  53.047  1.00  0.00    -0.051 Br
HETATM   17  C   UNL     1       7.849  23.487  52.651  1.00  0.00     0.020 A 
HETATM   18  C   UNL     1       7.432  24.763  53.041  1.00  0.00     0.014 A 
ENDBRANCH  11  12
ENDBRANCH   7  10
ENDBRANCH   5   6
BRANCH   1  19
HETATM   19  C   UNL     1       6.717  30.857  57.215  1.00  0.00     0.296 C 
BRANCH  19  20
HETATM   20  N   UNL     1       7.221  30.030  58.391  1.00  0.00    -0.066 N 
HETATM   21  H   UNL     1       6.401  29.464  58.693  1.00  0.00     0.280 HD
BRANCH  20  22
HETATM   22  C   UNL     1       7.649  30.901  59.561  1.00  0.00     0.235 C 
BRANCH  22  23
HETATM   23  C   UNL     1       9.094  31.391  59.498  1.00  0.00     0.023 C 
HETATM   24  C   UNL     1       9.576  32.077  60.765  1.00  0.00     0.007 C 
ENDBRANCH  22  23
ENDBRANCH  20  22
BRANCH  20  25
HETATM   25  C   UNL     1       8.329  29.076  57.975  1.00  0.00     0.235 C 
BRANCH  25  26
HETATM   26  C   UNL     1       8.749  29.212  56.512  1.00  0.00     0.023 C 
HETATM   27  C   UNL     1      10.181  29.683  56.314  1.00  0.00     0.007 C 
ENDBRANCH  25  26
ENDBRANCH  20  25
ENDBRANCH  19  20
ENDBRANCH   1  19
BRANCH   2  28
HETATM   28  C   UNL     1       4.562  33.215  57.096  1.00  0.00     0.225 A 
HETATM   29  N   UNL     1       5.247  33.855  56.147  1.00  0.00    -0.081 NA
HETATM   30  O   UNL     1       5.235  35.188  56.567  1.00  0.00    -0.103 OA
HETATM   31  N   UNL     1       4.527  35.334  57.752  1.00  0.00    -0.083 NA
HETATM   32  C   UNL     1       4.107  34.113  58.078  1.00  0.00     0.201 A 
BRANCH  32  33
HETATM   33  N   UNL     1       3.381  33.827  59.170  1.00  0.00    -0.379 N 
HETATM   34  H   UNL     1       3.656  33.063  59.781  1.00  0.00     0.158 HD
HETATM   35  H   UNL     1       2.676  34.450  59.560  1.00  0.00     0.158 HD
ENDBRANCH  32  33
ENDBRANCH   2  28
TORSDOF 11
ENDMDL
MODEL 8
REMARK VINA RESULT:      -7.8      4.345      8.980
REMARK  11 active torsions:
REMARK  status: ('A' for Active; 'I' for Inactive)
REMARK    1  A    between atoms: C_2  and  C_3 
REMARK    2  A    between atoms: C_3  and  N_4 
REMARK    3  A    between atoms: N_4  and  C_6 
REMARK    4  A    between atoms: N_4  and  C_30 
REMARK    5  A    between atoms: C_6  and  C_7 
REMARK    6  A    between atoms: N_8  and  C_9 
REMARK    7  A    between atoms: C_13  and  N_14 
REMARK    8  A    between atoms: C_17  and  C_18 
REMARK       I    between atoms: C_18  and  N_19 
REMARK    9  A    between atoms: N_19  and  N_20 
REMARK   10  A    between atoms: C_21  and  C_22 
REMARK   11  A    between atoms: C_30  and  C_31 
ROOT
HETATM    1  C   UNL     1       6.582  29.694  57.655  1.00  0.00     0.096 A 
HETATM    2  N   UNL     1       7.116  28.659  56.885  1.00  0.00    -0.215 N 
HETATM    3  N   UNL     1       8.380  28.404  57.325  1.00  0.00     0.012 NA
HETATM    4  N   UNL     1       8.707  29.278  58.261  1.00  0.00    -0.152 NA
HETATM    5  C   UNL     1       7.635  30.089  58.471  1.00  0.00     0.170 A 
ENDROOT
BRANCH   5   6
HETATM    6  C   UNL     1       7.620  31.187  59.426  1.00  0.00     0.293 C 
HETATM    7  N   UNL     1       7.780  30.795  60.739  1.00  0.00    -0.242 N 
HETATM    8  H   UNL     1       7.907  29.812  60.968  1.00  0.00     0.192 HD
HETATM    9  O   UNL     1       7.475  32.339  59.020  1.00  0.00    -0.264 OA
BRANCH   7  10
HETATM   10  N   UNL     1       7.631  31.714  61.734  1.00  0.00    -0.184 NA
HETATM   11  C   UNL     1       6.614  31.535  62.518  1.00  0.00     0.150 C 
BRANCH  11  12
HETATM   12  C   UNL     1       6.300  32.481  63.607  1.00  0.00    -0.017 A 
HETATM   13  C   UNL     1       7.314  32.998  64.422  1.00  0.00     0.014 A 
HETATM   14  C   UNL     1       6.999  33.912  65.430  1.00  0.00     0.020 A 
HETATM   15  C   UNL     1       5.674  34.302  65.619  1.00  0.00     0.011 A 
HETATM   16 BR   UNL     1       5.249  35.543  66.980  1.00  0.00    -0.051 Br
HETATM   17  C   UNL     1       4.659  33.786  64.812  1.00  0.00     0.020 A 
HETATM   18  C   UNL     1       4.972  32.873  63.801  1.00  0.00     0.014 A 
ENDBRANCH  11  12
ENDBRANCH   7  10
ENDBRANCH   5   6
BRANCH   1  19
HETATM   19  C   UNL     1       5.171  30.163  57.647  1.00  0.00     0.296 C 
BRANCH  19  20
HETATM   20  N   UNL     1       4.947  31.570  57.109  1.00  0.00    -0.066 N 
HETATM   21  H   UNL     1       5.818  32.091  57.342  1.00  0.00     0.280 HD
BRANCH  20  22
HETATM   22  C   UNL     1       3.784  32.267  57.796  1.00  0.00     0.235 C 
BRANCH  22  23
HETATM   23  C   UNL     1       4.119  32.880  59.154  1.00  0.00     0.023 C 
HETATM   24  C   UNL     1       3.546  32.122  60.340  1.00  0.00     0.007 C 
ENDBRANCH  22  23
ENDBRANCH  20  22
BRANCH  20  25
HETATM   25  C   UNL     1       4.782  31.575  55.598  1.00  0.00     0.235 C 
BRANCH  25  26
HETATM   26  C   UNL     1       3.798  30.527  55.077  1.00  0.00     0.023 C 
HETATM   27  C   UNL     1       4.108  30.019  53.678  1.00  0.00     0.007 C 
ENDBRANCH  25  26
ENDBRANCH  20  25
ENDBRANCH  19  20
ENDBRANCH   1  19
BRANCH   2  28
HETATM   28  C   UNL     1       6.557  27.964  55.786  1.00  0.00     0.225 A 
HETATM   29  N   UNL     1       7.104  28.071  54.574  1.00  0.00    -0.081 NA
HETATM   30  O   UNL     1       6.311  27.242  53.776  1.00  0.00    -0.103 OA
HETATM   31  N   UNL     1       5.312  26.633  54.522  1.00  0.00    -0.083 NA
HETATM   32  C   UNL     1       5.466  27.078  55.767  1.00  0.00     0.201 A 
BRANCH  32  33
HETATM   33  N   UNL     1       4.688  26.721  56.801  1.00  0.00    -0.379 N 
HETATM   34  H   UNL     1       3.675  26.770  56.720  1.00  0.00     0.158 HD
HETATM   35  H   UNL     1       5.024  26.203  57.611  1.00  0.00     0.158 HD
ENDBRANCH  32  33
ENDBRANCH   2  28
TORSDOF 11
ENDMDL
MODEL 9
REMARK VINA RESULT:      -7.8      1.839      3.234
REMARK  11 active torsions:
REMARK  status: ('A' for Active; 'I' for Inactive)
REMARK    1  A    between atoms: C_2  and  C_3 
REMARK    2  A    between atoms: C_3  and  N_4 
REMARK    3  A    between atoms: N_4  and  C_6 
REMARK    4  A    between atoms: N_4  and  C_30 
REMARK    5  A    between atoms: C_6  and  C_7 
REMARK    6  A    between atoms: N_8  and  C_9 
REMARK    7  A    between atoms: C_13  and  N_14 
REMARK    8  A    between atoms: C_17  and  C_18 
REMARK       I    between atoms: C_18  and  N_19 
REMARK    9  A    between atoms: N_19  and  N_20 
REMARK   10  A    between atoms: C_21  and  C_22 
REMARK   11  A    between atoms: C_30  and  C_31 
ROOT
HETATM    1  C   UNL     1       5.462  30.374  57.505  1.00  0.00     0.096 A 
HETATM    2  N   UNL     1       4.462  31.344  57.601  1.00  0.00    -0.215 N 
HETATM    3  N   UNL     1       3.582  31.155  56.578  1.00  0.00     0.012 NA
HETATM    4  N   UNL     1       4.018  30.187  55.791  1.00  0.00    -0.152 NA
HETATM    5  C   UNL     1       5.174  29.703  56.324  1.00  0.00     0.170 A 
ENDROOT
BRANCH   5   6
HETATM    6  C   UNL     1       5.957  28.632  55.727  1.00  0.00     0.293 C 
HETATM    7  N   UNL     1       5.707  27.385  56.262  1.00  0.00    -0.242 N 
HETATM    8  H   UNL     1       5.015  27.273  56.999  1.00  0.00     0.192 HD
HETATM    9  O   UNL     1       6.753  28.893  54.827  1.00  0.00    -0.264 OA
BRANCH   7  10
HETATM   10  N   UNL     1       6.486  26.329  55.893  1.00  0.00    -0.184 NA
HETATM   11  C   UNL     1       5.957  25.511  55.038  1.00  0.00     0.150 C 
BRANCH  11  12
HETATM   12  C   UNL     1       6.666  24.296  54.588  1.00  0.00    -0.017 A 
HETATM   13  C   UNL     1       7.081  23.327  55.509  1.00  0.00     0.014 A 
HETATM   14  C   UNL     1       7.727  22.173  55.061  1.00  0.00     0.020 A 
HETATM   15  C   UNL     1       7.956  21.995  53.697  1.00  0.00     0.011 A 
HETATM   16 BR   UNL     1       8.825  20.429  53.090  1.00  0.00    -0.051 Br
HETATM   17  C   UNL     1       7.548  22.960  52.776  1.00  0.00     0.020 A 
HETATM   18  C   UNL     1       6.899  24.115  53.221  1.00  0.00     0.014 A 
ENDBRANCH  11  12
ENDBRANCH   7  10
ENDBRANCH   5   6
BRANCH   1  19
HETATM   19  C   UNL     1       6.515  30.089  58.515  1.00  0.00     0.296 C 
BRANCH  19  20
HETATM   20  N   UNL     1       7.786  30.921  58.397  1.00  0.00    -0.066 N 
HETATM   21  H   UNL     1       7.715  31.391  57.471  1.00  0.00     0.280 HD
BRANCH  20  22
HETATM   22  C   UNL     1       9.037  30.057  58.392  1.00  0.00     0.235 C 
BRANCH  22  23
HETATM   23  C   UNL     1       9.527  29.650  57.003  1.00  0.00     0.023 C 
HETATM   24  C   UNL     1      11.038  29.637  56.854  1.00  0.00     0.007 C 
ENDBRANCH  22  23
ENDBRANCH  20  22
BRANCH  20  25
HETATM   25  C   UNL     1       7.858  31.995  59.470  1.00  0.00     0.235 C 
BRANCH  25  26
HETATM   26  C   UNL     1       9.217  32.089  60.163  1.00  0.00     0.023 C 
HETATM   27  C   UNL     1       9.164  31.903  61.671  1.00  0.00     0.007 C 
ENDBRANCH  25  26
ENDBRANCH  20  25
ENDBRANCH  19  20
ENDBRANCH   1  19
BRANCH   2  28
HETATM   28  C   UNL     1       4.318  32.411  58.519  1.00  0.00     0.225 A 
HETATM   29  N   UNL     1       4.785  33.624  58.219  1.00  0.00    -0.081 NA
HETATM   30  O   UNL     1       4.441  34.399  59.330  1.00  0.00    -0.103 OA
HETATM   31  N   UNL     1       3.754  33.646  60.273  1.00  0.00    -0.083 NA
HETATM   32  C   UNL     1       3.675  32.416  59.769  1.00  0.00     0.201 A 
BRANCH  32  33
HETATM   33  N   UNL     1       3.079  31.382  60.383  1.00  0.00    -0.379 N 
HETATM   34  H   UNL     1       2.138  31.103  60.117  1.00  0.00     0.158 HD
HETATM   35  H   UNL     1       3.573  30.709  60.966  1.00  0.00     0.158 HD
ENDBRANCH  32  33
ENDBRANCH   2  28
TORSDOF 11
ENDMDL
MODEL 10
REMARK VINA RESULT:      -7.7      4.041      9.071
REMARK  11 active torsions:
REMARK  status: ('A' for Active; 'I' for Inactive)
REMARK    1  A    between atoms: C_2  and  C_3 
REMARK    2  A    between atoms: C_3  and  N_4 
REMARK    3  A    between atoms: N_4  and  C_6 
REMARK    4  A    between atoms: N_4  and  C_30 
REMARK    5  A    between atoms: C_6  and  C_7 
REMARK    6  A    between atoms: N_8  and  C_9 
REMARK    7  A    between atoms: C_13  and  N_14 
REMARK    8  A    between atoms: C_17  and  C_18 
REMARK       I    between atoms: C_18  and  N_19 
REMARK    9  A    between atoms: N_19  and  N_20 
REMARK   10  A    between atoms: C_21  and  C_22 
REMARK   11  A    between atoms: C_30  and  C_31 
ROOT
HETATM    1  C   UNL     1       5.969  27.816  55.796  1.00  0.00     0.096 A 
HETATM    2  N   UNL     1       6.047  27.488  54.441  1.00  0.00    -0.215 N 
HETATM    3  N   UNL     1       5.755  28.601  53.713  1.00  0.00     0.012 NA
HETATM    4  N   UNL     1       5.405  29.583  54.526  1.00  0.00    -0.152 NA
HETATM    5  C   UNL     1       5.510  29.126  55.803  1.00  0.00     0.170 A 
ENDROOT
BRANCH   5   6
HETATM    6  C   UNL     1       5.196  29.923  56.980  1.00  0.00     0.293 C 
HETATM    7  N   UNL     1       6.286  30.558  57.539  1.00  0.00    -0.242 N 
HETATM    8  H   UNL     1       7.208  30.458  57.120  1.00  0.00     0.192 HD
HETATM    9  O   UNL     1       4.035  29.978  57.380  1.00  0.00    -0.264 OA
BRANCH   7  10
HETATM   10  N   UNL     1       6.145  31.207  58.728  1.00  0.00    -0.184 NA
HETATM   11  C   UNL     1       7.222  31.317  59.441  1.00  0.00     0.150 C 
BRANCH  11  12
HETATM   12  C   UNL     1       7.207  31.950  60.775  1.00  0.00    -0.017 A 
HETATM   13  C   UNL     1       6.266  32.938  61.089  1.00  0.00     0.014 A 
HETATM   14  C   UNL     1       6.252  33.506  62.364  1.00  0.00     0.020 A 
HETATM   15  C   UNL     1       7.179  33.086  63.318  1.00  0.00     0.011 A 
HETATM   16 BR   UNL     1       7.156  33.851  65.046  1.00  0.00    -0.051 Br
HETATM   17  C   UNL     1       8.122  32.105  63.008  1.00  0.00     0.020 A 
HETATM   18  C   UNL     1       8.136  31.533  61.733  1.00  0.00     0.014 A 
ENDBRANCH  11  12
ENDBRANCH   7  10
ENDBRANCH   5   6
BRANCH   1  19
HETATM   19  C   UNL     1       6.393  26.961  56.937  1.00  0.00     0.296 C 
BRANCH  19  20
HETATM   20  N   UNL     1       7.872  27.028  57.298  1.00  0.00    -0.066 N 
HETATM   21  H   UNL     1       7.893  27.335  58.292  1.00  0.00     0.280 HD
BRANCH  20  22
HETATM   22  C   UNL     1       8.616  28.064  56.470  1.00  0.00     0.235 C 
BRANCH  22  23
HETATM   23  C   UNL     1       9.464  29.041  57.282  1.00  0.00     0.023 C 
HETATM   24  C   UNL     1      10.590  29.692  56.497  1.00  0.00     0.007 C 
ENDBRANCH  22  23
ENDBRANCH  20  22
BRANCH  20  25
HETATM   25  C   UNL     1       8.536  25.664  57.208  1.00  0.00     0.235 C 
BRANCH  25  26
HETATM   26  C   UNL     1       7.559  24.512  56.972  1.00  0.00     0.023 C 
HETATM   27  C   UNL     1       8.169  23.310  56.269  1.00  0.00     0.007 C 
ENDBRANCH  25  26
ENDBRANCH  20  25
ENDBRANCH  19  20
ENDBRANCH   1  19
BRANCH   2  28
HETATM   28  C   UNL     1       6.319  26.244  53.822  1.00  0.00     0.225 A 
HETATM   29  N   UNL     1       7.576  25.826  53.674  1.00  0.00    -0.081 NA
HETATM   30  O   UNL     1       7.444  24.577  53.062  1.00  0.00    -0.103 OA
HETATM   31  N   UNL     1       6.108  24.253  52.868  1.00  0.00    -0.083 NA
HETATM   32  C   UNL     1       5.411  25.283  53.342  1.00  0.00     0.201 A 
BRANCH  32  33
HETATM   33  N   UNL     1       4.071  25.358  53.339  1.00  0.00    -0.379 N 
HETATM   34  H   UNL     1       3.599  26.052  52.765  1.00  0.00     0.158 HD
HETATM   35  H   UNL     1       3.462  24.633  53.714  1.00  0.00     0.158 HD
ENDBRANCH  32  33
ENDBRANCH   2  28
TORSDOF 11
ENDMDL
