MODEL 1
REMARK VINA RESULT:     -10.7      0.000      0.000
REMARK  8 active torsions:
REMARK  status: ('A' for Active; 'I' for Inactive)
REMARK    1  A    between atoms: O_2  and  C_3 
REMARK    2  A    between atoms: C_4  and  O_5 
REMARK    3  A    between atoms: C_8  and  C_9 
REMARK    4  A    between atoms: C_13  and  C_14 
REMARK       I    between atoms: C_14  and  N_15 
REMARK    5  A    between atoms: N_15  and  C_16 
REMARK    6  A    between atoms: C_20  and  C_21 
REMARK    7  A    between atoms: C_21  and  C_22 
REMARK    8  A    between atoms: C_22  and  C_23 
ROOT
HETATM    1  C   UNL     1       8.919  30.154  58.612  1.00  0.00     0.290 C 
HETATM    2  N   UNL     1       7.902  29.246  58.420  1.00  0.00    -0.149 N 
HETATM    3  O   UNL     1       9.980  30.174  57.995  1.00  0.00    -0.265 OA
HETATM    4  H   UNL     1       7.124  29.189  59.053  1.00  0.00     0.188 HD
ENDROOT
BRANCH   1   5
HETATM    5  C   UNL     1       8.628  31.149  59.675  1.00  0.00     0.147 A 
HETATM    6  N   UNL     1       9.026  32.428  59.565  1.00  0.00    -0.169 NA
HETATM    7  N   UNL     1       8.528  33.041  60.643  1.00  0.00    -0.277 N 
HETATM    8  C   UNL     1       7.838  32.220  61.496  1.00  0.00     0.063 A 
HETATM    9  H   UNL     1       8.673  34.041  60.724  1.00  0.00     0.189 HD
HETATM   10  C   UNL     1       7.896  30.978  60.888  1.00  0.00     0.071 A 
BRANCH   8  11
HETATM   11  C   UNL     1       7.162  32.688  62.709  1.00  0.00    -0.005 A 
HETATM   12  C   UNL     1       5.766  32.838  62.759  1.00  0.00     0.053 A 
HETATM   13  C   UNL     1       5.120  33.236  63.939  1.00  0.00     0.102 A 
HETATM   14  C   UNL     1       5.881  33.494  65.092  1.00  0.00     0.101 A 
HETATM   15  C   UNL     1       7.272  33.383  65.040  1.00  0.00     0.040 A 
HETATM   16  C   UNL     1       7.904  32.979  63.860  1.00  0.00     0.017 A 
BRANCH  13  17
HETATM   17  O   UNL     1       3.762  33.389  64.071  1.00  0.00    -0.353 OA
HETATM   18  C   UNL     1       3.101  34.273  63.177  1.00  0.00     0.210 C 
ENDBRANCH  13  17
BRANCH  14  19
HETATM   19  O   UNL     1       5.190  33.884  66.214  1.00  0.00    -0.353 OA
HETATM   20  C   UNL     1       5.970  34.394  67.287  1.00  0.00     0.210 C 
ENDBRANCH  14  19
ENDBRANCH   8  11
ENDBRANCH   1   5
BRANCH   2  21
HETATM   21  C   UNL     1       7.851  28.336  57.408  1.00  0.00     0.747 A 
HETATM   22  N   UNL     1       7.647  28.560  56.112  1.00  0.00     0.020 NA
HETATM   23  N   UNL     1       7.639  27.325  55.606  1.00  0.00    -0.248 N 
HETATM   24  H   UNL     1       7.490  27.199  54.611  1.00  0.00     0.191 HD
HETATM   25  C   UNL     1       7.840  26.389  56.581  1.00  0.00     0.140 A 
HETATM   26  N   UNL     1       7.968  27.010  57.736  1.00  0.00    -0.046 NA
BRANCH  25  27
HETATM   27  C   UNL     1       7.852  24.925  56.318  1.00  0.00     0.085 C 
BRANCH  27  28
HETATM   28  C   UNL     1       7.649  24.598  54.836  1.00  0.00     0.046 C 
BRANCH  28  29
HETATM   29  C   UNL     1       7.777  23.120  54.560  1.00  0.00    -0.058 A 
HETATM   30  C   UNL     1       7.710  22.192  55.609  1.00  0.00     0.007 A 
HETATM   31  C   UNL     1       7.842  20.826  55.353  1.00  0.00     0.001 A 
HETATM   32  C   UNL     1       8.042  20.376  54.050  1.00  0.00     0.000 A 
HETATM   33  C   UNL     1       8.112  21.291  53.001  1.00  0.00     0.001 A 
HETATM   34  C   UNL     1       7.984  22.657  53.255  1.00  0.00     0.007 A 
ENDBRANCH  28  29
ENDBRANCH  27  28
ENDBRANCH  25  27
ENDBRANCH   2  21
TORSDOF 8
ENDMDL
MODEL 2
REMARK VINA RESULT:      -9.8      1.641      2.376
REMARK  8 active torsions:
REMARK  status: ('A' for Active; 'I' for Inactive)
REMARK    1  A    between atoms: O_2  and  C_3 
REMARK    2  A    between atoms: C_4  and  O_5 
REMARK    3  A    between atoms: C_8  and  C_9 
REMARK    4  A    between atoms: C_13  and  C_14 
REMARK       I    between atoms: C_14  and  N_15 
REMARK    5  A    between atoms: N_15  and  C_16 
REMARK    6  A    between atoms: C_20  and  C_21 
REMARK    7  A    between atoms: C_21  and  C_22 
REMARK    8  A    between atoms: C_22  and  C_23 
ROOT
HETATM    1  C   UNL     1       8.379  29.168  56.298  1.00  0.00     0.290 C 
HETATM    2  N   UNL     1       7.244  28.390  56.235  1.00  0.00    -0.149 N 
HETATM    3  O   UNL     1       9.187  29.321  55.387  1.00  0.00    -0.265 OA
HETATM    4  H   UNL     1       6.702  28.185  57.055  1.00  0.00     0.188 HD
ENDROOT
BRANCH   1   5
HETATM    5  C   UNL     1       8.565  29.831  57.613  1.00  0.00     0.147 A 
HETATM    6  N   UNL     1       9.791  30.055  58.116  1.00  0.00    -0.169 NA
HETATM    7  N   UNL     1       9.582  30.731  59.250  1.00  0.00    -0.277 N 
HETATM    8  C   UNL     1       8.262  30.943  59.552  1.00  0.00     0.063 A 
HETATM    9  H   UNL     1      10.396  31.048  59.765  1.00  0.00     0.189 HD
HETATM   10  C   UNL     1       7.578  30.358  58.500  1.00  0.00     0.071 A 
BRANCH   8  11
HETATM   11  C   UNL     1       7.804  31.707  60.716  1.00  0.00    -0.005 A 
HETATM   12  C   UNL     1       6.588  32.412  60.698  1.00  0.00     0.053 A 
HETATM   13  C   UNL     1       6.130  33.098  61.832  1.00  0.00     0.102 A 
HETATM   14  C   UNL     1       6.901  33.085  63.008  1.00  0.00     0.101 A 
HETATM   15  C   UNL     1       8.127  32.417  63.022  1.00  0.00     0.040 A 
HETATM   16  C   UNL     1       8.570  31.731  61.887  1.00  0.00     0.017 A 
BRANCH  13  17
HETATM   17  O   UNL     1       4.949  33.794  61.898  1.00  0.00    -0.353 OA
HETATM   18  C   UNL     1       3.847  33.308  61.146  1.00  0.00     0.210 C 
ENDBRANCH  13  17
BRANCH  14  19
HETATM   19  O   UNL     1       6.399  33.778  64.082  1.00  0.00    -0.353 OA
HETATM   20  C   UNL     1       7.055  33.570  65.327  1.00  0.00     0.210 C 
ENDBRANCH  14  19
ENDBRANCH   8  11
ENDBRANCH   1   5
BRANCH   2  21
HETATM   21  C   UNL     1       6.762  27.806  55.101  1.00  0.00     0.747 A 
HETATM   22  N   UNL     1       5.977  28.343  54.171  1.00  0.00     0.020 NA
HETATM   23  N   UNL     1       5.777  27.319  53.339  1.00  0.00    -0.248 N 
HETATM   24  H   UNL     1       5.191  27.452  52.522  1.00  0.00     0.191 HD
HETATM   25  C   UNL     1       6.435  26.200  53.765  1.00  0.00     0.140 A 
HETATM   26  N   UNL     1       7.059  26.484  54.890  1.00  0.00    -0.046 NA
BRANCH  25  27
HETATM   27  C   UNL     1       6.371  24.894  53.054  1.00  0.00     0.085 C 
BRANCH  27  28
HETATM   28  C   UNL     1       7.747  24.236  52.921  1.00  0.00     0.046 C 
BRANCH  28  29
HETATM   29  C   UNL     1       7.811  22.910  53.637  1.00  0.00    -0.058 A 
HETATM   30  C   UNL     1       7.688  22.847  55.033  1.00  0.00     0.007 A 
HETATM   31  C   UNL     1       7.760  21.620  55.695  1.00  0.00     0.001 A 
HETATM   32  C   UNL     1       7.955  20.447  54.970  1.00  0.00     0.000 A 
HETATM   33  C   UNL     1       8.081  20.499  53.582  1.00  0.00     0.001 A 
HETATM   34  C   UNL     1       8.012  21.724  52.919  1.00  0.00     0.007 A 
ENDBRANCH  28  29
ENDBRANCH  27  28
ENDBRANCH  25  27
ENDBRANCH   2  21
TORSDOF 8
ENDMDL
MODEL 3
REMARK VINA RESULT:      -9.6      2.725     12.114
REMARK  8 active torsions:
REMARK  status: ('A' for Active; 'I' for Inactive)
REMARK    1  A    between atoms: O_2  and  C_3 
REMARK    2  A    between atoms: C_4  and  O_5 
REMARK    3  A    between atoms: C_8  and  C_9 
REMARK    4  A    between atoms: C_13  and  C_14 
REMARK       I    between atoms: C_14  and  N_15 
REMARK    5  A    between atoms: N_15  and  C_16 
REMARK    6  A    between atoms: C_20  and  C_21 
REMARK    7  A    between atoms: C_21  and  C_22 
REMARK    8  A    between atoms: C_22  and  C_23 
ROOT
HETATM    1  C   UNL     1       6.974  29.462  57.443  1.00  0.00     0.290 C 
HETATM    2  N   UNL     1       7.763  29.383  58.569  1.00  0.00    -0.149 N 
HETATM    3  O   UNL     1       6.433  30.480  57.024  1.00  0.00    -0.265 OA
HETATM    4  H   UNL     1       8.056  28.498  58.943  1.00  0.00     0.188 HD
ENDROOT
BRANCH   1   5
HETATM    5  C   UNL     1       6.812  28.161  56.745  1.00  0.00     0.147 A 
HETATM    6  N   UNL     1       5.634  27.796  56.211  1.00  0.00    -0.169 NA
HETATM    7  N   UNL     1       5.876  26.629  55.604  1.00  0.00    -0.277 N 
HETATM    8  C   UNL     1       7.162  26.174  55.736  1.00  0.00     0.063 A 
HETATM    9  H   UNL     1       5.116  26.204  55.086  1.00  0.00     0.189 HD
HETATM   10  C   UNL     1       7.791  27.155  56.483  1.00  0.00     0.071 A 
BRANCH   8  11
HETATM   11  C   UNL     1       7.661  24.948  55.107  1.00  0.00    -0.005 A 
HETATM   12  C   UNL     1       8.215  23.907  55.871  1.00  0.00     0.053 A 
HETATM   13  C   UNL     1       8.643  22.714  55.269  1.00  0.00     0.102 A 
HETATM   14  C   UNL     1       8.522  22.558  53.877  1.00  0.00     0.101 A 
HETATM   15  C   UNL     1       8.006  23.602  53.108  1.00  0.00     0.040 A 
HETATM   16  C   UNL     1       7.576  24.784  53.720  1.00  0.00     0.017 A 
BRANCH  13  17
HETATM   17  O   UNL     1       9.178  21.647  55.948  1.00  0.00    -0.353 OA
HETATM   18  C   UNL     1       8.297  20.825  56.698  1.00  0.00     0.210 C 
ENDBRANCH  13  17
BRANCH  14  19
HETATM   19  O   UNL     1       8.962  21.369  53.349  1.00  0.00    -0.353 OA
HETATM   20  C   UNL     1       7.956  20.461  52.919  1.00  0.00     0.210 C 
ENDBRANCH  14  19
ENDBRANCH   8  11
ENDBRANCH   1   5
BRANCH   2  21
HETATM   21  C   UNL     1       8.196  30.453  59.294  1.00  0.00     0.747 A 
HETATM   22  N   UNL     1       9.432  30.938  59.384  1.00  0.00     0.020 NA
HETATM   23  N   UNL     1       9.284  31.933  60.261  1.00  0.00    -0.248 N 
HETATM   24  H   UNL     1      10.095  32.483  60.526  1.00  0.00     0.191 HD
HETATM   25  C   UNL     1       7.988  32.040  60.676  1.00  0.00     0.140 A 
HETATM   26  N   UNL     1       7.280  31.101  60.081  1.00  0.00    -0.046 NA
BRANCH  25  27
HETATM   27  C   UNL     1       7.529  33.041  61.677  1.00  0.00     0.085 C 
BRANCH  27  28
HETATM   28  C   UNL     1       7.953  32.675  63.102  1.00  0.00     0.046 C 
BRANCH  28  29
HETATM   29  C   UNL     1       6.948  33.137  64.127  1.00  0.00    -0.058 A 
HETATM   30  C   UNL     1       7.373  33.652  65.360  1.00  0.00     0.007 A 
HETATM   31  C   UNL     1       6.440  34.067  66.312  1.00  0.00     0.001 A 
HETATM   32  C   UNL     1       5.077  33.971  66.042  1.00  0.00     0.000 A 
HETATM   33  C   UNL     1       4.644  33.459  64.820  1.00  0.00     0.001 A 
HETATM   34  C   UNL     1       5.574  33.041  63.868  1.00  0.00     0.007 A 
ENDBRANCH  28  29
ENDBRANCH  27  28
ENDBRANCH  25  27
ENDBRANCH   2  21
TORSDOF 8
ENDMDL
MODEL 4
REMARK VINA RESULT:      -9.1      4.725      8.247
REMARK  8 active torsions:
REMARK  status: ('A' for Active; 'I' for Inactive)
REMARK    1  A    between atoms: O_2  and  C_3 
REMARK    2  A    between atoms: C_4  and  O_5 
REMARK    3  A    between atoms: C_8  and  C_9 
REMARK    4  A    between atoms: C_13  and  C_14 
REMARK       I    between atoms: C_14  and  N_15 
REMARK    5  A    between atoms: N_15  and  C_16 
REMARK    6  A    between atoms: C_20  and  C_21 
REMARK    7  A    between atoms: C_21  and  C_22 
REMARK    8  A    between atoms: C_22  and  C_23 
ROOT
HETATM    1  C   UNL     1       5.298  33.484  64.958  1.00  0.00     0.290 C 
HETATM    2  N   UNL     1       6.524  33.105  64.456  1.00  0.00    -0.149 N 
HETATM    3  O   UNL     1       4.235  33.438  64.346  1.00  0.00    -0.265 OA
HETATM    4  H   UNL     1       7.376  33.303  64.949  1.00  0.00     0.188 HD
ENDROOT
BRANCH   1   5
HETATM    5  C   UNL     1       5.362  33.982  66.355  1.00  0.00     0.147 A 
HETATM    6  N   UNL     1       4.249  34.310  67.032  1.00  0.00    -0.169 NA
HETATM    7  N   UNL     1       4.672  34.631  68.259  1.00  0.00    -0.277 N 
HETATM    8  C   UNL     1       6.030  34.565  68.429  1.00  0.00     0.063 A 
HETATM    9  H   UNL     1       3.969  34.861  68.952  1.00  0.00     0.189 HD
HETATM   10  C   UNL     1       6.503  34.150  67.196  1.00  0.00     0.071 A 
BRANCH   8  11
HETATM   11  C   UNL     1       6.705  34.820  69.704  1.00  0.00    -0.005 A 
HETATM   12  C   UNL     1       5.981  35.000  70.894  1.00  0.00     0.053 A 
HETATM   13  C   UNL     1       6.635  35.192  72.121  1.00  0.00     0.102 A 
HETATM   14  C   UNL     1       8.040  35.209  72.161  1.00  0.00     0.101 A 
HETATM   15  C   UNL     1       8.766  35.066  70.977  1.00  0.00     0.040 A 
HETATM   16  C   UNL     1       8.103  34.870  69.761  1.00  0.00     0.017 A 
BRANCH  13  17
HETATM   17  O   UNL     1       5.999  35.359  73.325  1.00  0.00    -0.353 OA
HETATM   18  C   UNL     1       4.589  35.197  73.362  1.00  0.00     0.210 C 
ENDBRANCH  13  17
BRANCH  14  19
HETATM   19  O   UNL     1       8.620  35.404  73.390  1.00  0.00    -0.353 OA
HETATM   20  C   UNL     1       9.686  36.344  73.441  1.00  0.00     0.210 C 
ENDBRANCH  14  19
ENDBRANCH   8  11
ENDBRANCH   1   5
BRANCH   2  21
HETATM   21  C   UNL     1       6.716  32.470  63.265  1.00  0.00     0.747 A 
HETATM   22  N   UNL     1       6.454  31.202  62.959  1.00  0.00     0.020 NA
HETATM   23  N   UNL     1       6.887  31.117  61.700  1.00  0.00    -0.248 N 
HETATM   24  H   UNL     1       6.814  30.232  61.210  1.00  0.00     0.191 HD
HETATM   25  C   UNL     1       7.389  32.312  61.267  1.00  0.00     0.140 A 
HETATM   26  N   UNL     1       7.299  33.184  62.250  1.00  0.00    -0.046 NA
BRANCH  25  27
HETATM   27  C   UNL     1       7.972  32.511  59.912  1.00  0.00     0.085 C 
BRANCH  27  28
HETATM   28  C   UNL     1       9.385  31.932  59.796  1.00  0.00     0.046 C 
BRANCH  28  29
HETATM   29  C   UNL     1       9.478  30.881  58.718  1.00  0.00    -0.058 A 
HETATM   30  C   UNL     1       8.500  29.881  58.611  1.00  0.00     0.007 A 
HETATM   31  C   UNL     1       8.595  28.902  57.621  1.00  0.00     0.001 A 
HETATM   32  C   UNL     1       9.665  28.912  56.730  1.00  0.00     0.000 A 
HETATM   33  C   UNL     1      10.644  29.900  56.829  1.00  0.00     0.001 A 
HETATM   34  C   UNL     1      10.553  30.878  57.820  1.00  0.00     0.007 A 
ENDBRANCH  28  29
ENDBRANCH  27  28
ENDBRANCH  25  27
ENDBRANCH   2  21
TORSDOF 8
ENDMDL
MODEL 5
REMARK VINA RESULT:      -9.1      2.512      3.385
REMARK  8 active torsions:
REMARK  status: ('A' for Active; 'I' for Inactive)
REMARK    1  A    between atoms: O_2  and  C_3 
REMARK    2  A    between atoms: C_4  and  O_5 
REMARK    3  A    between atoms: C_8  and  C_9 
REMARK    4  A    between atoms: C_13  and  C_14 
REMARK       I    between atoms: C_14  and  N_15 
REMARK    5  A    between atoms: N_15  and  C_16 
REMARK    6  A    between atoms: C_20  and  C_21 
REMARK    7  A    between atoms: C_21  and  C_22 
REMARK    8  A    between atoms: C_22  and  C_23 
ROOT
HETATM    1  C   UNL     1       6.302  29.208  55.640  1.00  0.00     0.290 C 
HETATM    2  N   UNL     1       5.109  28.609  55.301  1.00  0.00    -0.149 N 
HETATM    3  O   UNL     1       7.407  28.879  55.217  1.00  0.00    -0.265 OA
HETATM    4  H   UNL     1       4.258  28.823  55.789  1.00  0.00     0.188 HD
ENDROOT
BRANCH   1   5
HETATM    5  C   UNL     1       6.148  30.326  56.604  1.00  0.00     0.147 A 
HETATM    6  N   UNL     1       5.369  31.386  56.327  1.00  0.00    -0.169 NA
HETATM    7  N   UNL     1       5.401  32.138  57.432  1.00  0.00    -0.277 N 
HETATM    8  C   UNL     1       6.198  31.646  58.432  1.00  0.00     0.063 A 
HETATM    9  H   UNL     1       4.826  32.972  57.449  1.00  0.00     0.189 HD
HETATM   10  C   UNL     1       6.702  30.466  57.911  1.00  0.00     0.071 A 
BRANCH   8  11
HETATM   11  C   UNL     1       6.338  32.277  59.748  1.00  0.00    -0.005 A 
HETATM   12  C   UNL     1       5.326  33.093  60.281  1.00  0.00     0.053 A 
HETATM   13  C   UNL     1       5.444  33.651  61.562  1.00  0.00     0.102 A 
HETATM   14  C   UNL     1       6.596  33.395  62.327  1.00  0.00     0.101 A 
HETATM   15  C   UNL     1       7.621  32.614  61.789  1.00  0.00     0.040 A 
HETATM   16  C   UNL     1       7.490  32.058  60.513  1.00  0.00     0.017 A 
BRANCH  13  17
HETATM   17  O   UNL     1       4.494  34.444  62.158  1.00  0.00    -0.353 OA
HETATM   18  C   UNL     1       3.865  35.439  61.364  1.00  0.00     0.210 C 
ENDBRANCH  13  17
BRANCH  14  19
HETATM   19  O   UNL     1       6.652  33.973  63.571  1.00  0.00    -0.353 OA
HETATM   20  C   UNL     1       7.490  33.333  64.525  1.00  0.00     0.210 C 
ENDBRANCH  14  19
ENDBRANCH   8  11
ENDBRANCH   1   5
BRANCH   2  21
HETATM   21  C   UNL     1       4.957  27.672  54.324  1.00  0.00     0.747 A 
HETATM   22  N   UNL     1       4.168  27.723  53.253  1.00  0.00     0.020 NA
HETATM   23  N   UNL     1       4.375  26.531  52.689  1.00  0.00    -0.248 N 
HETATM   24  H   UNL     1       3.878  26.294  51.837  1.00  0.00     0.191 HD
HETATM   25  C   UNL     1       5.273  25.793  53.406  1.00  0.00     0.140 A 
HETATM   26  N   UNL     1       5.648  26.496  54.456  1.00  0.00    -0.046 NA
BRANCH  25  27
HETATM   27  C   UNL     1       5.676  24.410  53.034  1.00  0.00     0.085 C 
BRANCH  27  28
HETATM   28  C   UNL     1       7.190  24.200  53.132  1.00  0.00     0.046 C 
BRANCH  28  29
HETATM   29  C   UNL     1       7.537  22.864  53.740  1.00  0.00    -0.058 A 
HETATM   30  C   UNL     1       7.862  21.772  52.922  1.00  0.00     0.007 A 
HETATM   31  C   UNL     1       8.171  20.533  53.486  1.00  0.00     0.001 A 
HETATM   32  C   UNL     1       8.158  20.373  54.870  1.00  0.00     0.000 A 
HETATM   33  C   UNL     1       7.834  21.452  55.692  1.00  0.00     0.001 A 
HETATM   34  C   UNL     1       7.522  22.690  55.130  1.00  0.00     0.007 A 
ENDBRANCH  28  29
ENDBRANCH  27  28
ENDBRANCH  25  27
ENDBRANCH   2  21
TORSDOF 8
ENDMDL
MODEL 6
REMARK VINA RESULT:      -8.9      2.584      3.577
REMARK  8 active torsions:
REMARK  status: ('A' for Active; 'I' for Inactive)
REMARK    1  A    between atoms: O_2  and  C_3 
REMARK    2  A    between atoms: C_4  and  O_5 
REMARK    3  A    between atoms: C_8  and  C_9 
REMARK    4  A    between atoms: C_13  and  C_14 
REMARK       I    between atoms: C_14  and  N_15 
REMARK    5  A    between atoms: N_15  and  C_16 
REMARK    6  A    between atoms: C_20  and  C_21 
REMARK    7  A    between atoms: C_21  and  C_22 
REMARK    8  A    between atoms: C_22  and  C_23 
ROOT
HETATM    1  C   UNL     1       5.387  29.784  55.882  1.00  0.00     0.290 C 
HETATM    2  N   UNL     1       5.532  28.414  55.864  1.00  0.00    -0.149 N 
HETATM    3  O   UNL     1       5.048  30.475  54.926  1.00  0.00    -0.265 OA
HETATM    4  H   UNL     1       5.953  27.922  56.631  1.00  0.00     0.188 HD
ENDROOT
BRANCH   1   5
HETATM    5  C   UNL     1       5.691  30.391  57.202  1.00  0.00     0.147 A 
HETATM    6  N   UNL     1       6.830  30.107  57.857  1.00  0.00    -0.169 NA
HETATM    7  N   UNL     1       6.805  30.881  58.947  1.00  0.00    -0.277 N 
HETATM    8  C   UNL     1       5.679  31.651  59.073  1.00  0.00     0.063 A 
HETATM    9  H   UNL     1       7.613  30.856  59.558  1.00  0.00     0.189 HD
HETATM   10  C   UNL     1       4.933  31.343  57.948  1.00  0.00     0.071 A 
BRANCH   8  11
HETATM   11  C   UNL     1       5.466  32.612  60.159  1.00  0.00    -0.005 A 
HETATM   12  C   UNL     1       6.010  32.406  61.438  1.00  0.00     0.053 A 
HETATM   13  C   UNL     1       5.846  33.354  62.458  1.00  0.00     0.102 A 
HETATM   14  C   UNL     1       5.121  34.531  62.200  1.00  0.00     0.101 A 
HETATM   15  C   UNL     1       4.547  34.726  60.942  1.00  0.00     0.040 A 
HETATM   16  C   UNL     1       4.723  33.777  59.931  1.00  0.00     0.017 A 
BRANCH  13  17
HETATM   17  O   UNL     1       6.359  33.232  63.725  1.00  0.00    -0.353 OA
HETATM   18  C   UNL     1       7.746  32.956  63.859  1.00  0.00     0.210 C 
ENDBRANCH  13  17
BRANCH  14  19
HETATM   19  O   UNL     1       4.994  35.417  63.241  1.00  0.00    -0.353 OA
HETATM   20  C   UNL     1       3.667  35.795  63.588  1.00  0.00     0.210 C 
ENDBRANCH  14  19
ENDBRANCH   8  11
ENDBRANCH   1   5
BRANCH   2  21
HETATM   21  C   UNL     1       5.165  27.605  54.831  1.00  0.00     0.747 A 
HETATM   22  N   UNL     1       4.133  27.747  54.003  1.00  0.00     0.020 NA
HETATM   23  N   UNL     1       4.224  26.654  53.243  1.00  0.00    -0.248 N 
HETATM   24  H   UNL     1       3.535  26.501  52.514  1.00  0.00     0.191 HD
HETATM   25  C   UNL     1       5.291  25.885  53.607  1.00  0.00     0.140 A 
HETATM   26  N   UNL     1       5.899  26.466  54.622  1.00  0.00    -0.046 NA
BRANCH  25  27
HETATM   27  C   UNL     1       5.626  24.589  52.956  1.00  0.00     0.085 C 
BRANCH  27  28
HETATM   28  C   UNL     1       7.131  24.310  52.954  1.00  0.00     0.046 C 
BRANCH  28  29
HETATM   29  C   UNL     1       7.467  23.014  53.648  1.00  0.00    -0.058 A 
HETATM   30  C   UNL     1       7.838  21.884  52.905  1.00  0.00     0.007 A 
HETATM   31  C   UNL     1       8.136  20.681  53.548  1.00  0.00     0.001 A 
HETATM   32  C   UNL     1       8.067  20.596  54.937  1.00  0.00     0.000 A 
HETATM   33  C   UNL     1       7.697  21.713  55.684  1.00  0.00     0.001 A 
HETATM   34  C   UNL     1       7.395  22.916  55.044  1.00  0.00     0.007 A 
ENDBRANCH  28  29
ENDBRANCH  27  28
ENDBRANCH  25  27
ENDBRANCH   2  21
TORSDOF 8
ENDMDL
MODEL 7
REMARK VINA RESULT:      -8.8      2.323      3.114
REMARK  8 active torsions:
REMARK  status: ('A' for Active; 'I' for Inactive)
REMARK    1  A    between atoms: O_2  and  C_3 
REMARK    2  A    between atoms: C_4  and  O_5 
REMARK    3  A    between atoms: C_8  and  C_9 
REMARK    4  A    between atoms: C_13  and  C_14 
REMARK       I    between atoms: C_14  and  N_15 
REMARK    5  A    between atoms: N_15  and  C_16 
REMARK    6  A    between atoms: C_20  and  C_21 
REMARK    7  A    between atoms: C_21  and  C_22 
REMARK    8  A    between atoms: C_22  and  C_23 
ROOT
HETATM    1  C   UNL     1       5.289  30.837  57.596  1.00  0.00     0.290 C 
HETATM    2  N   UNL     1       6.093  29.746  57.846  1.00  0.00    -0.149 N 
HETATM    3  O   UNL     1       5.147  31.379  56.505  1.00  0.00    -0.265 OA
HETATM    4  H   UNL     1       6.283  29.439  58.783  1.00  0.00     0.188 HD
ENDROOT
BRANCH   1   5
HETATM    5  C   UNL     1       4.581  31.335  58.802  1.00  0.00     0.147 A 
HETATM    6  N   UNL     1       3.299  31.012  59.044  1.00  0.00    -0.169 NA
HETATM    7  N   UNL     1       3.023  31.557  60.233  1.00  0.00    -0.277 N 
HETATM    8  C   UNL     1       4.056  32.265  60.789  1.00  0.00     0.063 A 
HETATM    9  H   UNL     1       2.106  31.382  60.628  1.00  0.00     0.189 HD
HETATM   10  C   UNL     1       5.083  32.140  59.869  1.00  0.00     0.071 A 
BRANCH   8  11
HETATM   11  C   UNL     1       3.993  32.898  62.109  1.00  0.00    -0.005 A 
HETATM   12  C   UNL     1       5.040  32.766  63.036  1.00  0.00     0.053 A 
HETATM   13  C   UNL     1       4.998  33.418  64.278  1.00  0.00     0.102 A 
HETATM   14  C   UNL     1       3.886  34.215  64.604  1.00  0.00     0.101 A 
HETATM   15  C   UNL     1       2.826  34.322  63.702  1.00  0.00     0.040 A 
HETATM   16  C   UNL     1       2.882  33.673  62.465  1.00  0.00     0.017 A 
BRANCH  13  17
HETATM   17  O   UNL     1       5.986  33.351  65.228  1.00  0.00    -0.353 OA
HETATM   18  C   UNL     1       7.332  33.502  64.801  1.00  0.00     0.210 C 
ENDBRANCH  13  17
BRANCH  14  19
HETATM   19  O   UNL     1       3.903  34.823  65.835  1.00  0.00    -0.353 OA
HETATM   20  C   UNL     1       4.314  36.184  65.858  1.00  0.00     0.210 C 
ENDBRANCH  14  19
ENDBRANCH   8  11
ENDBRANCH   1   5
BRANCH   2  21
HETATM   21  C   UNL     1       6.722  29.006  56.891  1.00  0.00     0.747 A 
HETATM   22  N   UNL     1       7.709  29.381  56.080  1.00  0.00     0.020 NA
HETATM   23  N   UNL     1       7.888  28.293  55.327  1.00  0.00    -0.248 N 
HETATM   24  H   UNL     1       8.595  28.307  54.600  1.00  0.00     0.191 HD
HETATM   25  C   UNL     1       7.031  27.294  55.689  1.00  0.00     0.140 A 
HETATM   26  N   UNL     1       6.273  27.729  56.675  1.00  0.00    -0.046 NA
BRANCH  25  27
HETATM   27  C   UNL     1       6.980  25.973  55.005  1.00  0.00     0.085 C 
BRANCH  27  28
HETATM   28  C   UNL     1       7.669  24.872  55.816  1.00  0.00     0.046 C 
BRANCH  28  29
HETATM   29  C   UNL     1       7.764  23.578  55.046  1.00  0.00    -0.058 A 
HETATM   30  C   UNL     1       7.834  23.587  53.645  1.00  0.00     0.007 A 
HETATM   31  C   UNL     1       7.909  22.388  52.934  1.00  0.00     0.001 A 
HETATM   32  C   UNL     1       7.914  21.172  53.613  1.00  0.00     0.000 A 
HETATM   33  C   UNL     1       7.843  21.153  55.005  1.00  0.00     0.001 A 
HETATM   34  C   UNL     1       7.765  22.349  55.719  1.00  0.00     0.007 A 
ENDBRANCH  28  29
ENDBRANCH  27  28
ENDBRANCH  25  27
ENDBRANCH   2  21
TORSDOF 8
ENDMDL
MODEL 8
REMARK VINA RESULT:      -8.7      8.755     13.119
REMARK  8 active torsions:
REMARK  status: ('A' for Active; 'I' for Inactive)
REMARK    1  A    between atoms: O_2  and  C_3 
REMARK    2  A    between atoms: C_4  and  O_5 
REMARK    3  A    between atoms: C_8  and  C_9 
REMARK    4  A    between atoms: C_13  and  C_14 
REMARK       I    between atoms: C_14  and  N_15 
REMARK    5  A    between atoms: N_15  and  C_16 
REMARK    6  A    between atoms: C_20  and  C_21 
REMARK    7  A    between atoms: C_21  and  C_22 
REMARK    8  A    between atoms: C_22  and  C_23 
ROOT
HETATM    1  C   UNL     1       4.896  27.402  50.850  1.00  0.00     0.290 C 
HETATM    2  N   UNL     1       4.070  27.387  51.952  1.00  0.00    -0.149 N 
HETATM    3  O   UNL     1       6.119  27.306  50.878  1.00  0.00    -0.265 OA
HETATM    4  H   UNL     1       3.095  27.617  51.880  1.00  0.00     0.188 HD
ENDROOT
BRANCH   1   5
HETATM    5  C   UNL     1       4.164  27.556  49.568  1.00  0.00     0.147 A 
HETATM    6  N   UNL     1       4.705  27.163  48.402  1.00  0.00    -0.169 NA
HETATM    7  N   UNL     1       3.751  27.373  47.489  1.00  0.00    -0.277 N 
HETATM    8  C   UNL     1       2.599  27.925  47.986  1.00  0.00     0.063 A 
HETATM    9  H   UNL     1       3.942  27.087  46.536  1.00  0.00     0.189 HD
HETATM   10  C   UNL     1       2.848  28.060  49.341  1.00  0.00     0.071 A 
BRANCH   8  11
HETATM   11  C   UNL     1       1.406  28.189  47.176  1.00  0.00    -0.005 A 
HETATM   12  C   UNL     1       0.876  29.484  47.054  1.00  0.00     0.053 A 
HETATM   13  C   UNL     1      -0.235  29.740  46.236  1.00  0.00     0.102 A 
HETATM   14  C   UNL     1      -0.832  28.682  45.528  1.00  0.00     0.101 A 
HETATM   15  C   UNL     1      -0.332  27.386  45.673  1.00  0.00     0.040 A 
HETATM   16  C   UNL     1       0.780  27.145  46.486  1.00  0.00     0.017 A 
BRANCH  13  17
HETATM   17  O   UNL     1      -0.800  30.977  46.054  1.00  0.00    -0.353 OA
HETATM   18  C   UNL     1      -1.439  31.588  47.165  1.00  0.00     0.210 C 
ENDBRANCH  13  17
BRANCH  14  19
HETATM   19  O   UNL     1      -1.917  28.996  44.748  1.00  0.00    -0.353 OA
HETATM   20  C   UNL     1      -1.726  28.910  43.341  1.00  0.00     0.210 C 
ENDBRANCH  14  19
ENDBRANCH   8  11
ENDBRANCH   1   5
BRANCH   2  21
HETATM   21  C   UNL     1       4.471  27.101  53.223  1.00  0.00     0.747 A 
HETATM   22  N   UNL     1       4.395  27.876  54.302  1.00  0.00     0.020 NA
HETATM   23  N   UNL     1       4.978  27.122  55.237  1.00  0.00    -0.248 N 
HETATM   24  H   UNL     1       5.065  27.484  56.180  1.00  0.00     0.191 HD
HETATM   25  C   UNL     1       5.383  25.923  54.724  1.00  0.00     0.140 A 
HETATM   26  N   UNL     1       5.080  25.892  53.442  1.00  0.00    -0.046 NA
BRANCH  25  27
HETATM   27  C   UNL     1       6.091  24.888  55.526  1.00  0.00     0.085 C 
BRANCH  27  28
HETATM   28  C   UNL     1       7.499  24.603  54.994  1.00  0.00     0.046 C 
BRANCH  28  29
HETATM   29  C   UNL     1       7.687  23.148  54.646  1.00  0.00    -0.058 A 
HETATM   30  C   UNL     1       7.843  22.750  53.310  1.00  0.00     0.007 A 
HETATM   31  C   UNL     1       8.005  21.401  52.988  1.00  0.00     0.001 A 
HETATM   32  C   UNL     1       8.013  20.439  53.996  1.00  0.00     0.000 A 
HETATM   33  C   UNL     1       7.858  20.825  55.326  1.00  0.00     0.001 A 
HETATM   34  C   UNL     1       7.693  22.172  55.650  1.00  0.00     0.007 A 
ENDBRANCH  28  29
ENDBRANCH  27  28
ENDBRANCH  25  27
ENDBRANCH   2  21
TORSDOF 8
ENDMDL
MODEL 9
REMARK VINA RESULT:      -8.7      2.126      2.402
REMARK  8 active torsions:
REMARK  status: ('A' for Active; 'I' for Inactive)
REMARK    1  A    between atoms: O_2  and  C_3 
REMARK    2  A    between atoms: C_4  and  O_5 
REMARK    3  A    between atoms: C_8  and  C_9 
REMARK    4  A    between atoms: C_13  and  C_14 
REMARK       I    between atoms: C_14  and  N_15 
REMARK    5  A    between atoms: N_15  and  C_16 
REMARK    6  A    between atoms: C_20  and  C_21 
REMARK    7  A    between atoms: C_21  and  C_22 
REMARK    8  A    between atoms: C_22  and  C_23 
ROOT
HETATM    1  C   UNL     1       6.429  31.128  58.174  1.00  0.00     0.290 C 
HETATM    2  N   UNL     1       7.150  30.088  58.717  1.00  0.00    -0.149 N 
HETATM    3  O   UNL     1       6.158  31.259  56.984  1.00  0.00    -0.265 OA
HETATM    4  H   UNL     1       7.466  30.111  59.670  1.00  0.00     0.188 HD
ENDROOT
BRANCH   1   5
HETATM    5  C   UNL     1       5.990  32.129  59.179  1.00  0.00     0.147 A 
HETATM    6  N   UNL     1       5.064  33.057  58.883  1.00  0.00    -0.169 NA
HETATM    7  N   UNL     1       4.859  33.719  60.027  1.00  0.00    -0.277 N 
HETATM    8  C   UNL     1       5.635  33.297  61.075  1.00  0.00     0.063 A 
HETATM    9  H   UNL     1       4.146  34.438  60.031  1.00  0.00     0.189 HD
HETATM   10  C   UNL     1       6.387  32.264  60.543  1.00  0.00     0.071 A 
BRANCH   8  11
HETATM   11  C   UNL     1       5.539  33.843  62.432  1.00  0.00    -0.005 A 
HETATM   12  C   UNL     1       5.461  35.227  62.661  1.00  0.00     0.053 A 
HETATM   13  C   UNL     1       5.316  35.741  63.958  1.00  0.00     0.102 A 
HETATM   14  C   UNL     1       5.252  34.857  65.050  1.00  0.00     0.101 A 
HETATM   15  C   UNL     1       5.364  33.483  64.833  1.00  0.00     0.040 A 
HETATM   16  C   UNL     1       5.502  32.982  63.535  1.00  0.00     0.017 A 
BRANCH  13  17
HETATM   17  O   UNL     1       5.218  37.076  64.261  1.00  0.00    -0.353 OA
HETATM   18  C   UNL     1       6.039  37.985  63.543  1.00  0.00     0.210 C 
ENDBRANCH  13  17
BRANCH  14  19
HETATM   19  O   UNL     1       5.113  35.423  66.294  1.00  0.00    -0.353 OA
HETATM   20  C   UNL     1       5.427  34.590  67.402  1.00  0.00     0.210 C 
ENDBRANCH  14  19
ENDBRANCH   8  11
ENDBRANCH   1   5
BRANCH   2  21
HETATM   21  C   UNL     1       7.531  28.967  58.042  1.00  0.00     0.747 A 
HETATM   22  N   UNL     1       8.763  28.583  57.717  1.00  0.00     0.020 NA
HETATM   23  N   UNL     1       8.539  27.463  57.026  1.00  0.00    -0.248 N 
HETATM   24  H   UNL     1       9.328  26.954  56.642  1.00  0.00     0.191 HD
HETATM   25  C   UNL     1       7.204  27.187  56.949  1.00  0.00     0.140 A 
HETATM   26  N   UNL     1       6.543  28.136  57.580  1.00  0.00    -0.046 NA
BRANCH  25  27
HETATM   27  C   UNL     1       6.653  26.016  56.213  1.00  0.00     0.085 C 
BRANCH  27  28
HETATM   28  C   UNL     1       7.350  24.708  56.596  1.00  0.00     0.046 C 
BRANCH  28  29
HETATM   29  C   UNL     1       7.595  23.826  55.397  1.00  0.00    -0.058 A 
HETATM   30  C   UNL     1       8.305  22.624  55.529  1.00  0.00     0.007 A 
HETATM   31  C   UNL     1       8.541  21.816  54.416  1.00  0.00     0.001 A 
HETATM   32  C   UNL     1       8.070  22.199  53.162  1.00  0.00     0.000 A 
HETATM   33  C   UNL     1       7.364  23.393  53.020  1.00  0.00     0.001 A 
HETATM   34  C   UNL     1       7.130  24.204  54.131  1.00  0.00     0.007 A 
ENDBRANCH  28  29
ENDBRANCH  27  28
ENDBRANCH  25  27
ENDBRANCH   2  21
TORSDOF 8
ENDMDL
MODEL 10
REMARK VINA RESULT:      -8.7      7.755     12.124
REMARK  8 active torsions:
REMARK  status: ('A' for Active; 'I' for Inactive)
REMARK    1  A    between atoms: O_2  and  C_3 
REMARK    2  A    between atoms: C_4  and  O_5 
REMARK    3  A    between atoms: C_8  and  C_9 
REMARK    4  A    between atoms: C_13  and  C_14 
REMARK       I    between atoms: C_14  and  N_15 
REMARK    5  A    between atoms: N_15  and  C_16 
REMARK    6  A    between atoms: C_20  and  C_21 
REMARK    7  A    between atoms: C_21  and  C_22 
REMARK    8  A    between atoms: C_22  and  C_23 
ROOT
HETATM    1  C   UNL     1       5.459  27.383  52.562  1.00  0.00     0.290 C 
HETATM    2  N   UNL     1       4.871  26.618  53.545  1.00  0.00    -0.149 N 
HETATM    3  O   UNL     1       6.441  28.103  52.715  1.00  0.00    -0.265 OA
HETATM    4  H   UNL     1       3.986  26.166  53.399  1.00  0.00     0.188 HD
ENDROOT
BRANCH   1   5
HETATM    5  C   UNL     1       4.781  27.272  51.245  1.00  0.00     0.147 A 
HETATM    6  N   UNL     1       4.947  26.193  50.462  1.00  0.00    -0.169 NA
HETATM    7  N   UNL     1       4.139  26.396  49.417  1.00  0.00    -0.277 N 
HETATM    8  C   UNL     1       3.460  27.586  49.445  1.00  0.00     0.063 A 
HETATM    9  H   UNL     1       4.075  25.660  48.723  1.00  0.00     0.189 HD
HETATM   10  C   UNL     1       3.869  28.179  50.627  1.00  0.00     0.071 A 
BRANCH   8  11
HETATM   11  C   UNL     1       2.482  27.991  48.431  1.00  0.00    -0.005 A 
HETATM   12  C   UNL     1       2.533  29.259  47.829  1.00  0.00     0.053 A 
HETATM   13  C   UNL     1       1.626  29.622  46.822  1.00  0.00     0.102 A 
HETATM   14  C   UNL     1       0.646  28.703  46.409  1.00  0.00     0.101 A 
HETATM   15  C   UNL     1       0.567  27.453  47.028  1.00  0.00     0.040 A 
HETATM   16  C   UNL     1       1.480  27.101  48.026  1.00  0.00     0.017 A 
BRANCH  13  17
HETATM   17  O   UNL     1       1.621  30.834  46.177  1.00  0.00    -0.353 OA
HETATM   18  C   UNL     1       2.839  31.288  45.605  1.00  0.00     0.210 C 
ENDBRANCH  13  17
BRANCH  14  19
HETATM   19  O   UNL     1      -0.214  29.119  45.422  1.00  0.00    -0.353 OA
HETATM   20  C   UNL     1      -1.560  29.353  45.817  1.00  0.00     0.210 C 
ENDBRANCH  14  19
ENDBRANCH   8  11
ENDBRANCH   1   5
BRANCH   2  21
HETATM   21  C   UNL     1       5.386  26.419  54.791  1.00  0.00     0.747 A 
HETATM   22  N   UNL     1       5.279  27.206  55.859  1.00  0.00     0.020 NA
HETATM   23  N   UNL     1       6.014  26.558  56.765  1.00  0.00    -0.248 N 
HETATM   24  H   UNL     1       6.113  26.952  57.695  1.00  0.00     0.191 HD
HETATM   25  C   UNL     1       6.539  25.408  56.247  1.00  0.00     0.140 A 
HETATM   26  N   UNL     1       6.160  25.305  54.990  1.00  0.00    -0.046 NA
BRANCH  25  27
HETATM   27  C   UNL     1       7.426  24.495  57.018  1.00  0.00     0.085 C 
BRANCH  27  28
HETATM   28  C   UNL     1       8.666  24.080  56.221  1.00  0.00     0.046 C 
BRANCH  28  29
HETATM   29  C   UNL     1       8.450  22.788  55.473  1.00  0.00    -0.058 A 
HETATM   30  C   UNL     1       8.214  21.593  56.168  1.00  0.00     0.007 A 
HETATM   31  C   UNL     1       8.027  20.396  55.474  1.00  0.00     0.001 A 
HETATM   32  C   UNL     1       8.074  20.382  54.082  1.00  0.00     0.000 A 
HETATM   33  C   UNL     1       8.309  21.564  53.381  1.00  0.00     0.001 A 
HETATM   34  C   UNL     1       8.500  22.761  54.073  1.00  0.00     0.007 A 
ENDBRANCH  28  29
ENDBRANCH  27  28
ENDBRANCH  25  27
ENDBRANCH   2  21
TORSDOF 8
ENDMDL
