MODEL 1
REMARK VINA RESULT:     -10.0      0.000      0.000
REMARK  3 active torsions:
REMARK  status: ('A' for Active; 'I' for Inactive)
REMARK    1  A    between atoms: C_4  and  C_5 
REMARK    2  A    between atoms: C_9  and  C_10 
REMARK       I    between atoms: C_10  and  N_11 
REMARK    3  A    between atoms: N_11  and  N_12 
ROOT
HETATM    1  C   UNL     1       5.671  27.960  55.636  1.00  0.00     0.289 C 
HETATM    2  N   UNL     1       6.071  28.132  56.952  1.00  0.00    -0.241 N 
HETATM    3  O   UNL     1       5.243  28.851  54.910  1.00  0.00    -0.264 OA
HETATM    4  H   UNL     1       6.285  27.320  57.511  1.00  0.00     0.192 HD
ENDROOT
BRANCH   1   5
HETATM    5  C   UNL     1       5.853  26.614  55.146  1.00  0.00     0.121 A 
HETATM    6  N   UNL     1       5.049  26.092  54.172  1.00  0.00    -0.272 N 
HETATM    7  N   UNL     1       5.405  24.862  53.768  1.00  0.00    -0.174 NA
HETATM    8  H   UNL     1       4.261  26.552  53.723  1.00  0.00     0.189 HD
HETATM    9  C   UNL     1       6.454  24.540  54.541  1.00  0.00     0.089 A 
HETATM   10  C   UNL     1       6.755  25.608  55.431  1.00  0.00     0.071 A 
BRANCH   9  11
HETATM   11  C   UNL     1       7.165  23.268  54.403  1.00  0.00    -0.006 A 
HETATM   12  C   UNL     1       7.481  22.506  55.537  1.00  0.00     0.014 A 
HETATM   13  C   UNL     1       8.120  21.270  55.412  1.00  0.00     0.001 A 
HETATM   14  C   UNL     1       8.458  20.786  54.150  1.00  0.00     0.000 A 
HETATM   15  C   UNL     1       8.163  21.539  53.014  1.00  0.00     0.001 A 
HETATM   16  C   UNL     1       7.520  22.773  53.140  1.00  0.00     0.014 A 
ENDBRANCH   9  11
ENDBRANCH   1   5
BRANCH   2  17
HETATM   17  N   UNL     1       5.920  29.322  57.592  1.00  0.00    -0.165 NA
HETATM   18  C   UNL     1       6.985  30.000  57.888  1.00  0.00     0.157 A 
HETATM   19  C   UNL     1       6.920  31.246  58.797  1.00  0.00     0.277 A 
HETATM   20  C   UNL     1       8.406  29.839  57.539  1.00  0.00     0.027 A 
HETATM   21  O   UNL     1       5.926  31.751  59.265  1.00  0.00    -0.266 OA
HETATM   22  N   UNL     1       8.229  31.633  58.977  1.00  0.00    -0.321 N 
HETATM   23  C   UNL     1       9.094  30.829  58.245  1.00  0.00     0.048 A 
HETATM   24  H   UNL     1       8.486  32.434  59.534  1.00  0.00     0.169 HD
HETATM   25  C   UNL     1      10.464  30.972  58.158  1.00  0.00     0.030 A 
HETATM   26  C   UNL     1      11.153  30.097  57.315  1.00  0.00     0.002 A 
HETATM   27  C   UNL     1      10.463  29.123  56.569  1.00  0.00     0.001 A 
HETATM   28  C   UNL     1       9.073  28.996  56.668  1.00  0.00     0.016 A 
ENDBRANCH   2  17
TORSDOF 3
ENDMDL
MODEL 2
REMARK VINA RESULT:      -9.8      4.410      6.992
REMARK  3 active torsions:
REMARK  status: ('A' for Active; 'I' for Inactive)
REMARK    1  A    between atoms: C_4  and  C_5 
REMARK    2  A    between atoms: C_9  and  C_10 
REMARK       I    between atoms: C_10  and  N_11 
REMARK    3  A    between atoms: N_11  and  N_12 
ROOT
HETATM    1  C   UNL     1       6.946  27.700  53.612  1.00  0.00     0.289 C 
HETATM    2  N   UNL     1       6.481  26.747  54.505  1.00  0.00    -0.241 N 
HETATM    3  O   UNL     1       8.011  28.297  53.714  1.00  0.00    -0.264 OA
HETATM    4  H   UNL     1       5.536  26.406  54.413  1.00  0.00     0.192 HD
ENDROOT
BRANCH   1   5
HETATM    5  C   UNL     1       6.073  27.907  52.481  1.00  0.00     0.121 A 
HETATM    6  N   UNL     1       5.799  29.160  52.007  1.00  0.00    -0.272 N 
HETATM    7  N   UNL     1       5.042  29.174  50.899  1.00  0.00    -0.174 NA
HETATM    8  H   UNL     1       6.136  30.041  52.388  1.00  0.00     0.189 HD
HETATM    9  C   UNL     1       4.764  27.883  50.660  1.00  0.00     0.089 A 
HETATM   10  C   UNL     1       5.379  27.057  51.641  1.00  0.00     0.071 A 
BRANCH   9  11
HETATM   11  C   UNL     1       3.967  27.455  49.508  1.00  0.00    -0.006 A 
HETATM   12  C   UNL     1       4.357  26.341  48.752  1.00  0.00     0.014 A 
HETATM   13  C   UNL     1       3.579  25.899  47.679  1.00  0.00     0.001 A 
HETATM   14  C   UNL     1       2.407  26.573  47.345  1.00  0.00     0.000 A 
HETATM   15  C   UNL     1       2.013  27.690  48.079  1.00  0.00     0.001 A 
HETATM   16  C   UNL     1       2.789  28.129  49.155  1.00  0.00     0.014 A 
ENDBRANCH   9  11
ENDBRANCH   1   5
BRANCH   2  17
HETATM   17  N   UNL     1       7.149  26.465  55.656  1.00  0.00    -0.165 NA
HETATM   18  C   UNL     1       7.671  25.286  55.789  1.00  0.00     0.157 A 
HETATM   19  C   UNL     1       8.255  24.811  57.137  1.00  0.00     0.277 A 
HETATM   20  C   UNL     1       7.845  24.155  54.863  1.00  0.00     0.027 A 
HETATM   21  O   UNL     1       8.351  25.458  58.154  1.00  0.00    -0.266 OA
HETATM   22  N   UNL     1       8.612  23.496  56.935  1.00  0.00    -0.321 N 
HETATM   23  C   UNL     1       8.387  23.113  55.619  1.00  0.00     0.048 A 
HETATM   24  H   UNL     1       9.029  22.931  57.659  1.00  0.00     0.169 HD
HETATM   25  C   UNL     1       8.679  21.882  55.067  1.00  0.00     0.030 A 
HETATM   26  C   UNL     1       8.434  21.712  53.701  1.00  0.00     0.002 A 
HETATM   27  C   UNL     1       7.927  22.770  52.924  1.00  0.00     0.001 A 
HETATM   28  C   UNL     1       7.639  24.011  53.501  1.00  0.00     0.016 A 
ENDBRANCH   2  17
TORSDOF 3
ENDMDL
MODEL 3
REMARK VINA RESULT:      -9.7      5.477      7.726
REMARK  3 active torsions:
REMARK  status: ('A' for Active; 'I' for Inactive)
REMARK    1  A    between atoms: C_4  and  C_5 
REMARK    2  A    between atoms: C_9  and  C_10 
REMARK       I    between atoms: C_10  and  N_11 
REMARK    3  A    between atoms: N_11  and  N_12 
ROOT
HETATM    1  C   UNL     1       5.349  26.654  52.280  1.00  0.00     0.289 C 
HETATM    2  N   UNL     1       5.683  27.363  51.137  1.00  0.00    -0.241 N 
HETATM    3  O   UNL     1       4.424  26.933  53.034  1.00  0.00    -0.264 OA
HETATM    4  H   UNL     1       6.538  27.138  50.651  1.00  0.00     0.192 HD
ENDROOT
BRANCH   1   5
HETATM    5  C   UNL     1       6.168  25.485  52.496  1.00  0.00     0.121 A 
HETATM    6  N   UNL     1       7.310  25.268  51.777  1.00  0.00    -0.272 N 
HETATM    7  N   UNL     1       8.001  24.182  52.159  1.00  0.00    -0.174 NA
HETATM    8  H   UNL     1       7.681  25.854  51.034  1.00  0.00     0.189 HD
HETATM    9  C   UNL     1       7.261  23.633  53.135  1.00  0.00     0.089 A 
HETATM   10  C   UNL     1       6.093  24.412  53.364  1.00  0.00     0.071 A 
BRANCH   9  11
HETATM   11  C   UNL     1       7.679  22.425  53.848  1.00  0.00    -0.006 A 
HETATM   12  C   UNL     1       8.244  21.349  53.148  1.00  0.00     0.014 A 
HETATM   13  C   UNL     1       8.687  20.211  53.826  1.00  0.00     0.001 A 
HETATM   14  C   UNL     1       8.562  20.132  55.211  1.00  0.00     0.000 A 
HETATM   15  C   UNL     1       7.990  21.188  55.919  1.00  0.00     0.001 A 
HETATM   16  C   UNL     1       7.551  22.329  55.241  1.00  0.00     0.014 A 
ENDBRANCH   9  11
ENDBRANCH   1   5
BRANCH   2  17
HETATM   17  N   UNL     1       5.052  28.522  50.809  1.00  0.00    -0.165 NA
HETATM   18  C   UNL     1       4.258  28.520  49.784  1.00  0.00     0.157 A 
HETATM   19  C   UNL     1       3.672  29.830  49.215  1.00  0.00     0.277 A 
HETATM   20  C   UNL     1       3.733  27.446  48.923  1.00  0.00     0.027 A 
HETATM   21  O   UNL     1       3.819  30.944  49.662  1.00  0.00    -0.266 OA
HETATM   22  N   UNL     1       2.978  29.457  48.086  1.00  0.00    -0.321 N 
HETATM   23  C   UNL     1       3.001  28.079  47.916  1.00  0.00     0.048 A 
HETATM   24  H   UNL     1       2.485  30.122  47.509  1.00  0.00     0.169 HD
HETATM   25  C   UNL     1       2.365  27.370  46.917  1.00  0.00     0.030 A 
HETATM   26  C   UNL     1       2.458  25.976  46.956  1.00  0.00     0.002 A 
HETATM   27  C   UNL     1       3.159  25.329  47.990  1.00  0.00     0.001 A 
HETATM   28  C   UNL     1       3.795  26.065  48.995  1.00  0.00     0.016 A 
ENDBRANCH   2  17
TORSDOF 3
ENDMDL
MODEL 4
REMARK VINA RESULT:      -9.7      1.631      2.270
REMARK  3 active torsions:
REMARK  status: ('A' for Active; 'I' for Inactive)
REMARK    1  A    between atoms: C_4  and  C_5 
REMARK    2  A    between atoms: C_9  and  C_10 
REMARK       I    between atoms: C_10  and  N_11 
REMARK    3  A    between atoms: N_11  and  N_12 
ROOT
HETATM    1  C   UNL     1       5.361  27.143  54.273  1.00  0.00     0.289 C 
HETATM    2  N   UNL     1       4.947  27.234  55.593  1.00  0.00    -0.241 N 
HETATM    3  O   UNL     1       5.270  28.042  53.445  1.00  0.00    -0.264 OA
HETATM    4  H   UNL     1       4.940  26.404  56.165  1.00  0.00     0.192 HD
ENDROOT
BRANCH   1   5
HETATM    5  C   UNL     1       5.979  25.880  53.947  1.00  0.00     0.121 A 
HETATM    6  N   UNL     1       6.481  25.629  52.700  1.00  0.00    -0.272 N 
HETATM    7  N   UNL     1       7.100  24.443  52.586  1.00  0.00    -0.174 NA
HETATM    8  H   UNL     1       6.456  26.253  51.898  1.00  0.00     0.189 HD
HETATM    9  C   UNL     1       6.958  23.868  53.790  1.00  0.00     0.089 A 
HETATM   10  C   UNL     1       6.245  24.732  54.668  1.00  0.00     0.071 A 
BRANCH   9  11
HETATM   11  C   UNL     1       7.521  22.552  54.099  1.00  0.00    -0.006 A 
HETATM   12  C   UNL     1       8.020  21.736  53.074  1.00  0.00     0.014 A 
HETATM   13  C   UNL     1       8.598  20.498  53.365  1.00  0.00     0.001 A 
HETATM   14  C   UNL     1       8.677  20.059  54.685  1.00  0.00     0.000 A 
HETATM   15  C   UNL     1       8.173  20.853  55.713  1.00  0.00     0.001 A 
HETATM   16  C   UNL     1       7.598  22.093  55.423  1.00  0.00     0.014 A 
ENDBRANCH   9  11
ENDBRANCH   1   5
BRANCH   2  17
HETATM   17  N   UNL     1       4.295  28.333  56.059  1.00  0.00    -0.165 NA
HETATM   18  C   UNL     1       4.940  29.148  56.833  1.00  0.00     0.157 A 
HETATM   19  C   UNL     1       4.221  30.294  57.576  1.00  0.00     0.277 A 
HETATM   20  C   UNL     1       6.354  29.244  57.234  1.00  0.00     0.027 A 
HETATM   21  O   UNL     1       3.053  30.597  57.486  1.00  0.00    -0.266 OA
HETATM   22  N   UNL     1       5.184  30.871  58.373  1.00  0.00    -0.321 N 
HETATM   23  C   UNL     1       6.422  30.275  58.174  1.00  0.00     0.048 A 
HETATM   24  H   UNL     1       4.989  31.658  58.974  1.00  0.00     0.169 HD
HETATM   25  C   UNL     1       7.610  30.642  58.774  1.00  0.00     0.030 A 
HETATM   26  C   UNL     1       8.765  29.955  58.392  1.00  0.00     0.002 A 
HETATM   27  C   UNL     1       8.712  28.943  57.415  1.00  0.00     0.001 A 
HETATM   28  C   UNL     1       7.499  28.587  56.817  1.00  0.00     0.016 A 
ENDBRANCH   2  17
TORSDOF 3
ENDMDL
MODEL 5
REMARK VINA RESULT:      -9.7      4.271      6.675
REMARK  3 active torsions:
REMARK  status: ('A' for Active; 'I' for Inactive)
REMARK    1  A    between atoms: C_4  and  C_5 
REMARK    2  A    between atoms: C_9  and  C_10 
REMARK       I    between atoms: C_10  and  N_11 
REMARK    3  A    between atoms: N_11  and  N_12 
ROOT
HETATM    1  C   UNL     1       7.160  27.586  53.454  1.00  0.00     0.289 C 
HETATM    2  N   UNL     1       6.108  27.875  52.598  1.00  0.00    -0.241 N 
HETATM    3  O   UNL     1       8.006  28.391  53.824  1.00  0.00    -0.264 OA
HETATM    4  H   UNL     1       5.538  27.121  52.245  1.00  0.00     0.192 HD
ENDROOT
BRANCH   1   5
HETATM    5  C   UNL     1       7.153  26.226  53.938  1.00  0.00     0.121 A 
HETATM    6  N   UNL     1       6.288  25.818  54.916  1.00  0.00    -0.272 N 
HETATM    7  N   UNL     1       6.351  24.505  55.191  1.00  0.00    -0.174 NA
HETATM    8  H   UNL     1       5.608  26.394  55.404  1.00  0.00     0.189 HD
HETATM    9  C   UNL     1       7.329  24.038  54.400  1.00  0.00     0.089 A 
HETATM   10  C   UNL     1       7.869  25.091  53.610  1.00  0.00     0.071 A 
BRANCH   9  11
HETATM   11  C   UNL     1       7.705  22.623  54.375  1.00  0.00    -0.006 A 
HETATM   12  C   UNL     1       7.986  21.986  53.158  1.00  0.00     0.014 A 
HETATM   13  C   UNL     1       8.389  20.649  53.128  1.00  0.00     0.001 A 
HETATM   14  C   UNL     1       8.507  19.931  54.316  1.00  0.00     0.000 A 
HETATM   15  C   UNL     1       8.218  20.547  55.533  1.00  0.00     0.001 A 
HETATM   16  C   UNL     1       7.819  21.886  55.562  1.00  0.00     0.014 A 
ENDBRANCH   9  11
ENDBRANCH   1   5
BRANCH   2  17
HETATM   17  N   UNL     1       5.989  29.093  52.004  1.00  0.00    -0.165 NA
HETATM   18  C   UNL     1       5.596  29.138  50.770  1.00  0.00     0.157 A 
HETATM   19  C   UNL     1       5.640  30.450  49.957  1.00  0.00     0.277 A 
HETATM   20  C   UNL     1       5.075  28.118  49.844  1.00  0.00     0.027 A 
HETATM   21  O   UNL     1       5.964  31.543  50.362  1.00  0.00    -0.266 OA
HETATM   22  N   UNL     1       5.260  30.100  48.681  1.00  0.00    -0.321 N 
HETATM   23  C   UNL     1       4.923  28.755  48.610  1.00  0.00     0.048 A 
HETATM   24  H   UNL     1       5.196  30.772  47.931  1.00  0.00     0.169 HD
HETATM   25  C   UNL     1       4.452  28.089  47.496  1.00  0.00     0.030 A 
HETATM   26  C   UNL     1       4.108  26.743  47.646  1.00  0.00     0.002 A 
HETATM   27  C   UNL     1       4.219  26.105  48.895  1.00  0.00     0.001 A 
HETATM   28  C   UNL     1       4.695  26.798  50.014  1.00  0.00     0.016 A 
ENDBRANCH   2  17
TORSDOF 3
ENDMDL
MODEL 6
REMARK VINA RESULT:      -9.4      4.847     10.367
REMARK  3 active torsions:
REMARK  status: ('A' for Active; 'I' for Inactive)
REMARK    1  A    between atoms: C_4  and  C_5 
REMARK    2  A    between atoms: C_9  and  C_10 
REMARK       I    between atoms: C_10  and  N_11 
REMARK    3  A    between atoms: N_11  and  N_12 
ROOT
HETATM    1  C   UNL     1       8.934  31.241  61.362  1.00  0.00     0.289 C 
HETATM    2  N   UNL     1       9.077  31.909  60.155  1.00  0.00    -0.241 N 
HETATM    3  O   UNL     1       9.627  30.300  61.729  1.00  0.00    -0.264 OA
HETATM    4  H   UNL     1       8.380  32.584  59.880  1.00  0.00     0.192 HD
ENDROOT
BRANCH   1   5
HETATM    5  C   UNL     1       7.905  31.793  62.209  1.00  0.00     0.121 A 
HETATM    6  N   UNL     1       6.579  31.549  61.979  1.00  0.00    -0.272 N 
HETATM    7  N   UNL     1       5.757  32.062  62.907  1.00  0.00    -0.174 NA
HETATM    8  H   UNL     1       6.186  31.004  61.215  1.00  0.00     0.189 HD
HETATM    9  C   UNL     1       6.567  32.713  63.757  1.00  0.00     0.089 A 
HETATM   10  C   UNL     1       7.922  32.582  63.344  1.00  0.00     0.071 A 
BRANCH   9  11
HETATM   11  C   UNL     1       6.061  33.404  64.945  1.00  0.00    -0.006 A 
HETATM   12  C   UNL     1       4.692  33.673  65.078  1.00  0.00     0.014 A 
HETATM   13  C   UNL     1       4.195  34.292  66.228  1.00  0.00     0.001 A 
HETATM   14  C   UNL     1       5.064  34.656  67.254  1.00  0.00     0.000 A 
HETATM   15  C   UNL     1       6.430  34.406  67.130  1.00  0.00     0.001 A 
HETATM   16  C   UNL     1       6.926  33.783  65.982  1.00  0.00     0.014 A 
ENDBRANCH   9  11
ENDBRANCH   1   5
BRANCH   2  17
HETATM   17  N   UNL     1       9.962  31.490  59.211  1.00  0.00    -0.165 NA
HETATM   18  C   UNL     1       9.524  30.743  58.246  1.00  0.00     0.157 A 
HETATM   19  C   UNL     1      10.490  30.051  57.261  1.00  0.00     0.277 A 
HETATM   20  C   UNL     1       8.173  30.334  57.828  1.00  0.00     0.027 A 
HETATM   21  O   UNL     1      11.694  30.162  57.226  1.00  0.00    -0.266 OA
HETATM   22  N   UNL     1       9.690  29.268  56.458  1.00  0.00    -0.321 N 
HETATM   23  C   UNL     1       8.348  29.434  56.774  1.00  0.00     0.048 A 
HETATM   24  H   UNL     1      10.062  28.700  55.712  1.00  0.00     0.169 HD
HETATM   25  C   UNL     1       7.280  28.839  56.134  1.00  0.00     0.030 A 
HETATM   26  C   UNL     1       5.995  29.185  56.563  1.00  0.00     0.002 A 
HETATM   27  C   UNL     1       5.809  30.122  57.596  1.00  0.00     0.001 A 
HETATM   28  C   UNL     1       6.905  30.717  58.231  1.00  0.00     0.016 A 
ENDBRANCH   2  17
TORSDOF 3
ENDMDL
MODEL 7
REMARK VINA RESULT:      -9.2      2.206      8.188
REMARK  3 active torsions:
REMARK  status: ('A' for Active; 'I' for Inactive)
REMARK    1  A    between atoms: C_4  and  C_5 
REMARK    2  A    between atoms: C_9  and  C_10 
REMARK       I    between atoms: C_10  and  N_11 
REMARK    3  A    between atoms: N_11  and  N_12 
ROOT
HETATM    1  C   UNL     1       7.704  28.328  55.341  1.00  0.00     0.289 C 
HETATM    2  N   UNL     1       6.560  27.561  55.503  1.00  0.00    -0.241 N 
HETATM    3  O   UNL     1       8.281  28.511  54.275  1.00  0.00    -0.264 OA
HETATM    4  H   UNL     1       6.231  27.360  56.435  1.00  0.00     0.192 HD
ENDROOT
BRANCH   1   5
HETATM    5  C   UNL     1       8.150  28.966  56.557  1.00  0.00     0.121 A 
HETATM    6  N   UNL     1       9.479  29.092  56.853  1.00  0.00    -0.272 N 
HETATM    7  N   UNL     1       9.727  29.784  57.976  1.00  0.00    -0.174 NA
HETATM    8  H   UNL     1      10.260  28.750  56.299  1.00  0.00     0.189 HD
HETATM    9  C   UNL     1       8.515  30.084  58.466  1.00  0.00     0.089 A 
HETATM   10  C   UNL     1       7.498  29.573  57.613  1.00  0.00     0.071 A 
BRANCH   9  11
HETATM   11  C   UNL     1       8.338  30.867  59.691  1.00  0.00    -0.006 A 
HETATM   12  C   UNL     1       7.237  31.723  59.832  1.00  0.00     0.014 A 
HETATM   13  C   UNL     1       7.037  32.440  61.015  1.00  0.00     0.001 A 
HETATM   14  C   UNL     1       7.942  32.314  62.066  1.00  0.00     0.000 A 
HETATM   15  C   UNL     1       9.049  31.477  61.936  1.00  0.00     0.001 A 
HETATM   16  C   UNL     1       9.246  30.757  60.755  1.00  0.00     0.014 A 
ENDBRANCH   9  11
ENDBRANCH   1   5
BRANCH   2  17
HETATM   17  N   UNL     1       6.032  26.846  54.474  1.00  0.00    -0.165 NA
HETATM   18  C   UNL     1       6.386  25.606  54.343  1.00  0.00     0.157 A 
HETATM   19  C   UNL     1       6.006  24.788  53.090  1.00  0.00     0.277 A 
HETATM   20  C   UNL     1       7.167  24.689  55.191  1.00  0.00     0.027 A 
HETATM   21  O   UNL     1       5.322  25.156  52.163  1.00  0.00    -0.266 OA
HETATM   22  N   UNL     1       6.634  23.572  53.247  1.00  0.00    -0.321 N 
HETATM   23  C   UNL     1       7.299  23.505  54.463  1.00  0.00     0.048 A 
HETATM   24  H   UNL     1       6.555  22.830  52.567  1.00  0.00     0.169 HD
HETATM   25  C   UNL     1       7.987  22.414  54.958  1.00  0.00     0.030 A 
HETATM   26  C   UNL     1       8.538  22.525  56.238  1.00  0.00     0.002 A 
HETATM   27  C   UNL     1       8.374  23.700  56.994  1.00  0.00     0.001 A 
HETATM   28  C   UNL     1       7.671  24.794  56.476  1.00  0.00     0.016 A 
ENDBRANCH   2  17
TORSDOF 3
ENDMDL
MODEL 8
REMARK VINA RESULT:      -8.9      2.381      3.331
REMARK  3 active torsions:
REMARK  status: ('A' for Active; 'I' for Inactive)
REMARK    1  A    between atoms: C_4  and  C_5 
REMARK    2  A    between atoms: C_9  and  C_10 
REMARK       I    between atoms: C_10  and  N_11 
REMARK    3  A    between atoms: N_11  and  N_12 
ROOT
HETATM    1  C   UNL     1       5.809  30.104  56.650  1.00  0.00     0.289 C 
HETATM    2  N   UNL     1       5.777  30.339  58.015  1.00  0.00    -0.241 N 
HETATM    3  O   UNL     1       5.521  30.927  55.788  1.00  0.00    -0.264 OA
HETATM    4  H   UNL     1       5.902  29.566  58.651  1.00  0.00     0.192 HD
ENDROOT
BRANCH   1   5
HETATM    5  C   UNL     1       6.276  28.783  56.301  1.00  0.00     0.121 A 
HETATM    6  N   UNL     1       6.423  27.803  57.244  1.00  0.00    -0.272 N 
HETATM    7  N   UNL     1       6.782  26.610  56.744  1.00  0.00    -0.174 NA
HETATM    8  H   UNL     1       6.255  27.891  58.243  1.00  0.00     0.189 HD
HETATM    9  C   UNL     1       6.927  26.823  55.427  1.00  0.00     0.089 A 
HETATM   10  C   UNL     1       6.634  28.179  55.111  1.00  0.00     0.071 A 
BRANCH   9  11
HETATM   11  C   UNL     1       7.295  25.753  54.498  1.00  0.00    -0.006 A 
HETATM   12  C   UNL     1       7.311  24.417  54.926  1.00  0.00     0.014 A 
HETATM   13  C   UNL     1       7.618  23.386  54.035  1.00  0.00     0.001 A 
HETATM   14  C   UNL     1       7.921  23.680  52.707  1.00  0.00     0.000 A 
HETATM   15  C   UNL     1       7.922  25.003  52.270  1.00  0.00     0.001 A 
HETATM   16  C   UNL     1       7.610  26.035  53.160  1.00  0.00     0.014 A 
ENDBRANCH   9  11
ENDBRANCH   1   5
BRANCH   2  17
HETATM   17  N   UNL     1       5.310  31.511  58.524  1.00  0.00    -0.165 NA
HETATM   18  C   UNL     1       5.907  32.011  59.561  1.00  0.00     0.157 A 
HETATM   19  C   UNL     1       5.317  33.214  60.328  1.00  0.00     0.277 A 
HETATM   20  C   UNL     1       7.145  31.656  60.275  1.00  0.00     0.027 A 
HETATM   21  O   UNL     1       4.324  33.841  60.041  1.00  0.00    -0.266 OA
HETATM   22  N   UNL     1       6.146  33.394  61.413  1.00  0.00    -0.321 N 
HETATM   23  C   UNL     1       7.210  32.503  61.384  1.00  0.00     0.048 A 
HETATM   24  H   UNL     1       5.997  34.125  62.093  1.00  0.00     0.169 HD
HETATM   25  C   UNL     1       8.251  32.445  62.289  1.00  0.00     0.030 A 
HETATM   26  C   UNL     1       9.264  31.513  62.049  1.00  0.00     0.002 A 
HETATM   27  C   UNL     1       9.227  30.684  60.913  1.00  0.00     0.001 A 
HETATM   28  C   UNL     1       8.165  30.760  60.005  1.00  0.00     0.016 A 
ENDBRANCH   2  17
TORSDOF 3
ENDMDL
MODEL 9
REMARK VINA RESULT:      -8.5      5.708      8.216
REMARK  3 active torsions:
REMARK  status: ('A' for Active; 'I' for Inactive)
REMARK    1  A    between atoms: C_4  and  C_5 
REMARK    2  A    between atoms: C_9  and  C_10 
REMARK       I    between atoms: C_10  and  N_11 
REMARK    3  A    between atoms: N_11  and  N_12 
ROOT
HETATM    1  C   UNL     1       5.282  28.368  51.568  1.00  0.00     0.289 C 
HETATM    2  N   UNL     1       5.481  28.366  50.196  1.00  0.00    -0.241 N 
HETATM    3  O   UNL     1       4.950  29.346  52.228  1.00  0.00    -0.264 OA
HETATM    4  H   UNL     1       5.881  27.550  49.758  1.00  0.00     0.192 HD
ENDROOT
BRANCH   1   5
HETATM    5  C   UNL     1       5.449  27.070  52.178  1.00  0.00     0.121 A 
HETATM    6  N   UNL     1       4.393  26.219  52.351  1.00  0.00    -0.272 N 
HETATM    7  N   UNL     1       4.731  25.020  52.852  1.00  0.00    -0.174 NA
HETATM    8  H   UNL     1       3.422  26.398  52.108  1.00  0.00     0.189 HD
HETATM    9  C   UNL     1       6.053  25.101  53.065  1.00  0.00     0.089 A 
HETATM   10  C   UNL     1       6.539  26.379  52.671  1.00  0.00     0.071 A 
BRANCH   9  11
HETATM   11  C   UNL     1       6.830  23.978  53.593  1.00  0.00    -0.006 A 
HETATM   12  C   UNL     1       7.589  23.173  52.730  1.00  0.00     0.014 A 
HETATM   13  C   UNL     1       8.367  22.127  53.231  1.00  0.00     0.001 A 
HETATM   14  C   UNL     1       8.390  21.868  54.599  1.00  0.00     0.000 A 
HETATM   15  C   UNL     1       7.630  22.651  55.468  1.00  0.00     0.001 A 
HETATM   16  C   UNL     1       6.855  23.700  54.968  1.00  0.00     0.014 A 
ENDBRANCH   9  11
ENDBRANCH   1   5
BRANCH   2  17
HETATM   17  N   UNL     1       5.419  29.513  49.467  1.00  0.00    -0.165 NA
HETATM   18  C   UNL     1       4.462  29.639  48.602  1.00  0.00     0.157 A 
HETATM   19  C   UNL     1       4.440  30.803  47.588  1.00  0.00     0.277 A 
HETATM   20  C   UNL     1       3.262  28.838  48.309  1.00  0.00     0.027 A 
HETATM   21  O   UNL     1       5.227  31.719  47.519  1.00  0.00    -0.266 OA
HETATM   22  N   UNL     1       3.358  30.556  46.774  1.00  0.00    -0.321 N 
HETATM   23  C   UNL     1       2.666  29.426  47.190  1.00  0.00     0.048 A 
HETATM   24  H   UNL     1       3.100  31.167  46.014  1.00  0.00     0.169 HD
HETATM   25  C   UNL     1       1.508  28.926  46.630  1.00  0.00     0.030 A 
HETATM   26  C   UNL     1       0.927  27.808  47.236  1.00  0.00     0.002 A 
HETATM   27  C   UNL     1       1.498  27.235  48.388  1.00  0.00     0.001 A 
HETATM   28  C   UNL     1       2.671  27.758  48.943  1.00  0.00     0.016 A 
ENDBRANCH   2  17
TORSDOF 3
ENDMDL
MODEL 10
REMARK VINA RESULT:      -8.4      4.324      6.714
REMARK  3 active torsions:
REMARK  status: ('A' for Active; 'I' for Inactive)
REMARK    1  A    between atoms: C_4  and  C_5 
REMARK    2  A    between atoms: C_9  and  C_10 
REMARK       I    between atoms: C_10  and  N_11 
REMARK    3  A    between atoms: N_11  and  N_12 
ROOT
HETATM    1  C   UNL     1       4.696  27.722  54.208  1.00  0.00     0.289 C 
HETATM    2  N   UNL     1       4.432  27.908  52.859  1.00  0.00    -0.241 N 
HETATM    3  O   UNL     1       4.152  28.333  55.120  1.00  0.00    -0.264 OA
HETATM    4  H   UNL     1       5.020  27.456  52.176  1.00  0.00     0.192 HD
ENDROOT
BRANCH   1   5
HETATM    5  C   UNL     1       5.656  26.677  54.470  1.00  0.00     0.121 A 
HETATM    6  N   UNL     1       6.353  26.623  55.645  1.00  0.00    -0.272 N 
HETATM    7  N   UNL     1       7.141  25.543  55.767  1.00  0.00    -0.174 NA
HETATM    8  H   UNL     1       6.300  27.286  56.414  1.00  0.00     0.189 HD
HETATM    9  C   UNL     1       6.996  24.883  54.607  1.00  0.00     0.089 A 
HETATM   10  C   UNL     1       6.085  25.572  53.759  1.00  0.00     0.071 A 
BRANCH   9  11
HETATM   11  C   UNL     1       7.678  23.617  54.338  1.00  0.00    -0.006 A 
HETATM   12  C   UNL     1       8.675  23.150  55.206  1.00  0.00     0.014 A 
HETATM   13  C   UNL     1       9.300  21.921  54.981  1.00  0.00     0.001 A 
HETATM   14  C   UNL     1       8.940  21.148  53.879  1.00  0.00     0.000 A 
HETATM   15  C   UNL     1       7.961  21.605  52.999  1.00  0.00     0.001 A 
HETATM   16  C   UNL     1       7.332  22.832  53.227  1.00  0.00     0.014 A 
ENDBRANCH   9  11
ENDBRANCH   1   5
BRANCH   2  17
HETATM   17  N   UNL     1       3.593  28.888  52.427  1.00  0.00    -0.165 NA
HETATM   18  C   UNL     1       3.422  29.031  51.150  1.00  0.00     0.157 A 
HETATM   19  C   UNL     1       2.664  30.243  50.570  1.00  0.00     0.277 A 
HETATM   20  C   UNL     1       3.840  28.232  49.986  1.00  0.00     0.027 A 
HETATM   21  O   UNL     1       2.114  31.122  51.194  1.00  0.00    -0.266 OA
HETATM   22  N   UNL     1       2.773  30.120  49.203  1.00  0.00    -0.321 N 
HETATM   23  C   UNL     1       3.444  28.954  48.858  1.00  0.00     0.048 A 
HETATM   24  H   UNL     1       2.362  30.784  48.564  1.00  0.00     0.169 HD
HETATM   25  C   UNL     1       3.682  28.498  47.576  1.00  0.00     0.030 A 
HETATM   26  C   UNL     1       4.323  27.264  47.438  1.00  0.00     0.002 A 
HETATM   27  C   UNL     1       4.687  26.511  48.570  1.00  0.00     0.001 A 
HETATM   28  C   UNL     1       4.435  26.989  49.861  1.00  0.00     0.016 A 
ENDBRANCH   2  17
TORSDOF 3
ENDMDL
