MODEL 1
REMARK VINA RESULT:      -9.4      0.000      0.000
REMARK  4 active torsions:
REMARK  status: ('A' for Active; 'I' for Inactive)
REMARK    1  A    between atoms: C_4  and  N_5 
REMARK       I    between atoms: N_5  and  C_6 
REMARK       I    between atoms: C_6  and  N_7 
REMARK    2  A    between atoms: N_7  and  C_8 
REMARK    3  A    between atoms: C_8  and  C_9 
REMARK    4  A    between atoms: C_12  and  C_13 
ROOT
HETATM    1  N   UNL     1       6.494  28.654  57.782  1.00  0.00    -0.309 N 
HETATM    2  C   UNL     1       5.965  27.981  56.728  1.00  0.00     0.321 C 
HETATM    3  N   UNL     1       6.443  28.246  55.487  1.00  0.00    -0.335 N 
HETATM    4  O   UNL     1       5.044  27.188  56.922  1.00  0.00    -0.247 OA
HETATM    5  H   UNL     1       5.940  28.497  58.615  1.00  0.00     0.170 HD
HETATM    6  H   UNL     1       6.757  29.197  55.342  1.00  0.00     0.164 HD
ENDROOT
BRANCH   3   7
HETATM    7  C   UNL     1       5.824  27.608  54.343  1.00  0.00     0.213 C 
BRANCH   7   8
HETATM    8  C   UNL     1       6.534  26.354  54.000  1.00  0.00     0.190 A 
HETATM    9  O   UNL     1       7.436  26.437  52.982  1.00  0.00    -0.194 OA
HETATM   10  N   UNL     1       7.994  25.173  52.841  1.00  0.00    -0.106 NA
HETATM   11  C   UNL     1       7.379  24.440  53.785  1.00  0.00     0.189 A 
HETATM   12  N   UNL     1       6.462  25.153  54.534  1.00  0.00    -0.202 NA
BRANCH  11  13
HETATM   13  C   UNL     1       7.651  23.023  54.013  1.00  0.00     0.014 A 
HETATM   14  C   UNL     1       7.587  22.487  55.307  1.00  0.00     0.015 A 
HETATM   15  C   UNL     1       7.848  21.131  55.530  1.00  0.00     0.001 A 
HETATM   16  C   UNL     1       8.174  20.298  54.461  1.00  0.00     0.000 A 
HETATM   17  C   UNL     1       8.242  20.816  53.170  1.00  0.00     0.001 A 
HETATM   18  C   UNL     1       7.982  22.171  52.947  1.00  0.00     0.015 A 
ENDBRANCH  11  13
ENDBRANCH   7   8
ENDBRANCH   3   7
BRANCH   1  19
HETATM   19  C   UNL     1       7.643  29.448  57.947  1.00  0.00     0.036 A 
HETATM   20  C   UNL     1       8.905  29.146  57.428  1.00  0.00     0.036 A 
HETATM   21  C   UNL     1       9.996  30.006  57.639  1.00  0.00    -0.060 A 
HETATM   22  C   UNL     1      11.352  29.658  57.098  1.00  0.00     0.048 C 
HETATM   23  C   UNL     1       9.824  31.154  58.419  1.00  0.00     0.007 A 
HETATM   24  C   UNL     1       8.580  31.448  58.967  1.00  0.00     0.003 A 
HETATM   25  C   UNL     1       7.498  30.599  58.733  1.00  0.00     0.029 A 
ENDBRANCH   1  19
TORSDOF 4
ENDMDL
MODEL 2
REMARK VINA RESULT:      -9.2      4.580      7.613
REMARK  4 active torsions:
REMARK  status: ('A' for Active; 'I' for Inactive)
REMARK    1  A    between atoms: C_4  and  N_5 
REMARK       I    between atoms: N_5  and  C_6 
REMARK       I    between atoms: C_6  and  N_7 
REMARK    2  A    between atoms: N_7  and  C_8 
REMARK    3  A    between atoms: C_8  and  C_9 
REMARK    4  A    between atoms: C_12  and  C_13 
ROOT
HETATM    1  N   UNL     1       4.381  28.411  49.922  1.00  0.00    -0.309 N 
HETATM    2  C   UNL     1       4.897  28.154  51.151  1.00  0.00     0.321 C 
HETATM    3  N   UNL     1       4.500  27.027  51.794  1.00  0.00    -0.335 N 
HETATM    4  O   UNL     1       5.669  28.964  51.661  1.00  0.00    -0.247 OA
HETATM    5  H   UNL     1       4.617  29.353  49.630  1.00  0.00     0.170 HD
HETATM    6  H   UNL     1       3.552  26.732  51.599  1.00  0.00     0.164 HD
ENDROOT
BRANCH   3   7
HETATM    7  C   UNL     1       4.966  26.787  53.145  1.00  0.00     0.213 C 
BRANCH   7   8
HETATM    8  C   UNL     1       5.950  25.680  53.166  1.00  0.00     0.190 A 
HETATM    9  O   UNL     1       7.078  25.868  52.426  1.00  0.00    -0.194 OA
HETATM   10  N   UNL     1       7.862  24.735  52.600  1.00  0.00    -0.106 NA
HETATM   11  C   UNL     1       7.138  23.964  53.430  1.00  0.00     0.189 A 
HETATM   12  N   UNL     1       5.936  24.531  53.809  1.00  0.00    -0.202 NA
BRANCH  11  13
HETATM   13  C   UNL     1       7.573  22.651  53.900  1.00  0.00     0.014 A 
HETATM   14  C   UNL     1       7.991  21.673  52.986  1.00  0.00     0.015 A 
HETATM   15  C   UNL     1       8.407  20.414  53.432  1.00  0.00     0.001 A 
HETATM   16  C   UNL     1       8.410  20.122  54.794  1.00  0.00     0.000 A 
HETATM   17  C   UNL     1       7.997  21.083  55.714  1.00  0.00     0.001 A 
HETATM   18  C   UNL     1       7.581  22.341  55.269  1.00  0.00     0.015 A 
ENDBRANCH  11  13
ENDBRANCH   7   8
ENDBRANCH   3   7
BRANCH   1  19
HETATM   19  C   UNL     1       3.661  27.641  48.992  1.00  0.00     0.036 A 
HETATM   20  C   UNL     1       2.405  27.977  48.479  1.00  0.00     0.036 A 
HETATM   21  C   UNL     1       1.762  27.146  47.545  1.00  0.00    -0.060 A 
HETATM   22  C   UNL     1       0.402  27.504  47.020  1.00  0.00     0.048 C 
HETATM   23  C   UNL     1       2.370  25.946  47.161  1.00  0.00     0.007 A 
HETATM   24  C   UNL     1       3.606  25.587  47.689  1.00  0.00     0.003 A 
HETATM   25  C   UNL     1       4.244  26.429  48.601  1.00  0.00     0.029 A 
ENDBRANCH   1  19
TORSDOF 4
ENDMDL
MODEL 3
REMARK VINA RESULT:      -9.1      1.582      8.210
REMARK  4 active torsions:
REMARK  status: ('A' for Active; 'I' for Inactive)
REMARK    1  A    between atoms: C_4  and  N_5 
REMARK       I    between atoms: N_5  and  C_6 
REMARK       I    between atoms: C_6  and  N_7 
REMARK    2  A    between atoms: N_7  and  C_8 
REMARK    3  A    between atoms: C_8  and  C_9 
REMARK    4  A    between atoms: C_12  and  C_13 
ROOT
HETATM    1  N   UNL     1       5.989  24.802  54.200  1.00  0.00    -0.309 N 
HETATM    2  C   UNL     1       6.222  26.138  54.156  1.00  0.00     0.321 C 
HETATM    3  N   UNL     1       7.471  26.585  54.437  1.00  0.00    -0.335 N 
HETATM    4  O   UNL     1       5.290  26.903  53.908  1.00  0.00    -0.247 OA
HETATM    5  H   UNL     1       4.994  24.614  54.146  1.00  0.00     0.170 HD
HETATM    6  H   UNL     1       7.985  26.030  55.107  1.00  0.00     0.164 HD
ENDROOT
BRANCH   3   7
HETATM    7  C   UNL     1       7.713  28.013  54.488  1.00  0.00     0.213 C 
BRANCH   7   8
HETATM    8  C   UNL     1       7.844  28.469  55.891  1.00  0.00     0.190 A 
HETATM    9  O   UNL     1       7.903  27.489  56.835  1.00  0.00    -0.194 OA
HETATM   10  N   UNL     1       8.043  28.126  58.061  1.00  0.00    -0.106 NA
HETATM   11  C   UNL     1       8.057  29.433  57.748  1.00  0.00     0.189 A 
HETATM   12  N   UNL     1       7.941  29.682  56.394  1.00  0.00    -0.202 NA
BRANCH  11  13
HETATM   13  C   UNL     1       8.190  30.499  58.737  1.00  0.00     0.014 A 
HETATM   14  C   UNL     1       7.067  31.238  59.139  1.00  0.00     0.015 A 
HETATM   15  C   UNL     1       7.190  32.261  60.085  1.00  0.00     0.001 A 
HETATM   16  C   UNL     1       8.435  32.555  60.637  1.00  0.00     0.000 A 
HETATM   17  C   UNL     1       9.558  31.831  60.247  1.00  0.00     0.001 A 
HETATM   18  C   UNL     1       9.437  30.809  59.303  1.00  0.00     0.015 A 
ENDBRANCH  11  13
ENDBRANCH   7   8
ENDBRANCH   3   7
BRANCH   1  19
HETATM   19  C   UNL     1       6.826  23.673  54.251  1.00  0.00     0.036 A 
HETATM   20  C   UNL     1       7.217  23.020  55.423  1.00  0.00     0.036 A 
HETATM   21  C   UNL     1       8.053  21.891  55.374  1.00  0.00    -0.060 A 
HETATM   22  C   UNL     1       8.487  21.213  56.641  1.00  0.00     0.048 C 
HETATM   23  C   UNL     1       8.535  21.446  54.139  1.00  0.00     0.007 A 
HETATM   24  C   UNL     1       8.178  22.108  52.969  1.00  0.00     0.003 A 
HETATM   25  C   UNL     1       7.330  23.215  53.026  1.00  0.00     0.029 A 
ENDBRANCH   1  19
TORSDOF 4
ENDMDL
MODEL 4
REMARK VINA RESULT:      -9.1      2.360      3.692
REMARK  4 active torsions:
REMARK  status: ('A' for Active; 'I' for Inactive)
REMARK    1  A    between atoms: C_4  and  N_5 
REMARK       I    between atoms: N_5  and  C_6 
REMARK       I    between atoms: C_6  and  N_7 
REMARK    2  A    between atoms: N_7  and  C_8 
REMARK    3  A    between atoms: C_8  and  C_9 
REMARK    4  A    between atoms: C_12  and  C_13 
ROOT
HETATM    1  N   UNL     1       6.580  31.959  58.564  1.00  0.00    -0.309 N 
HETATM    2  C   UNL     1       5.870  30.987  57.938  1.00  0.00     0.321 C 
HETATM    3  N   UNL     1       6.246  29.696  58.116  1.00  0.00    -0.335 N 
HETATM    4  O   UNL     1       4.939  31.305  57.197  1.00  0.00    -0.247 OA
HETATM    5  H   UNL     1       6.313  32.872  58.216  1.00  0.00     0.170 HD
HETATM    6  H   UNL     1       7.237  29.553  58.255  1.00  0.00     0.164 HD
ENDROOT
BRANCH   3   7
HETATM    7  C   UNL     1       5.558  28.655  57.378  1.00  0.00     0.213 C 
BRANCH   7   8
HETATM    8  C   UNL     1       6.476  27.530  57.088  1.00  0.00     0.190 A 
HETATM    9  O   UNL     1       7.517  27.369  57.951  1.00  0.00    -0.194 OA
HETATM   10  N   UNL     1       8.231  26.262  57.512  1.00  0.00    -0.106 NA
HETATM   11  C   UNL     1       7.558  25.853  56.423  1.00  0.00     0.189 A 
HETATM   12  N   UNL     1       6.448  26.623  56.133  1.00  0.00    -0.202 NA
BRANCH  11  13
HETATM   13  C   UNL     1       7.948  24.699  55.617  1.00  0.00     0.014 A 
HETATM   14  C   UNL     1       7.528  24.590  54.284  1.00  0.00     0.015 A 
HETATM   15  C   UNL     1       7.899  23.486  53.509  1.00  0.00     0.001 A 
HETATM   16  C   UNL     1       8.694  22.483  54.059  1.00  0.00     0.000 A 
HETATM   17  C   UNL     1       9.119  22.577  55.381  1.00  0.00     0.001 A 
HETATM   18  C   UNL     1       8.748  23.680  56.157  1.00  0.00     0.015 A 
ENDBRANCH  11  13
ENDBRANCH   7   8
ENDBRANCH   3   7
BRANCH   1  19
HETATM   19  C   UNL     1       7.535  31.949  59.597  1.00  0.00     0.036 A 
HETATM   20  C   UNL     1       7.252  32.166  60.948  1.00  0.00     0.036 A 
HETATM   21  C   UNL     1       8.273  32.130  61.913  1.00  0.00    -0.060 A 
HETATM   22  C   UNL     1       7.962  32.388  63.359  1.00  0.00     0.048 C 
HETATM   23  C   UNL     1       9.595  31.922  61.506  1.00  0.00     0.007 A 
HETATM   24  C   UNL     1       9.892  31.737  60.160  1.00  0.00     0.003 A 
HETATM   25  C   UNL     1       8.868  31.753  59.212  1.00  0.00     0.029 A 
ENDBRANCH   1  19
TORSDOF 4
ENDMDL
MODEL 5
REMARK VINA RESULT:      -9.0      4.424      7.161
REMARK  4 active torsions:
REMARK  status: ('A' for Active; 'I' for Inactive)
REMARK    1  A    between atoms: C_4  and  N_5 
REMARK       I    between atoms: N_5  and  C_6 
REMARK       I    between atoms: C_6  and  N_7 
REMARK    2  A    between atoms: N_7  and  C_8 
REMARK    3  A    between atoms: C_8  and  C_9 
REMARK    4  A    between atoms: C_12  and  C_13 
ROOT
HETATM    1  N   UNL     1       4.453  28.632  50.335  1.00  0.00    -0.309 N 
HETATM    2  C   UNL     1       5.074  28.258  51.482  1.00  0.00     0.321 C 
HETATM    3  N   UNL     1       4.596  27.181  52.153  1.00  0.00    -0.335 N 
HETATM    4  O   UNL     1       6.018  28.928  51.901  1.00  0.00    -0.247 OA
HETATM    5  H   UNL     1       4.789  29.538  50.030  1.00  0.00     0.170 HD
HETATM    6  H   UNL     1       3.599  27.035  52.077  1.00  0.00     0.164 HD
ENDROOT
BRANCH   3   7
HETATM    7  C   UNL     1       5.188  26.826  53.428  1.00  0.00     0.213 C 
BRANCH   7   8
HETATM    8  C   UNL     1       6.059  25.637  53.285  1.00  0.00     0.190 A 
HETATM    9  O   UNL     1       6.919  25.650  52.228  1.00  0.00    -0.194 OA
HETATM   10  N   UNL     1       7.645  24.468  52.293  1.00  0.00    -0.106 NA
HETATM   11  C   UNL     1       7.160  23.847  53.382  1.00  0.00     0.189 A 
HETATM   12  N   UNL     1       6.168  24.558  54.031  1.00  0.00    -0.202 NA
BRANCH  11  13
HETATM   13  C   UNL     1       7.632  22.547  53.850  1.00  0.00     0.014 A 
HETATM   14  C   UNL     1       7.626  22.240  55.218  1.00  0.00     0.015 A 
HETATM   15  C   UNL     1       8.079  20.996  55.670  1.00  0.00     0.001 A 
HETATM   16  C   UNL     1       8.542  20.049  54.760  1.00  0.00     0.000 A 
HETATM   17  C   UNL     1       8.555  20.339  53.398  1.00  0.00     0.001 A 
HETATM   18  C   UNL     1       8.102  21.582  52.945  1.00  0.00     0.015 A 
ENDBRANCH  11  13
ENDBRANCH   7   8
ENDBRANCH   3   7
BRANCH   1  19
HETATM   19  C   UNL     1       3.514  28.009  49.493  1.00  0.00     0.036 A 
HETATM   20  C   UNL     1       3.724  26.806  48.814  1.00  0.00     0.036 A 
HETATM   21  C   UNL     1       2.721  26.255  47.998  1.00  0.00    -0.060 A 
HETATM   22  C   UNL     1       2.967  24.974  47.253  1.00  0.00     0.048 C 
HETATM   23  C   UNL     1       1.517  26.945  47.828  1.00  0.00     0.007 A 
HETATM   24  C   UNL     1       1.310  28.159  48.474  1.00  0.00     0.003 A 
HETATM   25  C   UNL     1       2.304  28.688  49.299  1.00  0.00     0.029 A 
ENDBRANCH   1  19
TORSDOF 4
ENDMDL
MODEL 6
REMARK VINA RESULT:      -9.0      2.720      3.922
REMARK  4 active torsions:
REMARK  status: ('A' for Active; 'I' for Inactive)
REMARK    1  A    between atoms: C_4  and  N_5 
REMARK       I    between atoms: N_5  and  C_6 
REMARK       I    between atoms: C_6  and  N_7 
REMARK    2  A    between atoms: N_7  and  C_8 
REMARK    3  A    between atoms: C_8  and  C_9 
REMARK    4  A    between atoms: C_12  and  C_13 
ROOT
HETATM    1  N   UNL     1       9.523  30.813  59.066  1.00  0.00    -0.309 N 
HETATM    2  C   UNL     1       9.098  30.242  57.910  1.00  0.00     0.321 C 
HETATM    3  N   UNL     1       7.866  29.675  57.886  1.00  0.00    -0.335 N 
HETATM    4  O   UNL     1       9.853  30.217  56.939  1.00  0.00    -0.247 OA
HETATM    5  H   UNL     1      10.509  31.040  59.006  1.00  0.00     0.170 HD
HETATM    6  H   UNL     1       7.561  29.272  58.761  1.00  0.00     0.164 HD
ENDROOT
BRANCH   3   7
HETATM    7  C   UNL     1       7.436  28.978  56.690  1.00  0.00     0.213 C 
BRANCH   7   8
HETATM    8  C   UNL     1       7.663  27.521  56.827  1.00  0.00     0.190 A 
HETATM    9  O   UNL     1       7.969  27.079  58.079  1.00  0.00    -0.194 OA
HETATM   10  N   UNL     1       8.119  25.701  57.989  1.00  0.00    -0.106 NA
HETATM   11  C   UNL     1       7.889  25.434  56.691  1.00  0.00     0.189 A 
HETATM   12  N   UNL     1       7.593  26.553  55.937  1.00  0.00    -0.202 NA
BRANCH  11  13
HETATM   13  C   UNL     1       7.937  24.090  56.122  1.00  0.00     0.014 A 
HETATM   14  C   UNL     1       8.253  22.987  56.929  1.00  0.00     0.015 A 
HETATM   15  C   UNL     1       8.302  21.699  56.387  1.00  0.00     0.001 A 
HETATM   16  C   UNL     1       8.035  21.500  55.034  1.00  0.00     0.000 A 
HETATM   17  C   UNL     1       7.721  22.586  54.220  1.00  0.00     0.001 A 
HETATM   18  C   UNL     1       7.672  23.873  54.760  1.00  0.00     0.015 A 
ENDBRANCH  11  13
ENDBRANCH   7   8
ENDBRANCH   3   7
BRANCH   1  19
HETATM   19  C   UNL     1       8.877  31.185  60.258  1.00  0.00     0.036 A 
HETATM   20  C   UNL     1       7.918  32.197  60.366  1.00  0.00     0.036 A 
HETATM   21  C   UNL     1       7.320  32.494  61.602  1.00  0.00    -0.060 A 
HETATM   22  C   UNL     1       6.310  33.600  61.711  1.00  0.00     0.048 C 
HETATM   23  C   UNL     1       7.725  31.799  62.746  1.00  0.00     0.007 A 
HETATM   24  C   UNL     1       8.701  30.812  62.656  1.00  0.00     0.003 A 
HETATM   25  C   UNL     1       9.274  30.510  61.420  1.00  0.00     0.029 A 
ENDBRANCH   1  19
TORSDOF 4
ENDMDL
MODEL 7
REMARK VINA RESULT:      -9.0      1.460      2.379
REMARK  4 active torsions:
REMARK  status: ('A' for Active; 'I' for Inactive)
REMARK    1  A    between atoms: C_4  and  N_5 
REMARK       I    between atoms: N_5  and  C_6 
REMARK       I    between atoms: C_6  and  N_7 
REMARK    2  A    between atoms: N_7  and  C_8 
REMARK    3  A    between atoms: C_8  and  C_9 
REMARK    4  A    between atoms: C_12  and  C_13 
ROOT
HETATM    1  N   UNL     1       8.464  28.952  54.861  1.00  0.00    -0.309 N 
HETATM    2  C   UNL     1       7.362  28.232  54.528  1.00  0.00     0.321 C 
HETATM    3  N   UNL     1       6.661  27.631  55.521  1.00  0.00    -0.335 N 
HETATM    4  O   UNL     1       7.059  28.111  53.342  1.00  0.00    -0.247 OA
HETATM    5  H   UNL     1       8.989  29.198  54.030  1.00  0.00     0.170 HD
HETATM    6  H   UNL     1       7.211  27.328  56.314  1.00  0.00     0.164 HD
ENDROOT
BRANCH   3   7
HETATM    7  C   UNL     1       5.539  26.781  55.174  1.00  0.00     0.213 C 
BRANCH   7   8
HETATM    8  C   UNL     1       6.014  25.495  54.612  1.00  0.00     0.190 A 
HETATM    9  O   UNL     1       5.752  25.287  53.292  1.00  0.00    -0.194 OA
HETATM   10  N   UNL     1       6.293  24.049  52.969  1.00  0.00    -0.106 NA
HETATM   11  C   UNL     1       6.834  23.621  54.123  1.00  0.00     0.189 A 
HETATM   12  N   UNL     1       6.681  24.508  55.172  1.00  0.00    -0.202 NA
BRANCH  11  13
HETATM   13  C   UNL     1       7.525  22.343  54.266  1.00  0.00     0.014 A 
HETATM   14  C   UNL     1       7.978  21.650  53.135  1.00  0.00     0.015 A 
HETATM   15  C   UNL     1       8.640  20.425  53.267  1.00  0.00     0.001 A 
HETATM   16  C   UNL     1       8.856  19.882  54.532  1.00  0.00     0.000 A 
HETATM   17  C   UNL     1       8.411  20.558  55.665  1.00  0.00     0.001 A 
HETATM   18  C   UNL     1       7.750  21.782  55.534  1.00  0.00     0.015 A 
ENDBRANCH  11  13
ENDBRANCH   7   8
ENDBRANCH   3   7
BRANCH   1  19
HETATM   19  C   UNL     1       8.968  29.447  56.077  1.00  0.00     0.036 A 
HETATM   20  C   UNL     1       8.192  29.752  57.198  1.00  0.00     0.036 A 
HETATM   21  C   UNL     1       8.786  30.237  58.376  1.00  0.00    -0.060 A 
HETATM   22  C   UNL     1       7.940  30.584  59.566  1.00  0.00     0.048 C 
HETATM   23  C   UNL     1      10.166  30.462  58.406  1.00  0.00     0.007 A 
HETATM   24  C   UNL     1      10.944  30.192  57.285  1.00  0.00     0.003 A 
HETATM   25  C   UNL     1      10.347  29.691  56.128  1.00  0.00     0.029 A 
ENDBRANCH   1  19
TORSDOF 4
ENDMDL
MODEL 8
REMARK VINA RESULT:      -8.9      3.617      7.198
REMARK  4 active torsions:
REMARK  status: ('A' for Active; 'I' for Inactive)
REMARK    1  A    between atoms: C_4  and  N_5 
REMARK       I    between atoms: N_5  and  C_6 
REMARK       I    between atoms: C_6  and  N_7 
REMARK    2  A    between atoms: N_7  and  C_8 
REMARK    3  A    between atoms: C_8  and  C_9 
REMARK    4  A    between atoms: C_12  and  C_13 
ROOT
HETATM    1  N   UNL     1       8.482  24.382  55.890  1.00  0.00    -0.309 N 
HETATM    2  C   UNL     1       7.572  25.389  55.859  1.00  0.00     0.321 C 
HETATM    3  N   UNL     1       6.391  25.171  55.228  1.00  0.00    -0.335 N 
HETATM    4  O   UNL     1       7.859  26.475  56.360  1.00  0.00    -0.247 OA
HETATM    5  H   UNL     1       9.374  24.723  56.230  1.00  0.00     0.170 HD
HETATM    6  H   UNL     1       6.434  24.537  54.441  1.00  0.00     0.164 HD
ENDROOT
BRANCH   3   7
HETATM    7  C   UNL     1       5.448  26.264  55.102  1.00  0.00     0.213 C 
BRANCH   7   8
HETATM    8  C   UNL     1       5.551  26.888  53.763  1.00  0.00     0.190 A 
HETATM    9  O   UNL     1       6.288  28.032  53.691  1.00  0.00    -0.194 OA
HETATM   10  N   UNL     1       6.271  28.433  52.361  1.00  0.00    -0.106 NA
HETATM   11  C   UNL     1       5.527  27.496  51.749  1.00  0.00     0.189 A 
HETATM   12  N   UNL     1       5.065  26.509  52.599  1.00  0.00    -0.202 NA
BRANCH  11  13
HETATM   13  C   UNL     1       5.232  27.505  50.319  1.00  0.00     0.014 A 
HETATM   14  C   UNL     1       4.695  26.369  49.697  1.00  0.00     0.015 A 
HETATM   15  C   UNL     1       4.412  26.373  48.328  1.00  0.00     0.001 A 
HETATM   16  C   UNL     1       4.663  27.513  47.566  1.00  0.00     0.000 A 
HETATM   17  C   UNL     1       5.197  28.649  48.169  1.00  0.00     0.001 A 
HETATM   18  C   UNL     1       5.480  28.645  49.538  1.00  0.00     0.015 A 
ENDBRANCH  11  13
ENDBRANCH   7   8
ENDBRANCH   3   7
BRANCH   1  19
HETATM   19  C   UNL     1       8.416  23.006  55.608  1.00  0.00     0.036 A 
HETATM   20  C   UNL     1       8.379  22.455  54.325  1.00  0.00     0.036 A 
HETATM   21  C   UNL     1       8.321  21.063  54.140  1.00  0.00    -0.060 A 
HETATM   22  C   UNL     1       8.255  20.483  52.757  1.00  0.00     0.048 C 
HETATM   23  C   UNL     1       8.252  20.224  55.257  1.00  0.00     0.007 A 
HETATM   24  C   UNL     1       8.257  20.764  56.539  1.00  0.00     0.003 A 
HETATM   25  C   UNL     1       8.336  22.146  56.712  1.00  0.00     0.029 A 
ENDBRANCH   1  19
TORSDOF 4
ENDMDL
MODEL 9
REMARK VINA RESULT:      -8.8      2.019      2.642
REMARK  4 active torsions:
REMARK  status: ('A' for Active; 'I' for Inactive)
REMARK    1  A    between atoms: C_4  and  N_5 
REMARK       I    between atoms: N_5  and  C_6 
REMARK       I    between atoms: C_6  and  N_7 
REMARK    2  A    between atoms: N_7  and  C_8 
REMARK    3  A    between atoms: C_8  and  C_9 
REMARK    4  A    between atoms: C_12  and  C_13 
ROOT
HETATM    1  N   UNL     1       7.234  30.317  57.266  1.00  0.00    -0.309 N 
HETATM    2  C   UNL     1       6.445  29.369  56.699  1.00  0.00     0.321 C 
HETATM    3  N   UNL     1       5.794  28.501  57.512  1.00  0.00    -0.335 N 
HETATM    4  O   UNL     1       6.378  29.297  55.472  1.00  0.00    -0.247 OA
HETATM    5  H   UNL     1       7.792  30.781  56.559  1.00  0.00     0.170 HD
HETATM    6  H   UNL     1       6.275  28.274  58.372  1.00  0.00     0.164 HD
ENDROOT
BRANCH   3   7
HETATM    7  C   UNL     1       5.025  27.424  56.921  1.00  0.00     0.213 C 
BRANCH   7   8
HETATM    8  C   UNL     1       5.895  26.261  56.632  1.00  0.00     0.190 A 
HETATM    9  O   UNL     1       6.838  25.971  57.571  1.00  0.00    -0.194 OA
HETATM   10  N   UNL     1       7.520  24.850  57.117  1.00  0.00    -0.106 NA
HETATM   11  C   UNL     1       6.927  24.561  55.946  1.00  0.00     0.189 A 
HETATM   12  N   UNL     1       5.899  25.424  55.615  1.00  0.00    -0.202 NA
BRANCH  11  13
HETATM   13  C   UNL     1       7.319  23.441  55.096  1.00  0.00     0.014 A 
HETATM   14  C   UNL     1       7.574  22.180  55.655  1.00  0.00     0.015 A 
HETATM   15  C   UNL     1       7.951  21.104  54.845  1.00  0.00     0.001 A 
HETATM   16  C   UNL     1       8.077  21.278  53.468  1.00  0.00     0.000 A 
HETATM   17  C   UNL     1       7.828  22.524  52.898  1.00  0.00     0.001 A 
HETATM   18  C   UNL     1       7.451  23.600  53.707  1.00  0.00     0.015 A 
ENDBRANCH  11  13
ENDBRANCH   7   8
ENDBRANCH   3   7
BRANCH   1  19
HETATM   19  C   UNL     1       7.381  30.797  58.579  1.00  0.00     0.036 A 
HETATM   20  C   UNL     1       8.333  30.340  59.495  1.00  0.00     0.036 A 
HETATM   21  C   UNL     1       8.410  30.886  60.787  1.00  0.00    -0.060 A 
HETATM   22  C   UNL     1       9.420  30.370  61.770  1.00  0.00     0.048 C 
HETATM   23  C   UNL     1       7.491  31.867  61.174  1.00  0.00     0.007 A 
HETATM   24  C   UNL     1       6.520  32.307  60.281  1.00  0.00     0.003 A 
HETATM   25  C   UNL     1       6.465  31.772  58.993  1.00  0.00     0.029 A 
ENDBRANCH   1  19
TORSDOF 4
ENDMDL
MODEL 10
REMARK VINA RESULT:      -8.8      3.804      6.590
REMARK  4 active torsions:
REMARK  status: ('A' for Active; 'I' for Inactive)
REMARK    1  A    between atoms: C_4  and  N_5 
REMARK       I    between atoms: N_5  and  C_6 
REMARK       I    between atoms: C_6  and  N_7 
REMARK    2  A    between atoms: N_7  and  C_8 
REMARK    3  A    between atoms: C_8  and  C_9 
REMARK    4  A    between atoms: C_12  and  C_13 
ROOT
HETATM    1  N   UNL     1       3.998  27.662  51.398  1.00  0.00    -0.309 N 
HETATM    2  C   UNL     1       4.748  27.796  52.522  1.00  0.00     0.321 C 
HETATM    3  N   UNL     1       6.097  27.842  52.395  1.00  0.00    -0.335 N 
HETATM    4  O   UNL     1       4.189  27.828  53.617  1.00  0.00    -0.247 OA
HETATM    5  H   UNL     1       3.033  27.466  51.639  1.00  0.00     0.170 HD
HETATM    6  H   UNL     1       6.475  27.304  51.626  1.00  0.00     0.164 HD
ENDROOT
BRANCH   3   7
HETATM    7  C   UNL     1       6.916  27.888  53.590  1.00  0.00     0.213 C 
BRANCH   7   8
HETATM    8  C   UNL     1       7.095  26.529  54.151  1.00  0.00     0.190 A 
HETATM    9  O   UNL     1       6.932  26.412  55.498  1.00  0.00    -0.194 OA
HETATM   10  N   UNL     1       7.122  25.071  55.807  1.00  0.00    -0.106 NA
HETATM   11  C   UNL     1       7.383  24.499  54.619  1.00  0.00     0.189 A 
HETATM   12  N   UNL     1       7.367  25.385  53.559  1.00  0.00    -0.202 NA
BRANCH  11  13
HETATM   13  C   UNL     1       7.653  23.074  54.450  1.00  0.00     0.014 A 
HETATM   14  C   UNL     1       7.905  22.544  53.176  1.00  0.00     0.015 A 
HETATM   15  C   UNL     1       8.163  21.180  53.010  1.00  0.00     0.001 A 
HETATM   16  C   UNL     1       8.171  20.332  54.115  1.00  0.00     0.000 A 
HETATM   17  C   UNL     1       7.921  20.842  55.386  1.00  0.00     0.001 A 
HETATM   18  C   UNL     1       7.664  22.206  55.553  1.00  0.00     0.015 A 
ENDBRANCH  11  13
ENDBRANCH   7   8
ENDBRANCH   3   7
BRANCH   1  19
HETATM   19  C   UNL     1       4.276  27.789  50.026  1.00  0.00     0.036 A 
HETATM   20  C   UNL     1       4.279  28.996  49.320  1.00  0.00     0.036 A 
HETATM   21  C   UNL     1       4.576  29.027  47.947  1.00  0.00    -0.060 A 
HETATM   22  C   UNL     1       4.552  30.325  47.194  1.00  0.00     0.048 C 
HETATM   23  C   UNL     1       4.826  27.828  47.271  1.00  0.00     0.007 A 
HETATM   24  C   UNL     1       4.794  26.618  47.957  1.00  0.00     0.003 A 
HETATM   25  C   UNL     1       4.519  26.601  49.325  1.00  0.00     0.029 A 
ENDBRANCH   1  19
TORSDOF 4
ENDMDL
