MODEL 1
REMARK VINA RESULT:      -9.1      0.000      0.000
REMARK  3 active torsions:
REMARK  status: ('A' for Active; 'I' for Inactive)
REMARK    1  A    between atoms: C_6  and  C_7 
REMARK       I    between atoms: C_7  and  N_8 
REMARK    2  A    between atoms: N_8  and  C_9 
REMARK    3  A    between atoms: C_13  and  C_14 
ROOT
HETATM    1  C   UNL     1       7.351  28.233  57.434  1.00  0.00     0.036 A 
HETATM    2  C   UNL     1       7.262  28.504  56.070  1.00  0.00     0.054 A 
HETATM    3  C   UNL     1       7.241  27.462  55.123  1.00  0.00     0.050 A 
HETATM    4 CL   UNL     1       7.215  27.953  53.460  1.00  0.00    -0.083 Cl
HETATM    5  C   UNL     1       7.298  26.122  55.535  1.00  0.00     0.035 A 
HETATM    6  C   UNL     1       7.367  25.862  56.916  1.00  0.00     0.019 A 
HETATM    7  C   UNL     1       7.393  26.901  57.852  1.00  0.00     0.030 A 
ENDROOT
BRANCH   1   8
HETATM    8  N   UNL     1       7.447  29.220  58.437  1.00  0.00    -0.323 N 
HETATM    9  C   UNL     1       8.544  29.985  58.774  1.00  0.00     0.261 C 
HETATM   10  O   UNL     1       9.612  30.008  58.166  1.00  0.00    -0.267 OA
HETATM   11  H   UNL     1       6.614  29.346  59.014  1.00  0.00     0.169 HD
BRANCH   9  12
HETATM   12  C   UNL     1       8.366  30.820  60.006  1.00  0.00     0.100 A 
HETATM   13  C   UNL     1       7.449  31.997  60.089  1.00  0.00     0.261 A 
HETATM   14  N   UNL     1       7.355  32.624  61.311  1.00  0.00    -0.327 N 
HETATM   15  O   UNL     1       6.804  32.388  59.119  1.00  0.00    -0.267 OA
HETATM   16  C   UNL     1       8.049  32.243  62.435  1.00  0.00     0.008 A 
HETATM   17  H   UNL     1       6.722  33.415  61.351  1.00  0.00     0.169 HD
HETATM   18  C   UNL     1       7.812  33.031  63.686  1.00  0.00     0.068 C 
HETATM   19  C   UNL     1       8.887  31.199  62.361  1.00  0.00     0.026 A 
HETATM   20  C   UNL     1       9.042  30.475  61.118  1.00  0.00     0.025 A 
ENDBRANCH   9  12
ENDBRANCH   1   8
BRANCH   5  21
HETATM   21  C   UNL     1       7.318  24.987  54.615  1.00  0.00     0.183 A 
HETATM   22  N   UNL     1       6.421  24.827  53.625  1.00  0.00    -0.152 NA
HETATM   23  N   UNL     1       6.809  23.671  53.072  1.00  0.00    -0.263 N 
HETATM   24  H   UNL     1       6.282  23.289  52.294  1.00  0.00     0.190 HD
HETATM   25  C   UNL     1       7.914  23.168  53.689  1.00  0.00     0.118 A 
HETATM   26  C   UNL     1       8.558  21.895  53.305  1.00  0.00     0.093 C 
HETATM   27  N   UNL     1       8.269  23.992  54.647  1.00  0.00    -0.212 NA
ENDBRANCH   5  21
TORSDOF 3
ENDMDL
MODEL 2
REMARK VINA RESULT:      -9.0      1.811      2.328
REMARK  3 active torsions:
REMARK  status: ('A' for Active; 'I' for Inactive)
REMARK    1  A    between atoms: C_6  and  C_7 
REMARK       I    between atoms: C_7  and  N_8 
REMARK    2  A    between atoms: N_8  and  C_9 
REMARK    3  A    between atoms: C_13  and  C_14 
ROOT
HETATM    1  C   UNL     1       7.162  26.529  57.072  1.00  0.00     0.036 A 
HETATM    2  C   UNL     1       6.432  26.206  55.928  1.00  0.00     0.054 A 
HETATM    3  C   UNL     1       6.563  24.945  55.317  1.00  0.00     0.050 A 
HETATM    4 CL   UNL     1       5.659  24.717  53.855  1.00  0.00    -0.083 Cl
HETATM    5  C   UNL     1       7.425  23.976  55.854  1.00  0.00     0.035 A 
HETATM    6  C   UNL     1       8.140  24.309  57.020  1.00  0.00     0.019 A 
HETATM    7  C   UNL     1       8.010  25.565  57.619  1.00  0.00     0.030 A 
ENDROOT
BRANCH   1   8
HETATM    8  N   UNL     1       7.139  27.791  57.700  1.00  0.00    -0.323 N 
HETATM    9  C   UNL     1       8.120  28.761  57.696  1.00  0.00     0.261 C 
HETATM   10  O   UNL     1       9.154  28.726  57.033  1.00  0.00    -0.267 OA
HETATM   11  H   UNL     1       6.312  27.987  58.268  1.00  0.00     0.169 HD
BRANCH   9  12
HETATM   12  C   UNL     1       7.854  29.920  58.609  1.00  0.00     0.100 A 
HETATM   13  C   UNL     1       6.621  30.762  58.550  1.00  0.00     0.261 A 
HETATM   14  N   UNL     1       6.502  31.753  59.498  1.00  0.00    -0.327 N 
HETATM   15  O   UNL     1       5.750  30.581  57.701  1.00  0.00    -0.267 OA
HETATM   16  C   UNL     1       7.438  32.013  60.471  1.00  0.00     0.008 A 
HETATM   17  H   UNL     1       5.656  32.309  59.447  1.00  0.00     0.169 HD
HETATM   18  C   UNL     1       7.135  33.122  61.432  1.00  0.00     0.068 C 
HETATM   19  C   UNL     1       8.554  31.272  60.518  1.00  0.00     0.026 A 
HETATM   20  C   UNL     1       8.759  30.203  59.564  1.00  0.00     0.025 A 
ENDBRANCH   9  12
ENDBRANCH   1   8
BRANCH   5  21
HETATM   21  C   UNL     1       7.644  22.660  55.259  1.00  0.00     0.183 A 
HETATM   22  N   UNL     1       7.556  21.513  55.958  1.00  0.00    -0.152 NA
HETATM   23  N   UNL     1       7.847  20.591  55.032  1.00  0.00    -0.263 N 
HETATM   24  H   UNL     1       7.875  19.613  55.295  1.00  0.00     0.190 HD
HETATM   25  C   UNL     1       8.074  21.160  53.816  1.00  0.00     0.118 A 
HETATM   26  C   UNL     1       8.434  20.390  52.607  1.00  0.00     0.093 C 
HETATM   27  N   UNL     1       7.927  22.460  53.927  1.00  0.00    -0.212 NA
ENDBRANCH   5  21
TORSDOF 3
ENDMDL
MODEL 3
REMARK VINA RESULT:      -8.6      2.970      9.104
REMARK  3 active torsions:
REMARK  status: ('A' for Active; 'I' for Inactive)
REMARK    1  A    between atoms: C_6  and  C_7 
REMARK       I    between atoms: C_7  and  N_8 
REMARK    2  A    between atoms: N_8  and  C_9 
REMARK    3  A    between atoms: C_13  and  C_14 
ROOT
HETATM    1  C   UNL     1       7.313  27.365  56.174  1.00  0.00     0.036 A 
HETATM    2  C   UNL     1       6.559  28.464  55.765  1.00  0.00     0.054 A 
HETATM    3  C   UNL     1       6.507  29.637  56.542  1.00  0.00     0.050 A 
HETATM    4 CL   UNL     1       5.462  30.889  55.952  1.00  0.00    -0.083 Cl
HETATM    5  C   UNL     1       7.226  29.730  57.744  1.00  0.00     0.035 A 
HETATM    6  C   UNL     1       7.998  28.620  58.135  1.00  0.00     0.019 A 
HETATM    7  C   UNL     1       8.041  27.456  57.361  1.00  0.00     0.030 A 
ENDROOT
BRANCH   1   8
HETATM    8  N   UNL     1       7.360  26.133  55.488  1.00  0.00    -0.323 N 
HETATM    9  C   UNL     1       6.649  24.983  55.759  1.00  0.00     0.261 C 
HETATM   10  O   UNL     1       5.754  24.876  56.595  1.00  0.00    -0.267 OA
HETATM   11  H   UNL     1       8.041  26.076  54.729  1.00  0.00     0.169 HD
BRANCH   9  12
HETATM   12  C   UNL     1       7.061  23.791  54.947  1.00  0.00     0.100 A 
HETATM   13  C   UNL     1       7.084  23.768  53.454  1.00  0.00     0.261 A 
HETATM   14  N   UNL     1       7.544  22.615  52.859  1.00  0.00    -0.327 N 
HETATM   15  O   UNL     1       6.717  24.731  52.783  1.00  0.00    -0.267 OA
HETATM   16  C   UNL     1       7.966  21.501  53.547  1.00  0.00     0.008 A 
HETATM   17  H   UNL     1       7.560  22.620  51.846  1.00  0.00     0.169 HD
HETATM   18  C   UNL     1       8.450  20.339  52.736  1.00  0.00     0.068 C 
HETATM   19  C   UNL     1       7.930  21.511  54.887  1.00  0.00     0.026 A 
HETATM   20  C   UNL     1       7.468  22.684  55.596  1.00  0.00     0.025 A 
ENDBRANCH   9  12
ENDBRANCH   1   8
BRANCH   5  21
HETATM   21  C   UNL     1       7.195  30.896  58.624  1.00  0.00     0.183 A 
HETATM   22  N   UNL     1       8.290  31.618  58.926  1.00  0.00    -0.152 NA
HETATM   23  N   UNL     1       7.798  32.548  59.756  1.00  0.00    -0.263 N 
HETATM   24  H   UNL     1       8.425  33.232  60.164  1.00  0.00     0.190 HD
HETATM   25  C   UNL     1       6.454  32.406  59.924  1.00  0.00     0.118 A 
HETATM   26  C   UNL     1       5.643  33.279  60.798  1.00  0.00     0.093 C 
HETATM   27  N   UNL     1       6.047  31.389  59.202  1.00  0.00    -0.212 NA
ENDBRANCH   5  21
TORSDOF 3
ENDMDL
MODEL 4
REMARK VINA RESULT:      -8.6      1.441      1.737
REMARK  3 active torsions:
REMARK  status: ('A' for Active; 'I' for Inactive)
REMARK    1  A    between atoms: C_6  and  C_7 
REMARK       I    between atoms: C_7  and  N_8 
REMARK    2  A    between atoms: N_8  and  C_9 
REMARK    3  A    between atoms: C_13  and  C_14 
ROOT
HETATM    1  C   UNL     1       6.974  29.376  57.962  1.00  0.00     0.036 A 
HETATM    2  C   UNL     1       6.030  29.371  56.936  1.00  0.00     0.054 A 
HETATM    3  C   UNL     1       6.146  28.485  55.848  1.00  0.00     0.050 A 
HETATM    4 CL   UNL     1       4.947  28.651  54.607  1.00  0.00    -0.083 Cl
HETATM    5  C   UNL     1       7.212  27.575  55.778  1.00  0.00     0.035 A 
HETATM    6  C   UNL     1       8.147  27.578  56.830  1.00  0.00     0.019 A 
HETATM    7  C   UNL     1       8.030  28.464  57.906  1.00  0.00     0.030 A 
ENDROOT
BRANCH   1   8
HETATM    8  N   UNL     1       6.966  30.278  59.046  1.00  0.00    -0.323 N 
HETATM    9  C   UNL     1       7.859  31.296  59.312  1.00  0.00     0.261 C 
HETATM   10  O   UNL     1       8.766  31.662  58.567  1.00  0.00    -0.267 OA
HETATM   11  H   UNL     1       6.236  30.123  59.744  1.00  0.00     0.169 HD
BRANCH   9  12
HETATM   12  C   UNL     1       7.668  31.959  60.642  1.00  0.00     0.100 A 
HETATM   13  C   UNL     1       6.492  32.813  60.986  1.00  0.00     0.261 A 
HETATM   14  N   UNL     1       6.437  33.303  62.272  1.00  0.00    -0.327 N 
HETATM   15  O   UNL     1       5.611  33.067  60.167  1.00  0.00    -0.267 OA
HETATM   16  C   UNL     1       7.387  33.063  63.236  1.00  0.00     0.008 A 
HETATM   17  H   UNL     1       5.628  33.874  62.489  1.00  0.00     0.169 HD
HETATM   18  C   UNL     1       7.157  33.663  64.589  1.00  0.00     0.068 C 
HETATM   19  C   UNL     1       8.454  32.311  62.927  1.00  0.00     0.026 A 
HETATM   20  C   UNL     1       8.590  31.749  61.600  1.00  0.00     0.025 A 
ENDBRANCH   9  12
ENDBRANCH   1   8
BRANCH   5  21
HETATM   21  C   UNL     1       7.423  26.650  54.667  1.00  0.00     0.183 A 
HETATM   22  N   UNL     1       7.755  27.055  53.427  1.00  0.00    -0.152 NA
HETATM   23  N   UNL     1       7.821  25.897  52.757  1.00  0.00    -0.263 N 
HETATM   24  H   UNL     1       8.038  25.906  51.767  1.00  0.00     0.190 HD
HETATM   25  C   UNL     1       7.565  24.835  53.570  1.00  0.00     0.118 A 
HETATM   26  C   UNL     1       7.550  23.433  53.104  1.00  0.00     0.093 C 
HETATM   27  N   UNL     1       7.337  25.282  54.783  1.00  0.00    -0.212 NA
ENDBRANCH   5  21
TORSDOF 3
ENDMDL
MODEL 5
REMARK VINA RESULT:      -8.6      6.709      9.735
REMARK  3 active torsions:
REMARK  status: ('A' for Active; 'I' for Inactive)
REMARK    1  A    between atoms: C_6  and  C_7 
REMARK       I    between atoms: C_7  and  N_8 
REMARK    2  A    between atoms: N_8  and  C_9 
REMARK    3  A    between atoms: C_13  and  C_14 
ROOT
HETATM    1  C   UNL     1       5.366  25.642  51.994  1.00  0.00     0.036 A 
HETATM    2  C   UNL     1       5.016  25.855  53.327  1.00  0.00     0.054 A 
HETATM    3  C   UNL     1       5.722  25.228  54.371  1.00  0.00     0.050 A 
HETATM    4 CL   UNL     1       5.120  25.517  55.971  1.00  0.00    -0.083 Cl
HETATM    5  C   UNL     1       6.806  24.381  54.093  1.00  0.00     0.035 A 
HETATM    6  C   UNL     1       7.161  24.191  52.744  1.00  0.00     0.019 A 
HETATM    7  C   UNL     1       6.453  24.812  51.711  1.00  0.00     0.030 A 
ENDROOT
BRANCH   1   8
HETATM    8  N   UNL     1       4.666  26.177  50.893  1.00  0.00    -0.323 N 
HETATM    9  C   UNL     1       4.731  27.458  50.386  1.00  0.00     0.261 C 
HETATM   10  O   UNL     1       5.512  28.333  50.754  1.00  0.00    -0.267 OA
HETATM   11  H   UNL     1       3.994  25.549  50.449  1.00  0.00     0.169 HD
BRANCH   9  12
HETATM   12  C   UNL     1       3.726  27.754  49.313  1.00  0.00     0.100 A 
HETATM   13  C   UNL     1       3.767  27.156  47.945  1.00  0.00     0.261 A 
HETATM   14  N   UNL     1       2.737  27.485  47.094  1.00  0.00    -0.327 N 
HETATM   15  O   UNL     1       4.672  26.402  47.592  1.00  0.00    -0.267 OA
HETATM   16  C   UNL     1       1.697  28.324  47.420  1.00  0.00     0.008 A 
HETATM   17  H   UNL     1       2.777  27.064  46.173  1.00  0.00     0.169 HD
HETATM   18  C   UNL     1       0.652  28.558  46.373  1.00  0.00     0.068 C 
HETATM   19  C   UNL     1       1.665  28.877  48.641  1.00  0.00     0.026 A 
HETATM   20  C   UNL     1       2.704  28.581  49.603  1.00  0.00     0.025 A 
ENDBRANCH   9  12
ENDBRANCH   1   8
BRANCH   5  21
HETATM   21  C   UNL     1       7.565  23.665  55.116  1.00  0.00     0.183 A 
HETATM   22  N   UNL     1       8.325  24.287  56.037  1.00  0.00    -0.152 NA
HETATM   23  N   UNL     1       8.831  23.259  56.729  1.00  0.00    -0.263 N 
HETATM   24  H   UNL     1       9.474  23.440  57.492  1.00  0.00     0.190 HD
HETATM   25  C   UNL     1       8.372  22.066  56.260  1.00  0.00     0.118 A 
HETATM   26  C   UNL     1       8.774  20.758  56.818  1.00  0.00     0.093 C 
HETATM   27  N   UNL     1       7.553  22.296  55.260  1.00  0.00    -0.212 NA
ENDBRANCH   5  21
TORSDOF 3
ENDMDL
MODEL 6
REMARK VINA RESULT:      -8.4      6.979      9.500
REMARK  3 active torsions:
REMARK  status: ('A' for Active; 'I' for Inactive)
REMARK    1  A    between atoms: C_6  and  C_7 
REMARK       I    between atoms: C_7  and  N_8 
REMARK    2  A    between atoms: N_8  and  C_9 
REMARK    3  A    between atoms: C_13  and  C_14 
ROOT
HETATM    1  C   UNL     1       5.258  26.175  51.780  1.00  0.00     0.036 A 
HETATM    2  C   UNL     1       5.064  26.010  50.409  1.00  0.00     0.054 A 
HETATM    3  C   UNL     1       4.407  26.995  49.647  1.00  0.00     0.050 A 
HETATM    4 CL   UNL     1       4.162  26.615  47.973  1.00  0.00    -0.083 Cl
HETATM    5  C   UNL     1       3.940  28.173  50.250  1.00  0.00     0.035 A 
HETATM    6  C   UNL     1       4.160  28.334  51.631  1.00  0.00     0.019 A 
HETATM    7  C   UNL     1       4.809  27.351  52.384  1.00  0.00     0.030 A 
ENDROOT
BRANCH   1   8
HETATM    8  N   UNL     1       5.843  25.207  52.622  1.00  0.00    -0.323 N 
HETATM    9  C   UNL     1       7.162  24.805  52.667  1.00  0.00     0.261 C 
HETATM   10  O   UNL     1       8.086  25.318  52.039  1.00  0.00    -0.267 OA
HETATM   11  H   UNL     1       5.198  24.711  53.240  1.00  0.00     0.169 HD
BRANCH   9  12
HETATM   12  C   UNL     1       7.424  23.628  53.557  1.00  0.00     0.100 A 
HETATM   13  C   UNL     1       7.159  23.620  55.027  1.00  0.00     0.261 A 
HETATM   14  N   UNL     1       7.400  22.440  55.694  1.00  0.00    -0.327 N 
HETATM   15  O   UNL     1       6.743  24.615  55.619  1.00  0.00    -0.267 OA
HETATM   16  C   UNL     1       7.869  21.293  55.098  1.00  0.00     0.008 A 
HETATM   17  H   UNL     1       7.207  22.451  56.689  1.00  0.00     0.169 HD
HETATM   18  C   UNL     1       8.057  20.093  55.975  1.00  0.00     0.068 C 
HETATM   19  C   UNL     1       8.124  21.300  53.782  1.00  0.00     0.026 A 
HETATM   20  C   UNL     1       7.894  22.496  53.001  1.00  0.00     0.025 A 
ENDBRANCH   9  12
ENDBRANCH   1   8
BRANCH   5  21
HETATM   21  C   UNL     1       3.217  29.223  49.537  1.00  0.00     0.183 A 
HETATM   22  N   UNL     1       3.827  30.141  48.764  1.00  0.00    -0.152 NA
HETATM   23  N   UNL     1       2.799  30.889  48.343  1.00  0.00    -0.263 N 
HETATM   24  H   UNL     1       2.976  31.688  47.746  1.00  0.00     0.190 HD
HETATM   25  C   UNL     1       1.613  30.421  48.823  1.00  0.00     0.118 A 
HETATM   26  C   UNL     1       0.309  31.055  48.538  1.00  0.00     0.093 C 
HETATM   27  N   UNL     1       1.847  29.357  49.555  1.00  0.00    -0.212 NA
ENDBRANCH   5  21
TORSDOF 3
ENDMDL
MODEL 7
REMARK VINA RESULT:      -8.3      3.462      9.093
REMARK  3 active torsions:
REMARK  status: ('A' for Active; 'I' for Inactive)
REMARK    1  A    between atoms: C_6  and  C_7 
REMARK       I    between atoms: C_7  and  N_8 
REMARK    2  A    between atoms: N_8  and  C_9 
REMARK    3  A    between atoms: C_13  and  C_14 
ROOT
HETATM    1  C   UNL     1       7.170  27.060  56.667  1.00  0.00     0.036 A 
HETATM    2  C   UNL     1       8.214  27.920  57.007  1.00  0.00     0.054 A 
HETATM    3  C   UNL     1       7.956  29.206  57.519  1.00  0.00     0.050 A 
HETATM    4 CL   UNL     1       9.350  30.194  57.816  1.00  0.00    -0.083 Cl
HETATM    5  C   UNL     1       6.638  29.648  57.710  1.00  0.00     0.035 A 
HETATM    6  C   UNL     1       5.595  28.763  57.381  1.00  0.00     0.019 A 
HETATM    7  C   UNL     1       5.856  27.489  56.868  1.00  0.00     0.030 A 
ENDROOT
BRANCH   1   8
HETATM    8  N   UNL     1       7.345  25.787  56.085  1.00  0.00    -0.323 N 
HETATM    9  C   UNL     1       8.115  24.740  56.547  1.00  0.00     0.261 C 
HETATM   10  O   UNL     1       8.701  24.707  57.627  1.00  0.00    -0.267 OA
HETATM   11  H   UNL     1       6.882  25.646  55.186  1.00  0.00     0.169 HD
BRANCH   9  12
HETATM   12  C   UNL     1       8.224  23.583  55.600  1.00  0.00     0.100 A 
HETATM   13  C   UNL     1       8.331  22.158  56.035  1.00  0.00     0.261 A 
HETATM   14  N   UNL     1       8.365  21.208  55.040  1.00  0.00    -0.327 N 
HETATM   15  O   UNL     1       8.382  21.843  57.222  1.00  0.00    -0.267 OA
HETATM   16  C   UNL     1       8.316  21.489  53.695  1.00  0.00     0.008 A 
HETATM   17  H   UNL     1       8.430  20.246  55.354  1.00  0.00     0.169 HD
HETATM   18  C   UNL     1       8.347  20.327  52.751  1.00  0.00     0.068 C 
HETATM   19  C   UNL     1       8.237  22.768  53.299  1.00  0.00     0.026 A 
HETATM   20  C   UNL     1       8.189  23.832  54.278  1.00  0.00     0.025 A 
ENDBRANCH   9  12
ENDBRANCH   1   8
BRANCH   5  21
HETATM   21  C   UNL     1       6.288  30.979  58.200  1.00  0.00     0.183 A 
HETATM   22  N   UNL     1       6.751  31.480  59.360  1.00  0.00    -0.152 NA
HETATM   23  N   UNL     1       6.166  32.684  59.405  1.00  0.00    -0.263 N 
HETATM   24  H   UNL     1       6.326  33.286  60.204  1.00  0.00     0.190 HD
HETATM   25  C   UNL     1       5.400  32.908  58.301  1.00  0.00     0.118 A 
HETATM   26  C   UNL     1       4.621  34.144  58.083  1.00  0.00     0.093 C 
HETATM   27  N   UNL     1       5.482  31.860  57.515  1.00  0.00    -0.212 NA
ENDBRANCH   5  21
TORSDOF 3
ENDMDL
MODEL 8
REMARK VINA RESULT:      -8.3      1.667      2.148
REMARK  3 active torsions:
REMARK  status: ('A' for Active; 'I' for Inactive)
REMARK    1  A    between atoms: C_6  and  C_7 
REMARK       I    between atoms: C_7  and  N_8 
REMARK    2  A    between atoms: N_8  and  C_9 
REMARK    3  A    between atoms: C_13  and  C_14 
ROOT
HETATM    1  C   UNL     1       6.766  27.383  56.964  1.00  0.00     0.036 A 
HETATM    2  C   UNL     1       5.913  27.131  55.890  1.00  0.00     0.054 A 
HETATM    3  C   UNL     1       6.125  26.030  55.039  1.00  0.00     0.050 A 
HETATM    4 CL   UNL     1       5.035  25.891  53.698  1.00  0.00    -0.083 Cl
HETATM    5  C   UNL     1       7.198  25.152  55.260  1.00  0.00     0.035 A 
HETATM    6  C   UNL     1       8.039  25.407  56.359  1.00  0.00     0.019 A 
HETATM    7  C   UNL     1       7.827  26.506  57.198  1.00  0.00     0.030 A 
ENDROOT
BRANCH   1   8
HETATM    8  N   UNL     1       6.662  28.501  57.818  1.00  0.00    -0.323 N 
HETATM    9  C   UNL     1       6.833  29.832  57.499  1.00  0.00     0.261 C 
HETATM   10  O   UNL     1       6.999  30.280  56.367  1.00  0.00    -0.267 OA
HETATM   11  H   UNL     1       6.486  28.290  58.802  1.00  0.00     0.169 HD
BRANCH   9  12
HETATM   12  C   UNL     1       6.825  30.760  58.677  1.00  0.00     0.100 A 
HETATM   13  C   UNL     1       7.865  30.754  59.749  1.00  0.00     0.261 A 
HETATM   14  N   UNL     1       7.747  31.709  60.733  1.00  0.00    -0.327 N 
HETATM   15  O   UNL     1       8.787  29.940  59.756  1.00  0.00    -0.267 OA
HETATM   16  C   UNL     1       6.741  32.645  60.789  1.00  0.00     0.008 A 
HETATM   17  H   UNL     1       8.465  31.695  61.447  1.00  0.00     0.169 HD
HETATM   18  C   UNL     1       6.778  33.621  61.925  1.00  0.00     0.068 C 
HETATM   19  C   UNL     1       5.795  32.644  59.839  1.00  0.00     0.026 A 
HETATM   20  C   UNL     1       5.845  31.679  58.762  1.00  0.00     0.025 A 
ENDBRANCH   9  12
ENDBRANCH   1   8
BRANCH   5  21
HETATM   21  C   UNL     1       7.506  24.010  54.402  1.00  0.00     0.183 A 
HETATM   22  N   UNL     1       7.887  24.138  53.118  1.00  0.00    -0.152 NA
HETATM   23  N   UNL     1       8.037  22.863  52.737  1.00  0.00    -0.263 N 
HETATM   24  H   UNL     1       8.306  22.657  51.781  1.00  0.00     0.190 HD
HETATM   25  C   UNL     1       7.783  22.002  53.761  1.00  0.00     0.118 A 
HETATM   26  C   UNL     1       7.852  20.532  53.631  1.00  0.00     0.093 C 
HETATM   27  N   UNL     1       7.472  22.701  54.828  1.00  0.00    -0.212 NA
ENDBRANCH   5  21
TORSDOF 3
ENDMDL
MODEL 9
REMARK VINA RESULT:      -8.3      4.026     10.612
REMARK  3 active torsions:
REMARK  status: ('A' for Active; 'I' for Inactive)
REMARK    1  A    between atoms: C_6  and  C_7 
REMARK       I    between atoms: C_7  and  N_8 
REMARK    2  A    between atoms: N_8  and  C_9 
REMARK    3  A    between atoms: C_13  and  C_14 
ROOT
HETATM    1  C   UNL     1       6.879  32.134  61.843  1.00  0.00     0.036 A 
HETATM    2  C   UNL     1       5.636  32.708  62.107  1.00  0.00     0.054 A 
HETATM    3  C   UNL     1       5.390  33.375  63.322  1.00  0.00     0.050 A 
HETATM    4 CL   UNL     1       3.774  33.963  63.547  1.00  0.00    -0.083 Cl
HETATM    5  C   UNL     1       6.397  33.487  64.294  1.00  0.00     0.035 A 
HETATM    6  C   UNL     1       7.652  32.920  64.005  1.00  0.00     0.019 A 
HETATM    7  C   UNL     1       7.890  32.254  62.798  1.00  0.00     0.030 A 
ENDROOT
BRANCH   1   8
HETATM    8  N   UNL     1       7.182  31.391  60.682  1.00  0.00    -0.323 N 
HETATM    9  C   UNL     1       8.013  31.745  59.640  1.00  0.00     0.261 C 
HETATM   10  O   UNL     1       8.729  32.743  59.606  1.00  0.00    -0.267 OA
HETATM   11  H   UNL     1       6.684  30.505  60.583  1.00  0.00     0.169 HD
BRANCH   9  12
HETATM   12  C   UNL     1       7.981  30.806  58.473  1.00  0.00     0.100 A 
HETATM   13  C   UNL     1       9.196  30.162  57.888  1.00  0.00     0.261 A 
HETATM   14  N   UNL     1       8.991  29.277  56.854  1.00  0.00    -0.327 N 
HETATM   15  O   UNL     1      10.326  30.403  58.309  1.00  0.00    -0.267 OA
HETATM   16  C   UNL     1       7.758  28.965  56.331  1.00  0.00     0.008 A 
HETATM   17  H   UNL     1       9.826  28.844  56.475  1.00  0.00     0.169 HD
HETATM   18  C   UNL     1       7.721  27.966  55.215  1.00  0.00     0.068 C 
HETATM   19  C   UNL     1       6.666  29.553  56.841  1.00  0.00     0.026 A 
HETATM   20  C   UNL     1       6.788  30.491  57.936  1.00  0.00     0.025 A 
ENDBRANCH   9  12
ENDBRANCH   1   8
BRANCH   5  21
HETATM   21  C   UNL     1       6.209  34.129  65.592  1.00  0.00     0.183 A 
HETATM   22  N   UNL     1       5.306  35.104  65.806  1.00  0.00    -0.152 NA
HETATM   23  N   UNL     1       5.501  35.394  67.099  1.00  0.00    -0.263 N 
HETATM   24  H   UNL     1       4.954  36.129  67.533  1.00  0.00     0.190 HD
HETATM   25  C   UNL     1       6.465  34.604  67.649  1.00  0.00     0.118 A 
HETATM   26  C   UNL     1       6.905  34.708  69.055  1.00  0.00     0.093 C 
HETATM   27  N   UNL     1       6.908  33.782  66.726  1.00  0.00    -0.212 NA
ENDBRANCH   5  21
TORSDOF 3
ENDMDL
MODEL 10
REMARK VINA RESULT:      -7.9      3.765      5.840
REMARK  3 active torsions:
REMARK  status: ('A' for Active; 'I' for Inactive)
REMARK    1  A    between atoms: C_6  and  C_7 
REMARK       I    between atoms: C_7  and  N_8 
REMARK    2  A    between atoms: N_8  and  C_9 
REMARK    3  A    between atoms: C_13  and  C_14 
ROOT
HETATM    1  C   UNL     1       7.069  31.839  61.147  1.00  0.00     0.036 A 
HETATM    2  C   UNL     1       6.354  32.115  59.983  1.00  0.00     0.054 A 
HETATM    3  C   UNL     1       6.720  31.535  58.753  1.00  0.00     0.050 A 
HETATM    4 CL   UNL     1       5.793  32.036  57.376  1.00  0.00    -0.083 Cl
HETATM    5  C   UNL     1       7.811  30.655  58.674  1.00  0.00     0.035 A 
HETATM    6  C   UNL     1       8.511  30.371  59.861  1.00  0.00     0.019 A 
HETATM    7  C   UNL     1       8.146  30.954  61.079  1.00  0.00     0.030 A 
ENDROOT
BRANCH   1   8
HETATM    8  N   UNL     1       6.808  32.433  62.400  1.00  0.00    -0.323 N 
HETATM    9  C   UNL     1       5.811  32.116  63.299  1.00  0.00     0.261 C 
HETATM   10  O   UNL     1       5.037  31.167  63.201  1.00  0.00    -0.267 OA
HETATM   11  H   UNL     1       7.403  33.226  62.646  1.00  0.00     0.169 HD
BRANCH   9  12
HETATM   12  C   UNL     1       5.701  33.055  64.462  1.00  0.00     0.100 A 
HETATM   13  C   UNL     1       4.429  33.718  64.880  1.00  0.00     0.261 A 
HETATM   14  N   UNL     1       4.483  34.509  66.006  1.00  0.00    -0.327 N 
HETATM   15  O   UNL     1       3.381  33.567  64.255  1.00  0.00    -0.267 OA
HETATM   16  C   UNL     1       5.620  34.726  66.749  1.00  0.00     0.008 A 
HETATM   17  H   UNL     1       3.609  34.944  66.278  1.00  0.00     0.169 HD
HETATM   18  C   UNL     1       5.491  35.603  67.955  1.00  0.00     0.068 C 
HETATM   19  C   UNL     1       6.768  34.147  66.368  1.00  0.00     0.026 A 
HETATM   20  C   UNL     1       6.801  33.294  65.200  1.00  0.00     0.025 A 
ENDBRANCH   9  12
ENDBRANCH   1   8
BRANCH   5  21
HETATM   21  C   UNL     1       8.276  30.043  57.432  1.00  0.00     0.183 A 
HETATM   22  N   UNL     1       9.551  30.121  57.007  1.00  0.00    -0.152 NA
HETATM   23  N   UNL     1       9.506  29.451  55.848  1.00  0.00    -0.263 N 
HETATM   24  H   UNL     1      10.347  29.369  55.288  1.00  0.00     0.190 HD
HETATM   25  C   UNL     1       8.259  28.966  55.600  1.00  0.00     0.118 A 
HETATM   26  C   UNL     1       7.905  28.201  54.386  1.00  0.00     0.093 C 
HETATM   27  N   UNL     1       7.472  29.303  56.595  1.00  0.00    -0.212 NA
ENDBRANCH   5  21
TORSDOF 3
ENDMDL
