MODEL 1
REMARK VINA RESULT:     -10.2      0.000      0.000
REMARK  6 active torsions:
REMARK  status: ('A' for Active; 'I' for Inactive)
REMARK    1  A    between atoms: C_3  and  C_4 
REMARK    2  A    between atoms: C_4  and  N_5 
REMARK       I    between atoms: N_5  and  C_6 
REMARK    3  A    between atoms: C_6  and  C_7 
REMARK    4  A    between atoms: C_10  and  C_11 
REMARK    5  A    between atoms: C_11  and  N_12 
REMARK    6  A    between atoms: N_12  and  C_13 
ROOT
HETATM    1  C   UNL     1       7.259  28.961  57.876  1.00  0.00     0.032 A 
HETATM    2  C   UNL     1       8.033  27.795  57.917  1.00  0.00     0.017 A 
HETATM    3  C   UNL     1       7.471  26.572  57.539  1.00  0.00     0.010 A 
HETATM    4  C   UNL     1       6.136  26.499  57.111  1.00  0.00    -0.041 A 
HETATM    5  C   UNL     1       5.360  27.667  57.099  1.00  0.00     0.010 A 
HETATM    6  C   UNL     1       5.918  28.890  57.482  1.00  0.00     0.017 A 
ENDROOT
BRANCH   4   7
HETATM    7  C   UNL     1       5.535  25.173  56.710  1.00  0.00     0.160 C 
BRANCH   7   8
HETATM    8  N   UNL     1       6.598  24.219  56.449  1.00  0.00    -0.370 N 
HETATM    9  H   UNL     1       6.669  23.499  57.157  1.00  0.00     0.161 HD
BRANCH   8  10
HETATM   10  C   UNL     1       6.937  23.869  55.156  1.00  0.00     0.139 A 
HETATM   11  N   UNL     1       6.701  24.709  54.188  1.00  0.00    -0.202 NA
HETATM   12  C   UNL     1       6.990  24.402  52.885  1.00  0.00     0.200 A 
HETATM   13  S   UNL     1       6.710  25.458  51.610  1.00  0.00    -0.039 SA
HETATM   14  N   UNL     1       7.520  23.176  52.581  1.00  0.00    -0.331 N 
HETATM   15  C   UNL     1       7.819  22.233  53.560  1.00  0.00     0.048 A 
HETATM   16  H   UNL     1       7.713  22.992  51.606  1.00  0.00     0.168 HD
HETATM   17  C   UNL     1       7.557  22.539  54.893  1.00  0.00     0.036 A 
HETATM   18  C   UNL     1       8.387  21.010  53.205  1.00  0.00     0.030 A 
HETATM   19  C   UNL     1       7.891  21.620  55.894  1.00  0.00     0.017 A 
HETATM   20  C   UNL     1       8.463  20.393  55.543  1.00  0.00     0.001 A 
HETATM   21  C   UNL     1       8.704  20.088  54.202  1.00  0.00     0.002 A 
ENDBRANCH   8  10
ENDBRANCH   7   8
ENDBRANCH   4   7
BRANCH   1  22
HETATM   22  C   UNL     1       7.809  30.285  58.272  1.00  0.00     0.251 C 
HETATM   23  N   UNL     1       7.048  31.024  59.151  1.00  0.00    -0.353 N 
HETATM   24  H   UNL     1       6.237  30.610  59.589  1.00  0.00     0.163 HD
HETATM   25  O   UNL     1       8.900  30.644  57.844  1.00  0.00    -0.268 OA
BRANCH  23  26
HETATM   26  C   UNL     1       7.487  32.314  59.645  1.00  0.00     0.163 C 
BRANCH  26  27
HETATM   27  C   UNL     1       7.242  32.543  61.122  1.00  0.00    -0.019 A 
HETATM   28  C   UNL     1       5.995  32.968  61.614  1.00  0.00     0.010 A 
HETATM   29  C   UNL     1       5.780  33.151  62.983  1.00  0.00     0.001 A 
HETATM   30  C   UNL     1       6.803  32.899  63.891  1.00  0.00     0.002 A 
HETATM   31  C   UNL     1       8.042  32.462  63.430  1.00  0.00     0.024 A 
HETATM   32  C   UNL     1       8.259  32.281  62.060  1.00  0.00     0.042 A 
HETATM   33 CL   UNL     1       9.822  31.718  61.573  1.00  0.00    -0.084 Cl
ENDBRANCH  26  27
ENDBRANCH  23  26
ENDBRANCH   1  22
TORSDOF 6
ENDMDL
MODEL 2
REMARK VINA RESULT:     -10.2      3.774     10.842
REMARK  6 active torsions:
REMARK  status: ('A' for Active; 'I' for Inactive)
REMARK    1  A    between atoms: C_3  and  C_4 
REMARK    2  A    between atoms: C_4  and  N_5 
REMARK       I    between atoms: N_5  and  C_6 
REMARK    3  A    between atoms: C_6  and  C_7 
REMARK    4  A    between atoms: C_10  and  C_11 
REMARK    5  A    between atoms: C_11  and  N_12 
REMARK    6  A    between atoms: N_12  and  C_13 
ROOT
HETATM    1  C   UNL     1       6.530  27.121  57.287  1.00  0.00     0.032 A 
HETATM    2  C   UNL     1       5.339  27.789  56.975  1.00  0.00     0.017 A 
HETATM    3  C   UNL     1       5.256  29.175  57.131  1.00  0.00     0.010 A 
HETATM    4  C   UNL     1       6.359  29.911  57.594  1.00  0.00    -0.041 A 
HETATM    5  C   UNL     1       7.538  29.231  57.930  1.00  0.00     0.010 A 
HETATM    6  C   UNL     1       7.621  27.845  57.780  1.00  0.00     0.017 A 
ENDROOT
BRANCH   4   7
HETATM    7  C   UNL     1       6.258  31.408  57.766  1.00  0.00     0.160 C 
BRANCH   7   8
HETATM    8  N   UNL     1       6.891  31.795  59.014  1.00  0.00    -0.370 N 
HETATM    9  H   UNL     1       7.890  31.936  58.925  1.00  0.00     0.161 HD
BRANCH   8  10
HETATM   10  C   UNL     1       6.223  32.574  59.939  1.00  0.00     0.139 A 
HETATM   11  N   UNL     1       5.129  33.187  59.581  1.00  0.00    -0.202 NA
HETATM   12  C   UNL     1       4.443  33.994  60.448  1.00  0.00     0.200 A 
HETATM   13  S   UNL     1       3.026  34.793  60.031  1.00  0.00    -0.039 SA
HETATM   14  N   UNL     1       4.921  34.185  61.717  1.00  0.00    -0.331 N 
HETATM   15  C   UNL     1       6.071  33.552  62.180  1.00  0.00     0.048 A 
HETATM   16  H   UNL     1       4.384  34.793  62.320  1.00  0.00     0.168 HD
HETATM   17  C   UNL     1       6.767  32.705  61.321  1.00  0.00     0.036 A 
HETATM   18  C   UNL     1       6.503  33.754  63.490  1.00  0.00     0.030 A 
HETATM   19  C   UNL     1       7.900  32.027  61.782  1.00  0.00     0.017 A 
HETATM   20  C   UNL     1       8.336  32.224  63.096  1.00  0.00     0.001 A 
HETATM   21  C   UNL     1       7.642  33.089  63.945  1.00  0.00     0.002 A 
ENDBRANCH   8  10
ENDBRANCH   7   8
ENDBRANCH   4   7
BRANCH   1  22
HETATM   22  C   UNL     1       6.668  25.647  57.141  1.00  0.00     0.251 C 
HETATM   23  N   UNL     1       7.949  25.167  56.980  1.00  0.00    -0.353 N 
HETATM   24  H   UNL     1       8.738  25.787  57.092  1.00  0.00     0.163 HD
HETATM   25  O   UNL     1       5.674  24.933  57.206  1.00  0.00    -0.268 OA
BRANCH  23  26
HETATM   26  C   UNL     1       8.224  23.749  56.865  1.00  0.00     0.163 C 
BRANCH  26  27
HETATM   27  C   UNL     1       8.088  23.189  55.464  1.00  0.00    -0.019 A 
HETATM   28  C   UNL     1       8.110  24.016  54.326  1.00  0.00     0.010 A 
HETATM   29  C   UNL     1       8.007  23.479  53.038  1.00  0.00     0.001 A 
HETATM   30  C   UNL     1       7.894  22.104  52.862  1.00  0.00     0.002 A 
HETATM   31  C   UNL     1       7.886  21.264  53.972  1.00  0.00     0.024 A 
HETATM   32  C   UNL     1       7.986  21.800  55.261  1.00  0.00     0.042 A 
HETATM   33 CL   UNL     1       7.987  20.685  56.585  1.00  0.00    -0.084 Cl
ENDBRANCH  26  27
ENDBRANCH  23  26
ENDBRANCH   1  22
TORSDOF 6
ENDMDL
MODEL 3
REMARK VINA RESULT:     -10.1      3.702     10.915
REMARK  6 active torsions:
REMARK  status: ('A' for Active; 'I' for Inactive)
REMARK    1  A    between atoms: C_3  and  C_4 
REMARK    2  A    between atoms: C_4  and  N_5 
REMARK       I    between atoms: N_5  and  C_6 
REMARK    3  A    between atoms: C_6  and  C_7 
REMARK    4  A    between atoms: C_10  and  C_11 
REMARK    5  A    between atoms: C_11  and  N_12 
REMARK    6  A    between atoms: N_12  and  C_13 
ROOT
HETATM    1  C   UNL     1       7.709  28.763  56.212  1.00  0.00     0.032 A 
HETATM    2  C   UNL     1       8.961  28.836  56.832  1.00  0.00     0.017 A 
HETATM    3  C   UNL     1       9.157  29.706  57.909  1.00  0.00     0.010 A 
HETATM    4  C   UNL     1       8.105  30.506  58.382  1.00  0.00    -0.041 A 
HETATM    5  C   UNL     1       6.861  30.447  57.737  1.00  0.00     0.010 A 
HETATM    6  C   UNL     1       6.666  29.583  56.657  1.00  0.00     0.017 A 
ENDROOT
BRANCH   4   7
HETATM    7  C   UNL     1       8.326  31.448  59.542  1.00  0.00     0.160 C 
BRANCH   7   8
HETATM    8  N   UNL     1       7.274  31.260  60.525  1.00  0.00    -0.370 N 
HETATM    9  H   UNL     1       7.505  30.567  61.226  1.00  0.00     0.161 HD
BRANCH   8  10
HETATM   10  C   UNL     1       6.472  32.313  60.920  1.00  0.00     0.139 A 
HETATM   11  N   UNL     1       5.551  32.748  60.107  1.00  0.00    -0.202 NA
HETATM   12  C   UNL     1       4.747  33.807  60.434  1.00  0.00     0.200 A 
HETATM   13  S   UNL     1       3.542  34.393  59.421  1.00  0.00    -0.039 SA
HETATM   14  N   UNL     1       4.923  34.444  61.634  1.00  0.00    -0.331 N 
HETATM   15  C   UNL     1       5.872  34.028  62.563  1.00  0.00     0.048 A 
HETATM   16  H   UNL     1       4.310  35.223  61.831  1.00  0.00     0.168 HD
HETATM   17  C   UNL     1       6.680  32.935  62.259  1.00  0.00     0.036 A 
HETATM   18  C   UNL     1       5.995  34.689  63.784  1.00  0.00     0.030 A 
HETATM   19  C   UNL     1       7.609  32.476  63.198  1.00  0.00     0.017 A 
HETATM   20  C   UNL     1       7.734  33.135  64.425  1.00  0.00     0.001 A 
HETATM   21  C   UNL     1       6.933  34.241  64.714  1.00  0.00     0.002 A 
ENDBRANCH   8  10
ENDBRANCH   7   8
ENDBRANCH   4   7
BRANCH   1  22
HETATM   22  C   UNL     1       7.451  27.857  55.060  1.00  0.00     0.251 C 
HETATM   23  N   UNL     1       6.672  26.750  55.317  1.00  0.00    -0.353 N 
HETATM   24  H   UNL     1       6.207  26.656  56.208  1.00  0.00     0.163 HD
HETATM   25  O   UNL     1       7.895  28.138  53.953  1.00  0.00    -0.268 OA
BRANCH  23  26
HETATM   26  C   UNL     1       6.316  25.808  54.274  1.00  0.00     0.163 C 
BRANCH  26  27
HETATM   27  C   UNL     1       7.030  24.475  54.355  1.00  0.00    -0.019 A 
HETATM   28  C   UNL     1       7.010  23.688  55.520  1.00  0.00     0.010 A 
HETATM   29  C   UNL     1       7.656  22.448  55.569  1.00  0.00     0.001 A 
HETATM   30  C   UNL     1       8.323  21.964  54.448  1.00  0.00     0.002 A 
HETATM   31  C   UNL     1       8.343  22.717  53.277  1.00  0.00     0.024 A 
HETATM   32  C   UNL     1       7.700  23.959  53.229  1.00  0.00     0.042 A 
HETATM   33 CL   UNL     1       7.758  24.823  51.730  1.00  0.00    -0.084 Cl
ENDBRANCH  26  27
ENDBRANCH  23  26
ENDBRANCH   1  22
TORSDOF 6
ENDMDL
MODEL 4
REMARK VINA RESULT:      -9.9      1.807      2.372
REMARK  6 active torsions:
REMARK  status: ('A' for Active; 'I' for Inactive)
REMARK    1  A    between atoms: C_3  and  C_4 
REMARK    2  A    between atoms: C_4  and  N_5 
REMARK       I    between atoms: N_5  and  C_6 
REMARK    3  A    between atoms: C_6  and  C_7 
REMARK    4  A    between atoms: C_10  and  C_11 
REMARK    5  A    between atoms: C_11  and  N_12 
REMARK    6  A    between atoms: N_12  and  C_13 
ROOT
HETATM    1  C   UNL     1       6.611  30.420  58.153  1.00  0.00     0.032 A 
HETATM    2  C   UNL     1       5.751  29.609  57.404  1.00  0.00     0.017 A 
HETATM    3  C   UNL     1       6.202  28.380  56.912  1.00  0.00     0.010 A 
HETATM    4  C   UNL     1       7.512  27.946  57.167  1.00  0.00    -0.041 A 
HETATM    5  C   UNL     1       8.376  28.776  57.894  1.00  0.00     0.010 A 
HETATM    6  C   UNL     1       7.929  30.007  58.382  1.00  0.00     0.017 A 
ENDROOT
BRANCH   4   7
HETATM    7  C   UNL     1       7.994  26.620  56.626  1.00  0.00     0.160 C 
BRANCH   7   8
HETATM    8  N   UNL     1       6.856  25.837  56.181  1.00  0.00    -0.370 N 
HETATM    9  H   UNL     1       5.978  26.151  56.576  1.00  0.00     0.161 HD
BRANCH   8  10
HETATM   10  C   UNL     1       6.817  25.297  54.910  1.00  0.00     0.139 A 
HETATM   11  N   UNL     1       6.254  25.975  53.949  1.00  0.00    -0.202 NA
HETATM   12  C   UNL     1       6.163  25.476  52.677  1.00  0.00     0.200 A 
HETATM   13  S   UNL     1       5.455  26.320  51.409  1.00  0.00    -0.039 SA
HETATM   14  N   UNL     1       6.652  24.226  52.404  1.00  0.00    -0.331 N 
HETATM   15  C   UNL     1       7.283  23.449  53.370  1.00  0.00     0.048 A 
HETATM   16  H   UNL     1       6.558  23.897  51.453  1.00  0.00     0.168 HD
HETATM   17  C   UNL     1       7.410  23.951  54.663  1.00  0.00     0.036 A 
HETATM   18  C   UNL     1       7.792  22.194  53.038  1.00  0.00     0.030 A 
HETATM   19  C   UNL     1       8.080  23.202  55.636  1.00  0.00     0.017 A 
HETATM   20  C   UNL     1       8.594  21.944  55.307  1.00  0.00     0.001 A 
HETATM   21  C   UNL     1       8.446  21.441  54.013  1.00  0.00     0.002 A 
ENDBRANCH   8  10
ENDBRANCH   7   8
ENDBRANCH   4   7
BRANCH   1  22
HETATM   22  C   UNL     1       6.180  31.736  58.695  1.00  0.00     0.251 C 
HETATM   23  N   UNL     1       6.082  31.830  60.065  1.00  0.00    -0.353 N 
HETATM   24  H   UNL     1       6.417  31.076  60.649  1.00  0.00     0.163 HD
HETATM   25  O   UNL     1       5.972  32.670  57.930  1.00  0.00    -0.268 OA
BRANCH  23  26
HETATM   26  C   UNL     1       5.709  33.067  60.722  1.00  0.00     0.163 C 
BRANCH  26  27
HETATM   27  C   UNL     1       6.322  33.265  62.093  1.00  0.00    -0.019 A 
HETATM   28  C   UNL     1       7.413  32.498  62.540  1.00  0.00     0.010 A 
HETATM   29  C   UNL     1       7.981  32.711  63.800  1.00  0.00     0.001 A 
HETATM   30  C   UNL     1       7.479  33.704  64.634  1.00  0.00     0.002 A 
HETATM   31  C   UNL     1       6.409  34.487  64.208  1.00  0.00     0.024 A 
HETATM   32  C   UNL     1       5.838  34.274  62.948  1.00  0.00     0.042 A 
HETATM   33 CL   UNL     1       4.524  35.302  62.489  1.00  0.00    -0.084 Cl
ENDBRANCH  26  27
ENDBRANCH  23  26
ENDBRANCH   1  22
TORSDOF 6
ENDMDL
MODEL 5
REMARK VINA RESULT:      -9.4      1.943      2.703
REMARK  6 active torsions:
REMARK  status: ('A' for Active; 'I' for Inactive)
REMARK    1  A    between atoms: C_3  and  C_4 
REMARK    2  A    between atoms: C_4  and  N_5 
REMARK       I    between atoms: N_5  and  C_6 
REMARK    3  A    between atoms: C_6  and  C_7 
REMARK    4  A    between atoms: C_10  and  C_11 
REMARK    5  A    between atoms: C_11  and  N_12 
REMARK    6  A    between atoms: N_12  and  C_13 
ROOT
HETATM    1  C   UNL     1       8.084  30.708  58.693  1.00  0.00     0.032 A 
HETATM    2  C   UNL     1       6.863  30.593  58.018  1.00  0.00     0.017 A 
HETATM    3  C   UNL     1       6.783  29.834  56.847  1.00  0.00     0.010 A 
HETATM    4  C   UNL     1       7.916  29.177  56.341  1.00  0.00    -0.041 A 
HETATM    5  C   UNL     1       9.141  29.320  57.008  1.00  0.00     0.010 A 
HETATM    6  C   UNL     1       9.224  30.083  58.175  1.00  0.00     0.017 A 
ENDROOT
BRANCH   4   7
HETATM    7  C   UNL     1       7.822  28.364  55.071  1.00  0.00     0.160 C 
BRANCH   7   8
HETATM    8  N   UNL     1       7.542  26.979  55.403  1.00  0.00    -0.370 N 
HETATM    9  H   UNL     1       7.078  26.871  56.297  1.00  0.00     0.161 HD
BRANCH   8  10
HETATM   10  C   UNL     1       7.237  26.058  54.419  1.00  0.00     0.139 A 
HETATM   11  N   UNL     1       6.574  26.450  53.368  1.00  0.00    -0.202 NA
HETATM   12  C   UNL     1       6.221  25.575  52.376  1.00  0.00     0.200 A 
HETATM   13  S   UNL     1       5.375  26.039  51.001  1.00  0.00    -0.039 SA
HETATM   14  N   UNL     1       6.550  24.250  52.493  1.00  0.00    -0.331 N 
HETATM   15  C   UNL     1       7.273  23.759  53.575  1.00  0.00     0.048 A 
HETATM   16  H   UNL     1       6.264  23.641  51.739  1.00  0.00     0.168 HD
HETATM   17  C   UNL     1       7.665  24.639  54.581  1.00  0.00     0.036 A 
HETATM   18  C   UNL     1       7.611  22.407  53.637  1.00  0.00     0.030 A 
HETATM   19  C   UNL     1       8.430  24.171  55.654  1.00  0.00     0.017 A 
HETATM   20  C   UNL     1       8.773  22.817  55.719  1.00  0.00     0.001 A 
HETATM   21  C   UNL     1       8.360  21.938  54.716  1.00  0.00     0.002 A 
ENDBRANCH   8  10
ENDBRANCH   7   8
ENDBRANCH   4   7
BRANCH   1  22
HETATM   22  C   UNL     1       8.223  31.507  59.940  1.00  0.00     0.251 C 
HETATM   23  N   UNL     1       7.382  31.169  60.978  1.00  0.00    -0.353 N 
HETATM   24  H   UNL     1       6.810  30.339  60.915  1.00  0.00     0.163 HD
HETATM   25  O   UNL     1       9.077  32.383  60.010  1.00  0.00    -0.268 OA
BRANCH  23  26
HETATM   26  C   UNL     1       7.440  31.844  62.259  1.00  0.00     0.163 C 
BRANCH  26  27
HETATM   27  C   UNL     1       6.164  32.557  62.658  1.00  0.00    -0.019 A 
HETATM   28  C   UNL     1       4.989  32.465  61.891  1.00  0.00     0.010 A 
HETATM   29  C   UNL     1       3.813  33.110  62.287  1.00  0.00     0.001 A 
HETATM   30  C   UNL     1       3.785  33.850  63.465  1.00  0.00     0.002 A 
HETATM   31  C   UNL     1       4.931  33.942  64.249  1.00  0.00     0.024 A 
HETATM   32  C   UNL     1       6.109  33.299  63.853  1.00  0.00     0.042 A 
HETATM   33 CL   UNL     1       7.483  33.450  64.894  1.00  0.00    -0.084 Cl
ENDBRANCH  26  27
ENDBRANCH  23  26
ENDBRANCH   1  22
TORSDOF 6
ENDMDL
MODEL 6
REMARK VINA RESULT:      -9.3      4.412     11.781
REMARK  6 active torsions:
REMARK  status: ('A' for Active; 'I' for Inactive)
REMARK    1  A    between atoms: C_3  and  C_4 
REMARK    2  A    between atoms: C_4  and  N_5 
REMARK       I    between atoms: N_5  and  C_6 
REMARK    3  A    between atoms: C_6  and  C_7 
REMARK    4  A    between atoms: C_10  and  C_11 
REMARK    5  A    between atoms: C_11  and  N_12 
REMARK    6  A    between atoms: N_12  and  C_13 
ROOT
HETATM    1  C   UNL     1       8.599  30.986  59.650  1.00  0.00     0.032 A 
HETATM    2  C   UNL     1       7.341  31.599  59.696  1.00  0.00     0.017 A 
HETATM    3  C   UNL     1       6.928  32.259  60.858  1.00  0.00     0.010 A 
HETATM    4  C   UNL     1       7.766  32.318  61.982  1.00  0.00    -0.041 A 
HETATM    5  C   UNL     1       9.012  31.678  61.938  1.00  0.00     0.010 A 
HETATM    6  C   UNL     1       9.424  31.014  60.780  1.00  0.00     0.017 A 
ENDROOT
BRANCH   4   7
HETATM    7  C   UNL     1       7.309  33.027  63.236  1.00  0.00     0.160 C 
BRANCH   7   8
HETATM    8  N   UNL     1       6.030  32.486  63.659  1.00  0.00    -0.370 N 
HETATM    9  H   UNL     1       6.119  31.641  64.211  1.00  0.00     0.161 HD
BRANCH   8  10
HETATM   10  C   UNL     1       4.966  33.318  63.946  1.00  0.00     0.139 A 
HETATM   11  N   UNL     1       4.009  33.450  63.070  1.00  0.00    -0.202 NA
HETATM   12  C   UNL     1       2.945  34.283  63.291  1.00  0.00     0.200 A 
HETATM   13  S   UNL     1       1.688  34.475  62.194  1.00  0.00    -0.039 SA
HETATM   14  N   UNL     1       2.887  35.015  64.447  1.00  0.00    -0.331 N 
HETATM   15  C   UNL     1       3.858  34.914  65.438  1.00  0.00     0.048 A 
HETATM   16  H   UNL     1       2.086  35.619  64.564  1.00  0.00     0.168 HD
HETATM   17  C   UNL     1       4.934  34.052  65.244  1.00  0.00     0.036 A 
HETATM   18  C   UNL     1       3.741  35.657  66.613  1.00  0.00     0.030 A 
HETATM   19  C   UNL     1       5.897  33.905  66.248  1.00  0.00     0.017 A 
HETATM   20  C   UNL     1       5.782  34.646  67.428  1.00  0.00     0.001 A 
HETATM   21  C   UNL     1       4.710  35.523  67.607  1.00  0.00     0.002 A 
ENDBRANCH   8  10
ENDBRANCH   7   8
ENDBRANCH   4   7
BRANCH   1  22
HETATM   22  C   UNL     1       9.082  30.270  58.440  1.00  0.00     0.251 C 
HETATM   23  N   UNL     1       8.410  29.115  58.105  1.00  0.00    -0.353 N 
HETATM   24  H   UNL     1       7.560  28.866  58.591  1.00  0.00     0.163 HD
HETATM   25  O   UNL     1      10.007  30.736  57.785  1.00  0.00    -0.268 OA
BRANCH  23  26
HETATM   26  C   UNL     1       8.757  28.343  56.928  1.00  0.00     0.163 C 
BRANCH  26  27
HETATM   27  C   UNL     1       7.897  27.116  56.701  1.00  0.00    -0.019 A 
HETATM   28  C   UNL     1       8.230  25.862  57.243  1.00  0.00     0.010 A 
HETATM   29  C   UNL     1       7.411  24.746  57.042  1.00  0.00     0.001 A 
HETATM   30  C   UNL     1       6.236  24.864  56.307  1.00  0.00     0.002 A 
HETATM   31  C   UNL     1       5.878  26.099  55.773  1.00  0.00     0.024 A 
HETATM   32  C   UNL     1       6.697  27.216  55.971  1.00  0.00     0.042 A 
HETATM   33 CL   UNL     1       6.169  28.717  55.290  1.00  0.00    -0.084 Cl
ENDBRANCH  26  27
ENDBRANCH  23  26
ENDBRANCH   1  22
TORSDOF 6
ENDMDL
MODEL 7
REMARK VINA RESULT:      -9.2      5.774      9.788
REMARK  6 active torsions:
REMARK  status: ('A' for Active; 'I' for Inactive)
REMARK    1  A    between atoms: C_3  and  C_4 
REMARK    2  A    between atoms: C_4  and  N_5 
REMARK       I    between atoms: N_5  and  C_6 
REMARK    3  A    between atoms: C_6  and  C_7 
REMARK    4  A    between atoms: C_10  and  C_11 
REMARK    5  A    between atoms: C_11  and  N_12 
REMARK    6  A    between atoms: N_12  and  C_13 
ROOT
HETATM    1  C   UNL     1       5.215  26.496  54.720  1.00  0.00     0.032 A 
HETATM    2  C   UNL     1       4.851  27.747  55.233  1.00  0.00     0.017 A 
HETATM    3  C   UNL     1       4.309  28.717  54.384  1.00  0.00     0.010 A 
HETATM    4  C   UNL     1       4.121  28.449  53.019  1.00  0.00    -0.041 A 
HETATM    5  C   UNL     1       4.514  27.204  52.509  1.00  0.00     0.010 A 
HETATM    6  C   UNL     1       5.060  26.235  53.354  1.00  0.00     0.017 A 
ENDROOT
BRANCH   4   7
HETATM    7  C   UNL     1       3.541  29.506  52.108  1.00  0.00     0.160 C 
BRANCH   7   8
HETATM    8  N   UNL     1       3.918  29.221  50.736  1.00  0.00    -0.370 N 
HETATM    9  H   UNL     1       4.699  28.581  50.663  1.00  0.00     0.161 HD
BRANCH   8  10
HETATM   10  C   UNL     1       2.970  29.175  49.732  1.00  0.00     0.139 A 
HETATM   11  N   UNL     1       2.138  30.170  49.599  1.00  0.00    -0.202 NA
HETATM   12  C   UNL     1       1.160  30.165  48.641  1.00  0.00     0.200 A 
HETATM   13  S   UNL     1       0.075  31.429  48.429  1.00  0.00    -0.039 SA
HETATM   14  N   UNL     1       1.033  29.082  47.811  1.00  0.00    -0.331 N 
HETATM   15  C   UNL     1       1.893  27.991  47.878  1.00  0.00     0.048 A 
HETATM   16  H   UNL     1       0.294  29.120  47.122  1.00  0.00     0.168 HD
HETATM   17  C   UNL     1       2.911  27.991  48.829  1.00  0.00     0.036 A 
HETATM   18  C   UNL     1       1.743  26.924  46.992  1.00  0.00     0.030 A 
HETATM   19  C   UNL     1       3.812  26.922  48.881  1.00  0.00     0.017 A 
HETATM   20  C   UNL     1       3.666  25.852  47.994  1.00  0.00     0.001 A 
HETATM   21  C   UNL     1       2.632  25.851  47.056  1.00  0.00     0.002 A 
ENDBRANCH   8  10
ENDBRANCH   7   8
ENDBRANCH   4   7
BRANCH   1  22
HETATM   22  C   UNL     1       5.799  25.432  55.580  1.00  0.00     0.251 C 
HETATM   23  N   UNL     1       6.861  24.733  55.050  1.00  0.00    -0.353 N 
HETATM   24  H   UNL     1       7.284  25.036  54.184  1.00  0.00     0.163 HD
HETATM   25  O   UNL     1       5.352  25.246  56.706  1.00  0.00    -0.268 OA
BRANCH  23  26
HETATM   26  C   UNL     1       7.544  23.697  55.799  1.00  0.00     0.163 C 
BRANCH  26  27
HETATM   27  C   UNL     1       7.877  22.454  54.999  1.00  0.00    -0.019 A 
HETATM   28  C   UNL     1       7.860  22.446  53.593  1.00  0.00     0.010 A 
HETATM   29  C   UNL     1       8.194  21.295  52.871  1.00  0.00     0.001 A 
HETATM   30  C   UNL     1       8.565  20.134  53.540  1.00  0.00     0.002 A 
HETATM   31  C   UNL     1       8.606  20.122  54.932  1.00  0.00     0.024 A 
HETATM   32  C   UNL     1       8.269  21.272  55.656  1.00  0.00     0.042 A 
HETATM   33 CL   UNL     1       8.363  21.177  57.381  1.00  0.00    -0.084 Cl
ENDBRANCH  26  27
ENDBRANCH  23  26
ENDBRANCH   1  22
TORSDOF 6
ENDMDL
MODEL 8
REMARK VINA RESULT:      -9.2      4.144     10.333
REMARK  6 active torsions:
REMARK  status: ('A' for Active; 'I' for Inactive)
REMARK    1  A    between atoms: C_3  and  C_4 
REMARK    2  A    between atoms: C_4  and  N_5 
REMARK       I    between atoms: N_5  and  C_6 
REMARK    3  A    between atoms: C_6  and  C_7 
REMARK    4  A    between atoms: C_10  and  C_11 
REMARK    5  A    between atoms: C_11  and  N_12 
REMARK    6  A    between atoms: N_12  and  C_13 
ROOT
HETATM    1  C   UNL     1       6.325  27.088  55.219  1.00  0.00     0.032 A 
HETATM    2  C   UNL     1       7.425  27.611  55.910  1.00  0.00     0.017 A 
HETATM    3  C   UNL     1       7.332  28.866  56.520  1.00  0.00     0.010 A 
HETATM    4  C   UNL     1       6.142  29.608  56.453  1.00  0.00    -0.041 A 
HETATM    5  C   UNL     1       5.055  29.088  55.736  1.00  0.00     0.010 A 
HETATM    6  C   UNL     1       5.148  27.838  55.121  1.00  0.00     0.017 A 
ENDROOT
BRANCH   4   7
HETATM    7  C   UNL     1       6.053  30.966  57.109  1.00  0.00     0.160 C 
BRANCH   7   8
HETATM    8  N   UNL     1       5.453  30.828  58.424  1.00  0.00    -0.370 N 
HETATM    9  H   UNL     1       5.281  29.865  58.684  1.00  0.00     0.161 HD
BRANCH   8  10
HETATM   10  C   UNL     1       5.761  31.710  59.442  1.00  0.00     0.139 A 
HETATM   11  N   UNL     1       4.882  32.608  59.791  1.00  0.00    -0.202 NA
HETATM   12  C   UNL     1       5.145  33.525  60.773  1.00  0.00     0.200 A 
HETATM   13  S   UNL     1       4.039  34.691  61.260  1.00  0.00    -0.039 SA
HETATM   14  N   UNL     1       6.366  33.520  61.394  1.00  0.00    -0.331 N 
HETATM   15  C   UNL     1       7.349  32.583  61.091  1.00  0.00     0.048 A 
HETATM   16  H   UNL     1       6.517  34.218  62.109  1.00  0.00     0.168 HD
HETATM   17  C   UNL     1       7.089  31.625  60.114  1.00  0.00     0.036 A 
HETATM   18  C   UNL     1       8.566  32.598  61.771  1.00  0.00     0.030 A 
HETATM   19  C   UNL     1       8.049  30.648  59.827  1.00  0.00     0.017 A 
HETATM   20  C   UNL     1       9.270  30.659  60.508  1.00  0.00     0.001 A 
HETATM   21  C   UNL     1       9.529  31.634  61.473  1.00  0.00     0.002 A 
ENDBRANCH   8  10
ENDBRANCH   7   8
ENDBRANCH   4   7
BRANCH   1  22
HETATM   22  C   UNL     1       6.375  25.760  54.551  1.00  0.00     0.251 C 
HETATM   23  N   UNL     1       7.619  25.180  54.436  1.00  0.00    -0.353 N 
HETATM   24  H   UNL     1       8.413  25.592  54.905  1.00  0.00     0.163 HD
HETATM   25  O   UNL     1       5.337  25.230  54.172  1.00  0.00    -0.268 OA
BRANCH  23  26
HETATM   26  C   UNL     1       7.800  23.872  53.838  1.00  0.00     0.163 C 
BRANCH  26  27
HETATM   27  C   UNL     1       8.038  22.752  54.829  1.00  0.00    -0.019 A 
HETATM   28  C   UNL     1       8.140  22.989  56.212  1.00  0.00     0.010 A 
HETATM   29  C   UNL     1       8.336  21.938  57.114  1.00  0.00     0.001 A 
HETATM   30  C   UNL     1       8.420  20.628  56.655  1.00  0.00     0.002 A 
HETATM   31  C   UNL     1       8.306  20.367  55.292  1.00  0.00     0.024 A 
HETATM   32  C   UNL     1       8.112  21.417  54.387  1.00  0.00     0.042 A 
HETATM   33 CL   UNL     1       7.963  21.003  52.713  1.00  0.00    -0.084 Cl
ENDBRANCH  26  27
ENDBRANCH  23  26
ENDBRANCH   1  22
TORSDOF 6
ENDMDL
MODEL 9
REMARK VINA RESULT:      -8.9      2.747      3.492
REMARK  6 active torsions:
REMARK  status: ('A' for Active; 'I' for Inactive)
REMARK    1  A    between atoms: C_3  and  C_4 
REMARK    2  A    between atoms: C_4  and  N_5 
REMARK       I    between atoms: N_5  and  C_6 
REMARK    3  A    between atoms: C_6  and  C_7 
REMARK    4  A    between atoms: C_10  and  C_11 
REMARK    5  A    between atoms: C_11  and  N_12 
REMARK    6  A    between atoms: N_12  and  C_13 
ROOT
HETATM    1  C   UNL     1       5.004  31.180  58.450  1.00  0.00     0.032 A 
HETATM    2  C   UNL     1       6.395  31.061  58.356  1.00  0.00     0.017 A 
HETATM    3  C   UNL     1       6.962  30.287  57.339  1.00  0.00     0.010 A 
HETATM    4  C   UNL     1       6.149  29.628  56.404  1.00  0.00    -0.041 A 
HETATM    5  C   UNL     1       4.755  29.729  56.522  1.00  0.00     0.010 A 
HETATM    6  C   UNL     1       4.187  30.498  57.540  1.00  0.00     0.017 A 
ENDROOT
BRANCH   4   7
HETATM    7  C   UNL     1       6.769  28.787  55.313  1.00  0.00     0.160 C 
BRANCH   7   8
HETATM    8  N   UNL     1       5.956  27.605  55.091  1.00  0.00    -0.370 N 
HETATM    9  H   UNL     1       5.026  27.683  55.485  1.00  0.00     0.161 HD
BRANCH   8  10
HETATM   10  C   UNL     1       6.091  26.854  53.940  1.00  0.00     0.139 A 
HETATM   11  N   UNL     1       5.542  27.278  52.836  1.00  0.00    -0.202 NA
HETATM   12  C   UNL     1       5.621  26.560  51.673  1.00  0.00     0.200 A 
HETATM   13  S   UNL     1       4.936  27.075  50.229  1.00  0.00    -0.039 SA
HETATM   14  N   UNL     1       6.272  25.355  51.666  1.00  0.00    -0.331 N 
HETATM   15  C   UNL     1       6.900  24.843  52.797  1.00  0.00     0.048 A 
HETATM   16  H   UNL     1       6.300  24.858  50.786  1.00  0.00     0.168 HD
HETATM   17  C   UNL     1       6.854  25.573  53.983  1.00  0.00     0.036 A 
HETATM   18  C   UNL     1       7.576  23.626  52.734  1.00  0.00     0.030 A 
HETATM   19  C   UNL     1       7.516  25.095  55.118  1.00  0.00     0.017 A 
HETATM   20  C   UNL     1       8.197  23.876  55.058  1.00  0.00     0.001 A 
HETATM   21  C   UNL     1       8.223  23.142  53.871  1.00  0.00     0.002 A 
ENDBRANCH   8  10
ENDBRANCH   7   8
ENDBRANCH   4   7
BRANCH   1  22
HETATM   22  C   UNL     1       4.352  31.989  59.515  1.00  0.00     0.251 C 
HETATM   23  N   UNL     1       5.187  32.527  60.469  1.00  0.00    -0.353 N 
HETATM   24  H   UNL     1       6.189  32.472  60.353  1.00  0.00     0.163 HD
HETATM   25  O   UNL     1       3.141  32.172  59.485  1.00  0.00    -0.268 OA
BRANCH  23  26
HETATM   26  C   UNL     1       4.684  33.365  61.539  1.00  0.00     0.163 C 
BRANCH  26  27
HETATM   27  C   UNL     1       5.539  33.377  62.789  1.00  0.00    -0.019 A 
HETATM   28  C   UNL     1       6.897  33.009  62.767  1.00  0.00     0.010 A 
HETATM   29  C   UNL     1       7.677  33.050  63.926  1.00  0.00     0.001 A 
HETATM   30  C   UNL     1       7.121  33.471  65.130  1.00  0.00     0.002 A 
HETATM   31  C   UNL     1       5.783  33.855  65.174  1.00  0.00     0.024 A 
HETATM   32  C   UNL     1       5.000  33.813  64.015  1.00  0.00     0.042 A 
HETATM   33 CL   UNL     1       3.353  34.325  64.153  1.00  0.00    -0.084 Cl
ENDBRANCH  26  27
ENDBRANCH  23  26
ENDBRANCH   1  22
TORSDOF 6
ENDMDL
MODEL 10
REMARK VINA RESULT:      -8.5      6.961     10.530
REMARK  6 active torsions:
REMARK  status: ('A' for Active; 'I' for Inactive)
REMARK    1  A    between atoms: C_3  and  C_4 
REMARK    2  A    between atoms: C_4  and  N_5 
REMARK       I    between atoms: N_5  and  C_6 
REMARK    3  A    between atoms: C_6  and  C_7 
REMARK    4  A    between atoms: C_10  and  C_11 
REMARK    5  A    between atoms: C_11  and  N_12 
REMARK    6  A    between atoms: N_12  and  C_13 
ROOT
HETATM    1  C   UNL     1       5.112  27.038  52.275  1.00  0.00     0.032 A 
HETATM    2  C   UNL     1       5.613  26.953  50.970  1.00  0.00     0.017 A 
HETATM    3  C   UNL     1       5.480  28.038  50.099  1.00  0.00     0.010 A 
HETATM    4  C   UNL     1       4.852  29.220  50.520  1.00  0.00    -0.041 A 
HETATM    5  C   UNL     1       4.328  29.288  51.819  1.00  0.00     0.010 A 
HETATM    6  C   UNL     1       4.455  28.203  52.689  1.00  0.00     0.017 A 
ENDROOT
BRANCH   4   7
HETATM    7  C   UNL     1       4.706  30.386  49.570  1.00  0.00     0.160 C 
BRANCH   7   8
HETATM    8  N   UNL     1       4.743  29.902  48.202  1.00  0.00    -0.370 N 
HETATM    9  H   UNL     1       5.252  29.032  48.101  1.00  0.00     0.161 HD
BRANCH   8  10
HETATM   10  C   UNL     1       3.682  30.115  47.343  1.00  0.00     0.139 A 
HETATM   11  N   UNL     1       3.670  31.187  46.602  1.00  0.00    -0.202 NA
HETATM   12  C   UNL     1       2.631  31.463  45.755  1.00  0.00     0.200 A 
HETATM   13  S   UNL     1       2.581  32.828  44.777  1.00  0.00    -0.039 SA
HETATM   14  N   UNL     1       1.563  30.607  45.694  1.00  0.00    -0.331 N 
HETATM   15  C   UNL     1       1.510  29.432  46.438  1.00  0.00     0.048 A 
HETATM   16  H   UNL     1       0.817  30.853  45.058  1.00  0.00     0.168 HD
HETATM   17  C   UNL     1       2.571  29.122  47.285  1.00  0.00     0.036 A 
HETATM   18  C   UNL     1       0.416  28.576  46.320  1.00  0.00     0.030 A 
HETATM   19  C   UNL     1       2.555  27.924  48.007  1.00  0.00     0.017 A 
HETATM   20  C   UNL     1       1.461  27.062  47.891  1.00  0.00     0.001 A 
HETATM   21  C   UNL     1       0.393  27.390  47.053  1.00  0.00     0.002 A 
ENDBRANCH   8  10
ENDBRANCH   7   8
ENDBRANCH   4   7
BRANCH   1  22
HETATM   22  C   UNL     1       5.225  25.911  53.238  1.00  0.00     0.251 C 
HETATM   23  N   UNL     1       6.345  25.903  54.040  1.00  0.00    -0.353 N 
HETATM   24  H   UNL     1       6.967  26.699  54.046  1.00  0.00     0.163 HD
HETATM   25  O   UNL     1       4.330  25.077  53.308  1.00  0.00    -0.268 OA
BRANCH  23  26
HETATM   26  C   UNL     1       6.558  24.882  55.046  1.00  0.00     0.163 C 
BRANCH  26  27
HETATM   27  C   UNL     1       7.425  23.724  54.598  1.00  0.00    -0.019 A 
HETATM   28  C   UNL     1       7.229  23.079  53.364  1.00  0.00     0.010 A 
HETATM   29  C   UNL     1       8.055  22.027  52.957  1.00  0.00     0.001 A 
HETATM   30  C   UNL     1       9.104  21.607  53.769  1.00  0.00     0.002 A 
HETATM   31  C   UNL     1       9.328  22.241  54.988  1.00  0.00     0.024 A 
HETATM   32  C   UNL     1       8.501  23.292  55.398  1.00  0.00     0.042 A 
HETATM   33 CL   UNL     1       8.860  24.036  56.918  1.00  0.00    -0.084 Cl
ENDBRANCH  26  27
ENDBRANCH  23  26
ENDBRANCH   1  22
TORSDOF 6
ENDMDL
