MODEL 1
REMARK VINA RESULT:      -9.5      0.000      0.000
REMARK  7 active torsions:
REMARK  status: ('A' for Active; 'I' for Inactive)
REMARK    1  A    between atoms: O_2  and  C_3 
REMARK    2  A    between atoms: C_6  and  N_7 
REMARK       I    between atoms: N_7  and  C_8 
REMARK    3  A    between atoms: C_8  and  C_9 
REMARK    4  A    between atoms: C_9  and  C_10 
REMARK    5  A    between atoms: C_10  and  N_11 
REMARK    6  A    between atoms: C_10  and  C_20 
REMARK       I    between atoms: N_11  and  C_12 
REMARK    7  A    between atoms: C_12  and  C_13 
ROOT
HETATM    1  C   UNL     1       7.382  24.815  55.062  1.00  0.00     0.126 C 
ENDROOT
BRANCH   1   2
HETATM    2  C   UNL     1       6.856  24.953  56.488  1.00  0.00     0.133 C 
BRANCH   2   3
HETATM    3  C   UNL     1       7.400  26.097  57.329  1.00  0.00     0.224 C 
HETATM    4  N   UNL     1       7.247  27.371  56.827  1.00  0.00    -0.326 N 
HETATM    5  H   UNL     1       6.546  27.531  56.111  1.00  0.00     0.169 HD
HETATM    6  O   UNL     1       8.015  25.823  58.360  1.00  0.00    -0.273 OA
BRANCH   4   7
HETATM    7  C   UNL     1       7.897  28.534  57.305  1.00  0.00     0.052 A 
HETATM    8  C   UNL     1       7.309  29.502  58.118  1.00  0.00     0.149 A 
HETATM    9  N   UNL     1       7.960  30.587  58.613  1.00  0.00    -0.235 NA
HETATM   10  C   UNL     1       9.258  30.720  58.278  1.00  0.00     0.163 A 
HETATM   11  C   UNL     1       9.933  29.823  57.468  1.00  0.00     0.060 A 
HETATM   12  C   UNL     1       9.242  28.713  56.980  1.00  0.00     0.035 A 
BRANCH  10  13
HETATM   13  O   UNL     1       9.986  31.792  58.752  1.00  0.00    -0.339 OA
HETATM   14  C   UNL     1       9.629  32.159  60.081  1.00  0.00     0.211 C 
ENDBRANCH  10  13
ENDBRANCH   4   7
ENDBRANCH   2   3
ENDBRANCH   1   2
BRANCH   1  15
HETATM   15  N   UNL     1       6.484  25.422  54.091  1.00  0.00    -0.348 N 
HETATM   16  C   UNL     1       6.833  26.581  53.430  1.00  0.00     0.252 C 
HETATM   17  O   UNL     1       7.759  27.307  53.771  1.00  0.00    -0.268 OA
HETATM   18  H   UNL     1       5.828  24.808  53.625  1.00  0.00     0.163 HD
BRANCH  16  19
HETATM   19  C   UNL     1       6.024  26.888  52.227  1.00  0.00     0.032 A 
HETATM   20  C   UNL     1       5.643  25.874  51.340  1.00  0.00     0.017 A 
HETATM   21  C   UNL     1       4.907  26.194  50.199  1.00  0.00     0.001 A 
HETATM   22  C   UNL     1       4.556  27.521  49.944  1.00  0.00     0.000 A 
HETATM   23  C   UNL     1       4.928  28.530  50.834  1.00  0.00     0.001 A 
HETATM   24  C   UNL     1       5.656  28.214  51.982  1.00  0.00     0.017 A 
ENDBRANCH  16  19
ENDBRANCH   1  15
BRANCH   1  25
HETATM   25  C   UNL     1       7.613  23.355  54.691  1.00  0.00    -0.035 A 
HETATM   26  C   UNL     1       7.771  22.993  53.344  1.00  0.00     0.009 A 
HETATM   27  C   UNL     1       7.988  21.662  52.983  1.00  0.00     0.001 A 
HETATM   28  C   UNL     1       8.040  20.673  53.964  1.00  0.00     0.000 A 
HETATM   29  C   UNL     1       7.873  21.014  55.304  1.00  0.00     0.001 A 
HETATM   30  C   UNL     1       7.660  22.345  55.666  1.00  0.00     0.009 A 
ENDBRANCH   1  25
TORSDOF 7
ENDMDL
MODEL 2
REMARK VINA RESULT:      -9.0      2.863      8.287
REMARK  7 active torsions:
REMARK  status: ('A' for Active; 'I' for Inactive)
REMARK    1  A    between atoms: O_2  and  C_3 
REMARK    2  A    between atoms: C_6  and  N_7 
REMARK       I    between atoms: N_7  and  C_8 
REMARK    3  A    between atoms: C_8  and  C_9 
REMARK    4  A    between atoms: C_9  and  C_10 
REMARK    5  A    between atoms: C_10  and  N_11 
REMARK    6  A    between atoms: C_10  and  C_20 
REMARK       I    between atoms: N_11  and  C_12 
REMARK    7  A    between atoms: C_12  and  C_13 
ROOT
HETATM    1  C   UNL     1       7.366  27.509  53.920  1.00  0.00     0.126 C 
ENDROOT
BRANCH   1   2
HETATM    2  C   UNL     1       6.106  28.232  53.452  1.00  0.00     0.133 C 
BRANCH   2   3
HETATM    3  C   UNL     1       5.203  27.503  52.469  1.00  0.00     0.224 C 
HETATM    4  N   UNL     1       5.266  27.896  51.150  1.00  0.00    -0.326 N 
HETATM    5  H   UNL     1       6.083  28.409  50.835  1.00  0.00     0.169 HD
HETATM    6  O   UNL     1       4.412  26.669  52.910  1.00  0.00    -0.273 OA
BRANCH   4   7
HETATM    7  C   UNL     1       4.346  27.543  50.135  1.00  0.00     0.052 A 
HETATM    8  C   UNL     1       3.262  28.322  49.732  1.00  0.00     0.149 A 
HETATM    9  N   UNL     1       2.416  27.995  48.720  1.00  0.00    -0.235 NA
HETATM   10  C   UNL     1       2.655  26.833  48.081  1.00  0.00     0.163 A 
HETATM   11  C   UNL     1       3.696  25.982  48.410  1.00  0.00     0.060 A 
HETATM   12  C   UNL     1       4.554  26.346  49.448  1.00  0.00     0.035 A 
BRANCH  10  13
HETATM   13  O   UNL     1       1.844  26.441  47.036  1.00  0.00    -0.339 OA
HETATM   14  C   UNL     1       0.757  27.335  46.814  1.00  0.00     0.211 C 
ENDBRANCH  10  13
ENDBRANCH   4   7
ENDBRANCH   2   3
ENDBRANCH   1   2
BRANCH   1  15
HETATM   15  N   UNL     1       7.149  26.079  54.068  1.00  0.00    -0.348 N 
HETATM   16  C   UNL     1       7.785  25.176  53.242  1.00  0.00     0.252 C 
HETATM   17  O   UNL     1       8.351  25.487  52.201  1.00  0.00    -0.268 OA
HETATM   18  H   UNL     1       6.874  25.748  54.985  1.00  0.00     0.163 HD
BRANCH  16  19
HETATM   19  C   UNL     1       7.776  23.772  53.718  1.00  0.00     0.032 A 
HETATM   20  C   UNL     1       7.644  23.477  55.081  1.00  0.00     0.017 A 
HETATM   21  C   UNL     1       7.669  22.149  55.505  1.00  0.00     0.001 A 
HETATM   22  C   UNL     1       7.829  21.120  54.574  1.00  0.00     0.000 A 
HETATM   23  C   UNL     1       7.952  21.416  53.216  1.00  0.00     0.001 A 
HETATM   24  C   UNL     1       7.918  22.743  52.784  1.00  0.00     0.017 A 
ENDBRANCH  16  19
ENDBRANCH   1  15
BRANCH   1  25
HETATM   25  C   UNL     1       7.880  28.081  55.236  1.00  0.00    -0.035 A 
HETATM   26  C   UNL     1       7.304  27.669  56.449  1.00  0.00     0.009 A 
HETATM   27  C   UNL     1       7.763  28.178  57.665  1.00  0.00     0.001 A 
HETATM   28  C   UNL     1       8.797  29.112  57.686  1.00  0.00     0.000 A 
HETATM   29  C   UNL     1       9.371  29.539  56.492  1.00  0.00     0.001 A 
HETATM   30  C   UNL     1       8.916  29.029  55.275  1.00  0.00     0.009 A 
ENDBRANCH   1  25
TORSDOF 7
ENDMDL
MODEL 3
REMARK VINA RESULT:      -8.9      2.970      7.761
REMARK  7 active torsions:
REMARK  status: ('A' for Active; 'I' for Inactive)
REMARK    1  A    between atoms: O_2  and  C_3 
REMARK    2  A    between atoms: C_6  and  N_7 
REMARK       I    between atoms: N_7  and  C_8 
REMARK    3  A    between atoms: C_8  and  C_9 
REMARK    4  A    between atoms: C_9  and  C_10 
REMARK    5  A    between atoms: C_10  and  N_11 
REMARK    6  A    between atoms: C_10  and  C_20 
REMARK       I    between atoms: N_11  and  C_12 
REMARK    7  A    between atoms: C_12  and  C_13 
ROOT
HETATM    1  C   UNL     1       6.990  25.223  53.487  1.00  0.00     0.126 C 
ENDROOT
BRANCH   1   2
HETATM    2  C   UNL     1       6.977  25.446  51.978  1.00  0.00     0.133 C 
BRANCH   2   3
HETATM    3  C   UNL     1       5.624  25.598  51.302  1.00  0.00     0.224 C 
HETATM    4  N   UNL     1       5.566  26.411  50.191  1.00  0.00    -0.326 N 
HETATM    5  H   UNL     1       6.427  26.622  49.698  1.00  0.00     0.169 HD
HETATM    6  O   UNL     1       4.646  25.063  51.825  1.00  0.00    -0.273 OA
BRANCH   4   7
HETATM    7  C   UNL     1       4.386  26.894  49.578  1.00  0.00     0.052 A 
HETATM    8  C   UNL     1       3.769  28.109  49.874  1.00  0.00     0.149 A 
HETATM    9  N   UNL     1       2.664  28.585  49.241  1.00  0.00    -0.235 NA
HETATM   10  C   UNL     1       2.143  27.811  48.269  1.00  0.00     0.163 A 
HETATM   11  C   UNL     1       2.671  26.584  47.904  1.00  0.00     0.060 A 
HETATM   12  C   UNL     1       3.810  26.123  48.566  1.00  0.00     0.035 A 
BRANCH  10  13
HETATM   13  O   UNL     1       1.028  28.234  47.575  1.00  0.00    -0.339 OA
HETATM   14  C   UNL     1       0.632  27.321  46.555  1.00  0.00     0.211 C 
ENDBRANCH  10  13
ENDBRANCH   4   7
ENDBRANCH   2   3
ENDBRANCH   1   2
BRANCH   1  15
HETATM   15  N   UNL     1       7.613  26.331  54.195  1.00  0.00    -0.348 N 
HETATM   16  C   UNL     1       6.850  27.247  54.889  1.00  0.00     0.252 C 
HETATM   17  O   UNL     1       5.637  27.358  54.762  1.00  0.00    -0.268 OA
HETATM   18  H   UNL     1       8.568  26.199  54.504  1.00  0.00     0.163 HD
BRANCH  16  19
HETATM   19  C   UNL     1       7.599  28.089  55.851  1.00  0.00     0.032 A 
HETATM   20  C   UNL     1       8.719  28.824  55.442  1.00  0.00     0.017 A 
HETATM   21  C   UNL     1       9.425  29.585  56.375  1.00  0.00     0.001 A 
HETATM   22  C   UNL     1       9.016  29.609  57.710  1.00  0.00     0.000 A 
HETATM   23  C   UNL     1       7.894  28.883  58.114  1.00  0.00     0.001 A 
HETATM   24  C   UNL     1       7.179  28.128  57.183  1.00  0.00     0.017 A 
ENDBRANCH  16  19
ENDBRANCH   1  15
BRANCH   1  25
HETATM   25  C   UNL     1       7.703  23.926  53.854  1.00  0.00    -0.035 A 
HETATM   26  C   UNL     1       7.717  22.856  52.946  1.00  0.00     0.009 A 
HETATM   27  C   UNL     1       8.366  21.661  53.261  1.00  0.00     0.001 A 
HETATM   28  C   UNL     1       9.003  21.517  54.491  1.00  0.00     0.000 A 
HETATM   29  C   UNL     1       8.989  22.564  55.409  1.00  0.00     0.001 A 
HETATM   30  C   UNL     1       8.342  23.761  55.094  1.00  0.00     0.009 A 
ENDBRANCH   1  25
TORSDOF 7
ENDMDL
MODEL 4
REMARK VINA RESULT:      -8.8      1.380      4.906
REMARK  7 active torsions:
REMARK  status: ('A' for Active; 'I' for Inactive)
REMARK    1  A    between atoms: O_2  and  C_3 
REMARK    2  A    between atoms: C_6  and  N_7 
REMARK       I    between atoms: N_7  and  C_8 
REMARK    3  A    between atoms: C_8  and  C_9 
REMARK    4  A    between atoms: C_9  and  C_10 
REMARK    5  A    between atoms: C_10  and  N_11 
REMARK    6  A    between atoms: C_10  and  C_20 
REMARK       I    between atoms: N_11  and  C_12 
REMARK    7  A    between atoms: C_12  and  C_13 
ROOT
HETATM    1  C   UNL     1       6.569  26.587  53.758  1.00  0.00     0.126 C 
ENDROOT
BRANCH   1   2
HETATM    2  C   UNL     1       7.516  27.739  54.084  1.00  0.00     0.133 C 
BRANCH   2   3
HETATM    3  C   UNL     1       7.744  28.066  55.551  1.00  0.00     0.224 C 
HETATM    4  N   UNL     1       7.745  29.399  55.903  1.00  0.00    -0.326 N 
HETATM    5  H   UNL     1       7.311  30.067  55.276  1.00  0.00     0.169 HD
HETATM    6  O   UNL     1       7.997  27.142  56.323  1.00  0.00    -0.273 OA
BRANCH   4   7
HETATM    7  C   UNL     1       8.190  29.930  57.137  1.00  0.00     0.052 A 
HETATM    8  C   UNL     1       9.525  30.102  57.499  1.00  0.00     0.149 A 
HETATM    9  N   UNL     1       9.939  30.661  58.667  1.00  0.00    -0.235 NA
HETATM   10  C   UNL     1       8.977  31.064  59.519  1.00  0.00     0.163 A 
HETATM   11  C   UNL     1       7.623  30.929  59.262  1.00  0.00     0.060 A 
HETATM   12  C   UNL     1       7.227  30.357  58.051  1.00  0.00     0.035 A 
BRANCH  10  13
HETATM   13  O   UNL     1       9.321  31.651  60.720  1.00  0.00    -0.339 OA
HETATM   14  C   UNL     1       9.066  30.809  61.841  1.00  0.00     0.211 C 
ENDBRANCH  10  13
ENDBRANCH   4   7
ENDBRANCH   2   3
ENDBRANCH   1   2
BRANCH   1  15
HETATM   15  N   UNL     1       7.247  25.301  53.790  1.00  0.00    -0.348 N 
HETATM   16  C   UNL     1       6.911  24.346  54.726  1.00  0.00     0.252 C 
HETATM   17  O   UNL     1       6.237  24.576  55.723  1.00  0.00    -0.268 OA
HETATM   18  H   UNL     1       7.648  24.971  52.920  1.00  0.00     0.163 HD
BRANCH  16  19
HETATM   19  C   UNL     1       7.396  22.976  54.430  1.00  0.00     0.032 A 
HETATM   20  C   UNL     1       7.660  22.577  53.114  1.00  0.00     0.017 A 
HETATM   21  C   UNL     1       8.086  21.273  52.860  1.00  0.00     0.001 A 
HETATM   22  C   UNL     1       8.244  20.372  53.914  1.00  0.00     0.000 A 
HETATM   23  C   UNL     1       7.989  20.774  55.226  1.00  0.00     0.001 A 
HETATM   24  C   UNL     1       7.572  22.080  55.488  1.00  0.00     0.017 A 
ENDBRANCH  16  19
ENDBRANCH   1  15
BRANCH   1  25
HETATM   25  C   UNL     1       5.909  26.776  52.397  1.00  0.00    -0.035 A 
HETATM   26  C   UNL     1       5.429  25.661  51.692  1.00  0.00     0.009 A 
HETATM   27  C   UNL     1       4.819  25.813  50.446  1.00  0.00     0.001 A 
HETATM   28  C   UNL     1       4.687  27.081  49.884  1.00  0.00     0.000 A 
HETATM   29  C   UNL     1       5.168  28.197  50.564  1.00  0.00     0.001 A 
HETATM   30  C   UNL     1       5.776  28.047  51.812  1.00  0.00     0.009 A 
ENDBRANCH   1  25
TORSDOF 7
ENDMDL
MODEL 5
REMARK VINA RESULT:      -8.6      3.081      7.727
REMARK  7 active torsions:
REMARK  status: ('A' for Active; 'I' for Inactive)
REMARK    1  A    between atoms: O_2  and  C_3 
REMARK    2  A    between atoms: C_6  and  N_7 
REMARK       I    between atoms: N_7  and  C_8 
REMARK    3  A    between atoms: C_8  and  C_9 
REMARK    4  A    between atoms: C_9  and  C_10 
REMARK    5  A    between atoms: C_10  and  N_11 
REMARK    6  A    between atoms: C_10  and  C_20 
REMARK       I    between atoms: N_11  and  C_12 
REMARK    7  A    between atoms: C_12  and  C_13 
ROOT
HETATM    1  C   UNL     1       6.525  26.467  54.133  1.00  0.00     0.126 C 
ENDROOT
BRANCH   1   2
HETATM    2  C   UNL     1       5.077  26.949  54.146  1.00  0.00     0.133 C 
BRANCH   2   3
HETATM    3  C   UNL     1       4.492  27.449  52.834  1.00  0.00     0.224 C 
HETATM    4  N   UNL     1       5.208  27.184  51.687  1.00  0.00    -0.326 N 
HETATM    5  H   UNL     1       5.899  26.441  51.707  1.00  0.00     0.169 HD
HETATM    6  O   UNL     1       3.467  28.129  52.873  1.00  0.00    -0.273 OA
BRANCH   4   7
HETATM    7  C   UNL     1       4.989  27.771  50.418  1.00  0.00     0.052 A 
HETATM    8  C   UNL     1       4.329  27.157  49.355  1.00  0.00     0.149 A 
HETATM    9  N   UNL     1       4.080  27.752  48.159  1.00  0.00    -0.235 NA
HETATM   10  C   UNL     1       4.514  29.019  48.010  1.00  0.00     0.163 A 
HETATM   11  C   UNL     1       5.190  29.715  48.998  1.00  0.00     0.060 A 
HETATM   12  C   UNL     1       5.425  29.082  50.220  1.00  0.00     0.035 A 
BRANCH  10  13
HETATM   13  O   UNL     1       4.288  29.691  46.827  1.00  0.00    -0.339 OA
HETATM   14  C   UNL     1       4.648  31.068  46.894  1.00  0.00     0.211 C 
ENDBRANCH  10  13
ENDBRANCH   4   7
ENDBRANCH   2   3
ENDBRANCH   1   2
BRANCH   1  15
HETATM   15  N   UNL     1       6.623  25.034  54.363  1.00  0.00    -0.348 N 
HETATM   16  C   UNL     1       7.095  24.189  53.381  1.00  0.00     0.252 C 
HETATM   17  O   UNL     1       7.219  24.512  52.206  1.00  0.00    -0.268 OA
HETATM   18  H   UNL     1       6.731  24.730  55.323  1.00  0.00     0.163 HD
BRANCH  16  19
HETATM   19  C   UNL     1       7.490  22.839  53.849  1.00  0.00     0.032 A 
HETATM   20  C   UNL     1       7.520  22.533  55.216  1.00  0.00     0.017 A 
HETATM   21  C   UNL     1       7.925  21.264  55.631  1.00  0.00     0.001 A 
HETATM   22  C   UNL     1       8.300  20.307  54.686  1.00  0.00     0.000 A 
HETATM   23  C   UNL     1       8.261  20.610  53.325  1.00  0.00     0.001 A 
HETATM   24  C   UNL     1       7.847  21.875  52.903  1.00  0.00     0.017 A 
ENDBRANCH  16  19
ENDBRANCH   1  15
BRANCH   1  25
HETATM   25  C   UNL     1       7.368  27.203  55.168  1.00  0.00    -0.035 A 
HETATM   26  C   UNL     1       7.958  28.434  54.841  1.00  0.00     0.009 A 
HETATM   27  C   UNL     1       8.731  29.125  55.776  1.00  0.00     0.001 A 
HETATM   28  C   UNL     1       8.931  28.592  57.047  1.00  0.00     0.000 A 
HETATM   29  C   UNL     1       8.362  27.366  57.384  1.00  0.00     0.001 A 
HETATM   30  C   UNL     1       7.586  26.675  56.451  1.00  0.00     0.009 A 
ENDBRANCH   1  25
TORSDOF 7
ENDMDL
MODEL 6
REMARK VINA RESULT:      -8.4      2.611      6.849
REMARK  7 active torsions:
REMARK  status: ('A' for Active; 'I' for Inactive)
REMARK    1  A    between atoms: O_2  and  C_3 
REMARK    2  A    between atoms: C_6  and  N_7 
REMARK       I    between atoms: N_7  and  C_8 
REMARK    3  A    between atoms: C_8  and  C_9 
REMARK    4  A    between atoms: C_9  and  C_10 
REMARK    5  A    between atoms: C_10  and  N_11 
REMARK    6  A    between atoms: C_10  and  C_20 
REMARK       I    between atoms: N_11  and  C_12 
REMARK    7  A    between atoms: C_12  and  C_13 
ROOT
HETATM    1  C   UNL     1       6.063  24.768  54.411  1.00  0.00     0.126 C 
ENDROOT
BRANCH   1   2
HETATM    2  C   UNL     1       5.230  24.881  53.137  1.00  0.00     0.133 C 
BRANCH   2   3
HETATM    3  C   UNL     1       5.618  25.959  52.138  1.00  0.00     0.224 C 
HETATM    4  N   UNL     1       4.625  26.826  51.734  1.00  0.00    -0.326 N 
HETATM    5  H   UNL     1       3.795  26.915  52.310  1.00  0.00     0.169 HD
HETATM    6  O   UNL     1       6.762  25.951  51.684  1.00  0.00    -0.273 OA
BRANCH   4   7
HETATM    7  C   UNL     1       4.699  27.718  50.638  1.00  0.00     0.052 A 
HETATM    8  C   UNL     1       4.157  27.481  49.376  1.00  0.00     0.149 A 
HETATM    9  N   UNL     1       4.191  28.368  48.346  1.00  0.00    -0.235 NA
HETATM   10  C   UNL     1       4.799  29.547  48.582  1.00  0.00     0.163 A 
HETATM   11  C   UNL     1       5.379  29.878  49.796  1.00  0.00     0.060 A 
HETATM   12  C   UNL     1       5.323  28.950  50.837  1.00  0.00     0.035 A 
BRANCH  10  13
HETATM   13  O   UNL     1       4.861  30.501  47.588  1.00  0.00    -0.339 OA
HETATM   14  C   UNL     1       3.878  31.522  47.737  1.00  0.00     0.211 C 
ENDBRANCH  10  13
ENDBRANCH   4   7
ENDBRANCH   2   3
ENDBRANCH   1   2
BRANCH   1  15
HETATM   15  N   UNL     1       6.709  26.026  54.752  1.00  0.00    -0.348 N 
HETATM   16  C   UNL     1       6.324  26.742  55.866  1.00  0.00     0.252 C 
HETATM   17  O   UNL     1       5.290  26.532  56.487  1.00  0.00    -0.268 OA
HETATM   18  H   UNL     1       7.658  26.157  54.426  1.00  0.00     0.163 HD
BRANCH  16  19
HETATM   19  C   UNL     1       7.281  27.786  56.304  1.00  0.00     0.032 A 
HETATM   20  C   UNL     1       8.153  28.390  55.390  1.00  0.00     0.017 A 
HETATM   21  C   UNL     1       9.064  29.348  55.834  1.00  0.00     0.001 A 
HETATM   22  C   UNL     1       9.107  29.699  57.185  1.00  0.00     0.000 A 
HETATM   23  C   UNL     1       8.231  29.103  58.093  1.00  0.00     0.001 A 
HETATM   24  C   UNL     1       7.310  28.151  57.653  1.00  0.00     0.017 A 
ENDBRANCH  16  19
ENDBRANCH   1  15
BRANCH   1  25
HETATM   25  C   UNL     1       7.118  23.675  54.293  1.00  0.00    -0.035 A 
HETATM   26  C   UNL     1       8.052  23.490  55.324  1.00  0.00     0.009 A 
HETATM   27  C   UNL     1       9.025  22.493  55.236  1.00  0.00     0.001 A 
HETATM   28  C   UNL     1       9.082  21.672  54.112  1.00  0.00     0.000 A 
HETATM   29  C   UNL     1       8.171  21.849  53.074  1.00  0.00     0.001 A 
HETATM   30  C   UNL     1       7.196  22.844  53.162  1.00  0.00     0.009 A 
ENDBRANCH   1  25
TORSDOF 7
ENDMDL
MODEL 7
REMARK VINA RESULT:      -8.2      1.879      5.128
REMARK  7 active torsions:
REMARK  status: ('A' for Active; 'I' for Inactive)
REMARK    1  A    between atoms: O_2  and  C_3 
REMARK    2  A    between atoms: C_6  and  N_7 
REMARK       I    between atoms: N_7  and  C_8 
REMARK    3  A    between atoms: C_8  and  C_9 
REMARK    4  A    between atoms: C_9  and  C_10 
REMARK    5  A    between atoms: C_10  and  N_11 
REMARK    6  A    between atoms: C_10  and  C_20 
REMARK       I    between atoms: N_11  and  C_12 
REMARK    7  A    between atoms: C_12  and  C_13 
ROOT
HETATM    1  C   UNL     1       4.964  27.354  52.598  1.00  0.00     0.126 C 
ENDROOT
BRANCH   1   2
HETATM    2  C   UNL     1       5.051  28.734  53.242  1.00  0.00     0.133 C 
BRANCH   2   3
HETATM    3  C   UNL     1       5.348  28.796  54.732  1.00  0.00     0.224 C 
HETATM    4  N   UNL     1       6.326  29.678  55.140  1.00  0.00    -0.326 N 
HETATM    5  H   UNL     1       6.585  30.437  54.518  1.00  0.00     0.169 HD
HETATM    6  O   UNL     1       4.768  28.006  55.477  1.00  0.00    -0.273 OA
BRANCH   4   7
HETATM    7  C   UNL     1       6.935  29.707  56.416  1.00  0.00     0.052 A 
HETATM    8  C   UNL     1       7.990  28.891  56.819  1.00  0.00     0.149 A 
HETATM    9  N   UNL     1       8.600  28.965  58.032  1.00  0.00    -0.235 NA
HETATM   10  C   UNL     1       8.133  29.894  58.888  1.00  0.00     0.163 A 
HETATM   11  C   UNL     1       7.084  30.747  58.592  1.00  0.00     0.060 A 
HETATM   12  C   UNL     1       6.481  30.653  57.336  1.00  0.00     0.035 A 
BRANCH  10  13
HETATM   13  O   UNL     1       8.710  30.036  60.133  1.00  0.00    -0.339 OA
HETATM   14  C   UNL     1       9.226  31.344  60.359  1.00  0.00     0.211 C 
ENDBRANCH  10  13
ENDBRANCH   4   7
ENDBRANCH   2   3
ENDBRANCH   1   2
BRANCH   1  15
HETATM   15  N   UNL     1       6.008  26.463  53.078  1.00  0.00    -0.348 N 
HETATM   16  C   UNL     1       5.695  25.266  53.686  1.00  0.00     0.252 C 
HETATM   17  O   UNL     1       4.575  24.980  54.091  1.00  0.00    -0.268 OA
HETATM   18  H   UNL     1       6.910  26.525  52.622  1.00  0.00     0.163 HD
BRANCH  16  19
HETATM   19  C   UNL     1       6.816  24.301  53.792  1.00  0.00     0.032 A 
HETATM   20  C   UNL     1       7.173  23.494  52.705  1.00  0.00     0.017 A 
HETATM   21  C   UNL     1       8.212  22.572  52.840  1.00  0.00     0.001 A 
HETATM   22  C   UNL     1       8.888  22.456  54.056  1.00  0.00     0.000 A 
HETATM   23  C   UNL     1       8.538  23.268  55.136  1.00  0.00     0.001 A 
HETATM   24  C   UNL     1       7.505  24.198  55.003  1.00  0.00     0.017 A 
ENDBRANCH  16  19
ENDBRANCH   1  15
BRANCH   1  25
HETATM   25  C   UNL     1       5.035  27.442  51.078  1.00  0.00    -0.035 A 
HETATM   26  C   UNL     1       5.435  28.640  50.465  1.00  0.00     0.009 A 
HETATM   27  C   UNL     1       5.510  28.740  49.075  1.00  0.00     0.001 A 
HETATM   28  C   UNL     1       5.178  27.647  48.278  1.00  0.00     0.000 A 
HETATM   29  C   UNL     1       4.768  26.454  48.868  1.00  0.00     0.001 A 
HETATM   30  C   UNL     1       4.696  26.352  50.259  1.00  0.00     0.009 A 
ENDBRANCH   1  25
TORSDOF 7
ENDMDL
MODEL 8
REMARK VINA RESULT:      -8.1      3.031      8.069
REMARK  7 active torsions:
REMARK  status: ('A' for Active; 'I' for Inactive)
REMARK    1  A    between atoms: O_2  and  C_3 
REMARK    2  A    between atoms: C_6  and  N_7 
REMARK       I    between atoms: N_7  and  C_8 
REMARK    3  A    between atoms: C_8  and  C_9 
REMARK    4  A    between atoms: C_9  and  C_10 
REMARK    5  A    between atoms: C_10  and  N_11 
REMARK    6  A    between atoms: C_10  and  C_20 
REMARK       I    between atoms: N_11  and  C_12 
REMARK    7  A    between atoms: C_12  and  C_13 
ROOT
HETATM    1  C   UNL     1       6.402  26.441  54.010  1.00  0.00     0.126 C 
ENDROOT
BRANCH   1   2
HETATM    2  C   UNL     1       5.026  26.845  53.488  1.00  0.00     0.133 C 
BRANCH   2   3
HETATM    3  C   UNL     1       4.976  27.799  52.305  1.00  0.00     0.224 C 
HETATM    4  N   UNL     1       3.823  27.802  51.551  1.00  0.00    -0.326 N 
HETATM    5  H   UNL     1       2.974  27.425  51.959  1.00  0.00     0.169 HD
HETATM    6  O   UNL     1       5.986  28.449  52.035  1.00  0.00    -0.273 OA
BRANCH   4   7
HETATM    7  C   UNL     1       3.665  28.404  50.280  1.00  0.00     0.052 A 
HETATM    8  C   UNL     1       3.142  29.676  50.056  1.00  0.00     0.149 A 
HETATM    9  N   UNL     1       3.044  30.263  48.834  1.00  0.00    -0.235 NA
HETATM   10  C   UNL     1       3.482  29.546  47.781  1.00  0.00     0.163 A 
HETATM   11  C   UNL     1       4.008  28.270  47.892  1.00  0.00     0.060 A 
HETATM   12  C   UNL     1       4.104  27.695  49.161  1.00  0.00     0.035 A 
BRANCH  10  13
HETATM   13  O   UNL     1       3.424  30.081  46.511  1.00  0.00    -0.339 OA
HETATM   14  C   UNL     1       2.172  30.699  46.227  1.00  0.00     0.211 C 
ENDBRANCH  10  13
ENDBRANCH   4   7
ENDBRANCH   2   3
ENDBRANCH   1   2
BRANCH   1  15
HETATM   15  N   UNL     1       6.520  25.001  54.172  1.00  0.00    -0.348 N 
HETATM   16  C   UNL     1       7.375  24.265  53.378  1.00  0.00     0.252 C 
HETATM   17  O   UNL     1       7.886  24.692  52.349  1.00  0.00    -0.268 OA
HETATM   18  H   UNL     1       6.301  24.622  55.085  1.00  0.00     0.163 HD
BRANCH  16  19
HETATM   19  C   UNL     1       7.679  22.902  53.874  1.00  0.00     0.032 A 
HETATM   20  C   UNL     1       7.892  21.844  52.981  1.00  0.00     0.017 A 
HETATM   21  C   UNL     1       8.145  20.564  53.475  1.00  0.00     0.001 A 
HETATM   22  C   UNL     1       8.183  20.341  54.853  1.00  0.00     0.000 A 
HETATM   23  C   UNL     1       7.980  21.398  55.741  1.00  0.00     0.001 A 
HETATM   24  C   UNL     1       7.735  22.683  55.253  1.00  0.00     0.017 A 
ENDBRANCH  16  19
ENDBRANCH   1  15
BRANCH   1  25
HETATM   25  C   UNL     1       6.720  27.126  55.334  1.00  0.00    -0.035 A 
HETATM   26  C   UNL     1       7.308  26.393  56.376  1.00  0.00     0.009 A 
HETATM   27  C   UNL     1       7.610  27.002  57.596  1.00  0.00     0.001 A 
HETATM   28  C   UNL     1       7.320  28.350  57.792  1.00  0.00     0.000 A 
HETATM   29  C   UNL     1       6.725  29.090  56.773  1.00  0.00     0.001 A 
HETATM   30  C   UNL     1       6.426  28.483  55.552  1.00  0.00     0.009 A 
ENDBRANCH   1  25
TORSDOF 7
ENDMDL
MODEL 9
REMARK VINA RESULT:      -8.0      2.516      5.464
REMARK  7 active torsions:
REMARK  status: ('A' for Active; 'I' for Inactive)
REMARK    1  A    between atoms: O_2  and  C_3 
REMARK    2  A    between atoms: C_6  and  N_7 
REMARK       I    between atoms: N_7  and  C_8 
REMARK    3  A    between atoms: C_8  and  C_9 
REMARK    4  A    between atoms: C_9  and  C_10 
REMARK    5  A    between atoms: C_10  and  N_11 
REMARK    6  A    between atoms: C_10  and  C_20 
REMARK       I    between atoms: N_11  and  C_12 
REMARK    7  A    between atoms: C_12  and  C_13 
ROOT
HETATM    1  C   UNL     1       6.148  26.351  53.998  1.00  0.00     0.126 C 
ENDROOT
BRANCH   1   2
HETATM    2  C   UNL     1       6.898  27.482  54.699  1.00  0.00     0.133 C 
BRANCH   2   3
HETATM    3  C   UNL     1       6.238  28.113  55.915  1.00  0.00     0.224 C 
HETATM    4  N   UNL     1       5.503  29.260  55.704  1.00  0.00    -0.326 N 
HETATM    5  H   UNL     1       5.181  29.464  54.764  1.00  0.00     0.169 HD
HETATM    6  O   UNL     1       6.461  27.622  57.021  1.00  0.00    -0.273 OA
BRANCH   4   7
HETATM    7  C   UNL     1       5.034  30.140  56.708  1.00  0.00     0.052 A 
HETATM    8  C   UNL     1       3.703  30.269  57.102  1.00  0.00     0.149 A 
HETATM    9  N   UNL     1       3.274  31.081  58.104  1.00  0.00    -0.235 NA
HETATM   10  C   UNL     1       4.214  31.805  58.741  1.00  0.00     0.163 A 
HETATM   11  C   UNL     1       5.560  31.759  58.422  1.00  0.00     0.060 A 
HETATM   12  C   UNL     1       5.974  30.911  57.393  1.00  0.00     0.035 A 
BRANCH  10  13
HETATM   13  O   UNL     1       3.853  32.643  59.777  1.00  0.00    -0.339 OA
HETATM   14  C   UNL     1       4.571  33.874  59.768  1.00  0.00     0.211 C 
ENDBRANCH  10  13
ENDBRANCH   4   7
ENDBRANCH   2   3
ENDBRANCH   1   2
BRANCH   1  15
HETATM   15  N   UNL     1       6.937  25.131  53.940  1.00  0.00    -0.348 N 
HETATM   16  C   UNL     1       6.865  24.191  54.947  1.00  0.00     0.252 C 
HETATM   17  O   UNL     1       6.362  24.405  56.044  1.00  0.00    -0.268 OA
HETATM   18  H   UNL     1       7.205  24.800  53.021  1.00  0.00     0.163 HD
BRANCH  16  19
HETATM   19  C   UNL     1       7.414  22.858  54.604  1.00  0.00     0.032 A 
HETATM   20  C   UNL     1       7.713  22.524  53.277  1.00  0.00     0.017 A 
HETATM   21  C   UNL     1       8.199  21.251  52.978  1.00  0.00     0.001 A 
HETATM   22  C   UNL     1       8.384  20.315  53.998  1.00  0.00     0.000 A 
HETATM   23  C   UNL     1       8.094  20.653  55.321  1.00  0.00     0.001 A 
HETATM   24  C   UNL     1       7.616  21.928  55.628  1.00  0.00     0.017 A 
ENDBRANCH  16  19
ENDBRANCH   1  15
BRANCH   1  25
HETATM   25  C   UNL     1       5.730  26.749  52.588  1.00  0.00    -0.035 A 
HETATM   26  C   UNL     1       5.698  28.105  52.225  1.00  0.00     0.009 A 
HETATM   27  C   UNL     1       5.321  28.490  50.937  1.00  0.00     0.001 A 
HETATM   28  C   UNL     1       4.962  27.526  49.998  1.00  0.00     0.000 A 
HETATM   29  C   UNL     1       4.977  26.177  50.345  1.00  0.00     0.001 A 
HETATM   30  C   UNL     1       5.357  25.791  51.631  1.00  0.00     0.009 A 
ENDBRANCH   1  25
TORSDOF 7
ENDMDL
MODEL 10
REMARK VINA RESULT:      -7.9      3.023      6.622
REMARK  7 active torsions:
REMARK  status: ('A' for Active; 'I' for Inactive)
REMARK    1  A    between atoms: O_2  and  C_3 
REMARK    2  A    between atoms: C_6  and  N_7 
REMARK       I    between atoms: N_7  and  C_8 
REMARK    3  A    between atoms: C_8  and  C_9 
REMARK    4  A    between atoms: C_9  and  C_10 
REMARK    5  A    between atoms: C_10  and  N_11 
REMARK    6  A    between atoms: C_10  and  C_20 
REMARK       I    between atoms: N_11  and  C_12 
REMARK    7  A    between atoms: C_12  and  C_13 
ROOT
HETATM    1  C   UNL     1       7.030  28.804  57.883  1.00  0.00     0.126 C 
ENDROOT
BRANCH   1   2
HETATM    2  C   UNL     1       8.309  29.564  58.226  1.00  0.00     0.133 C 
BRANCH   2   3
HETATM    3  C   UNL     1       8.180  30.784  59.124  1.00  0.00     0.224 C 
HETATM    4  N   UNL     1       7.970  30.554  60.467  1.00  0.00    -0.326 N 
HETATM    5  H   UNL     1       8.204  29.643  60.846  1.00  0.00     0.169 HD
HETATM    6  O   UNL     1       8.186  31.898  58.601  1.00  0.00    -0.273 OA
BRANCH   4   7
HETATM    7  C   UNL     1       7.567  31.519  61.420  1.00  0.00     0.052 A 
HETATM    8  C   UNL     1       6.318  32.137  61.454  1.00  0.00     0.149 A 
HETATM    9  N   UNL     1       5.925  33.024  62.406  1.00  0.00    -0.235 NA
HETATM   10  C   UNL     1       6.822  33.317  63.368  1.00  0.00     0.163 A 
HETATM   11  C   UNL     1       8.092  32.769  63.420  1.00  0.00     0.060 A 
HETATM   12  C   UNL     1       8.466  31.854  62.433  1.00  0.00     0.035 A 
BRANCH  10  13
HETATM   13  O   UNL     1       6.490  34.201  64.374  1.00  0.00    -0.339 OA
HETATM   14  C   UNL     1       6.751  33.683  65.675  1.00  0.00     0.211 C 
ENDBRANCH  10  13
ENDBRANCH   4   7
ENDBRANCH   2   3
ENDBRANCH   1   2
BRANCH   1  15
HETATM   15  N   UNL     1       7.268  27.755  56.904  1.00  0.00    -0.348 N 
HETATM   16  C   UNL     1       7.554  26.466  57.301  1.00  0.00     0.252 C 
HETATM   17  O   UNL     1       7.875  26.160  58.444  1.00  0.00    -0.268 OA
HETATM   18  H   UNL     1       6.841  27.871  55.993  1.00  0.00     0.163 HD
BRANCH  16  19
HETATM   19  C   UNL     1       7.411  25.435  56.246  1.00  0.00     0.032 A 
HETATM   20  C   UNL     1       6.468  25.583  55.221  1.00  0.00     0.017 A 
HETATM   21  C   UNL     1       6.332  24.584  54.257  1.00  0.00     0.001 A 
HETATM   22  C   UNL     1       7.132  23.441  54.319  1.00  0.00     0.000 A 
HETATM   23  C   UNL     1       8.078  23.299  55.335  1.00  0.00     0.001 A 
HETATM   24  C   UNL     1       8.225  24.300  56.297  1.00  0.00     0.017 A 
ENDBRANCH  16  19
ENDBRANCH   1  15
BRANCH   1  25
HETATM   25  C   UNL     1       5.946  29.741  57.365  1.00  0.00    -0.035 A 
HETATM   26  C   UNL     1       6.035  30.261  56.064  1.00  0.00     0.009 A 
HETATM   27  C   UNL     1       5.051  31.119  55.569  1.00  0.00     0.001 A 
HETATM   28  C   UNL     1       3.969  31.475  56.371  1.00  0.00     0.000 A 
HETATM   29  C   UNL     1       3.871  30.977  57.668  1.00  0.00     0.001 A 
HETATM   30  C   UNL     1       4.853  30.117  58.163  1.00  0.00     0.009 A 
ENDBRANCH   1  25
TORSDOF 7
ENDMDL
