MODEL 1
REMARK VINA RESULT:     -10.8      0.000      0.000
REMARK  7 active torsions:
REMARK  status: ('A' for Active; 'I' for Inactive)
REMARK    1  A    between atoms: C_2  and  C_3 
REMARK    2  A    between atoms: C_3  and  C_4 
REMARK       I    between atoms: C_4  and  N_5 
REMARK    3  A    between atoms: N_5  and  C_6 
REMARK    4  A    between atoms: C_6  and  C_7 
REMARK    5  A    between atoms: C_9  and  N_10 
REMARK    6  A    between atoms: N_10  and  C_11 
REMARK    7  A    between atoms: C_27  and  N_28 
ROOT
HETATM    1  C   UNL     1       7.351  29.617  57.506  1.00  0.00     0.203 C 
ENDROOT
BRANCH   1   2
HETATM    2  N   UNL     1       7.659  29.736  58.921  1.00  0.00    -0.354 N 
HETATM    3  C   UNL     1       8.477  30.735  59.389  1.00  0.00     0.222 C 
HETATM    4  O   UNL     1       8.944  31.601  58.655  1.00  0.00    -0.273 OA
HETATM    5  H   UNL     1       7.450  28.925  59.493  1.00  0.00     0.162 HD
BRANCH   3   6
HETATM    6  C   UNL     1       8.704  30.711  60.893  1.00  0.00     0.141 C 
BRANCH   6   7
HETATM    7  C   UNL     1       7.965  31.782  61.658  1.00  0.00    -0.049 A 
HETATM    8  C   UNL     1       6.886  32.463  61.089  1.00  0.00     0.010 A 
HETATM    9  C   UNL     1       6.160  33.407  61.829  1.00  0.00     0.030 A 
HETATM   10  C   UNL     1       6.480  33.690  63.165  1.00  0.00     0.039 A 
HETATM   11  C   UNL     1       7.570  33.012  63.723  1.00  0.00     0.030 A 
HETATM   12  C   UNL     1       8.301  32.071  62.984  1.00  0.00     0.010 A 
BRANCH  10  13
HETATM   13  N   UNL     1       5.709  34.616  63.913  1.00  0.00    -0.298 N 
HETATM   14  C   UNL     1       4.817  34.327  64.963  1.00  0.00     0.323 C 
HETATM   15  O   UNL     1       4.488  33.256  65.446  1.00  0.00    -0.247 OA
HETATM   16  N   UNL     1       4.291  35.533  65.418  1.00  0.00    -0.341 N 
HETATM   17  C   UNL     1       4.630  36.604  64.533  1.00  0.00     0.144 C 
HETATM   18  H   UNL     1       3.504  35.511  66.054  1.00  0.00     0.164 HD
HETATM   19  C   UNL     1       5.796  36.051  63.729  1.00  0.00     0.153 C 
ENDBRANCH  10  13
ENDBRANCH   6   7
ENDBRANCH   3   6
ENDBRANCH   1   2
BRANCH   1  20
HETATM   20  C   UNL     1       7.191  28.177  57.065  1.00  0.00     0.146 A 
HETATM   21  N   UNL     1       6.153  27.888  56.255  1.00  0.00    -0.219 NA
HETATM   22  C   UNL     1       5.987  26.607  55.887  1.00  0.00     0.118 A 
HETATM   23  C   UNL     1       6.877  25.597  56.293  1.00  0.00     0.035 A 
HETATM   24  C   UNL     1       7.920  26.009  57.134  1.00  0.00     0.072 A 
HETATM   25  C   UNL     1       6.790  24.236  55.904  1.00  0.00     0.041 A 
HETATM   26  N   UNL     1       8.072  27.275  57.528  1.00  0.00    -0.231 NA
HETATM   27  C   UNL     1       8.837  25.062  57.575  1.00  0.00     0.034 A 
HETATM   28  C   UNL     1       8.750  23.718  57.200  1.00  0.00     0.026 A 
HETATM   29  C   UNL     1       7.723  23.310  56.360  1.00  0.00     0.035 A 
HETATM   30 CL   UNL     1       7.606  21.663  55.882  1.00  0.00    -0.084 Cl
BRANCH  22  31
HETATM   31  N   UNL     1       4.891  26.266  55.063  1.00  0.00    -0.272 NA
HETATM   32  H   UNL     1       4.104  26.848  55.344  1.00  0.00     0.129 HD
BRANCH  31  33
HETATM   33  C   UNL     1       5.118  26.326  53.619  1.00  0.00     0.061 C 
HETATM   34  C   UNL     1       6.590  26.621  53.302  1.00  0.00     0.020 C 
HETATM   35  C   UNL     1       6.874  25.817  52.044  1.00  0.00     0.002 C 
HETATM   36  C   UNL     1       6.133  24.518  52.302  1.00  0.00     0.002 C 
HETATM   37  C   UNL     1       4.837  24.952  52.978  1.00  0.00     0.020 C 
ENDBRANCH  31  33
ENDBRANCH  22  31
ENDBRANCH   1  20
TORSDOF 7
ENDMDL
MODEL 2
REMARK VINA RESULT:     -10.7      2.523      4.179
REMARK  7 active torsions:
REMARK  status: ('A' for Active; 'I' for Inactive)
REMARK    1  A    between atoms: C_2  and  C_3 
REMARK    2  A    between atoms: C_3  and  C_4 
REMARK       I    between atoms: C_4  and  N_5 
REMARK    3  A    between atoms: N_5  and  C_6 
REMARK    4  A    between atoms: C_6  and  C_7 
REMARK    5  A    between atoms: C_9  and  N_10 
REMARK    6  A    between atoms: N_10  and  C_11 
REMARK    7  A    between atoms: C_27  and  N_28 
ROOT
HETATM    1  C   UNL     1       5.579  27.511  57.139  1.00  0.00     0.203 C 
ENDROOT
BRANCH   1   2
HETATM    2  N   UNL     1       6.347  28.728  57.345  1.00  0.00    -0.354 N 
HETATM    3  C   UNL     1       7.667  28.681  57.718  1.00  0.00     0.222 C 
HETATM    4  O   UNL     1       8.278  27.623  57.845  1.00  0.00    -0.273 OA
HETATM    5  H   UNL     1       5.810  29.583  57.441  1.00  0.00     0.162 HD
BRANCH   3   6
HETATM    6  C   UNL     1       8.320  30.042  57.902  1.00  0.00     0.141 C 
BRANCH   6   7
HETATM    7  C   UNL     1       7.997  30.722  59.211  1.00  0.00    -0.049 A 
HETATM    8  C   UNL     1       6.957  31.650  59.307  1.00  0.00     0.010 A 
HETATM    9  C   UNL     1       6.618  32.225  60.540  1.00  0.00     0.030 A 
HETATM   10  C   UNL     1       7.298  31.880  61.718  1.00  0.00     0.039 A 
HETATM   11  C   UNL     1       8.346  30.959  61.610  1.00  0.00     0.030 A 
HETATM   12  C   UNL     1       8.691  30.387  60.378  1.00  0.00     0.010 A 
BRANCH  10  13
HETATM   13  N   UNL     1       6.914  32.439  62.964  1.00  0.00    -0.298 N 
HETATM   14  C   UNL     1       5.617  32.497  63.506  1.00  0.00     0.323 C 
HETATM   15  O   UNL     1       4.552  32.118  63.046  1.00  0.00    -0.247 OA
HETATM   16  N   UNL     1       5.703  33.115  64.750  1.00  0.00    -0.341 N 
HETATM   17  C   UNL     1       6.998  33.689  64.947  1.00  0.00     0.144 C 
HETATM   18  H   UNL     1       4.849  33.397  65.213  1.00  0.00     0.164 HD
HETATM   19  C   UNL     1       7.864  32.987  63.913  1.00  0.00     0.153 C 
ENDBRANCH  10  13
ENDBRANCH   6   7
ENDBRANCH   3   6
ENDBRANCH   1   2
BRANCH   1  20
HETATM   20  C   UNL     1       5.485  27.123  55.678  1.00  0.00     0.146 A 
HETATM   21  N   UNL     1       5.759  25.843  55.358  1.00  0.00    -0.219 NA
HETATM   22  C   UNL     1       5.709  25.501  54.060  1.00  0.00     0.118 A 
HETATM   23  C   UNL     1       5.348  26.425  53.062  1.00  0.00     0.035 A 
HETATM   24  C   UNL     1       5.085  27.727  53.508  1.00  0.00     0.072 A 
HETATM   25  C   UNL     1       5.229  26.121  51.682  1.00  0.00     0.041 A 
HETATM   26  N   UNL     1       5.164  28.080  54.792  1.00  0.00    -0.231 NA
HETATM   27  C   UNL     1       4.724  28.692  52.575  1.00  0.00     0.034 A 
HETATM   28  C   UNL     1       4.613  28.399  51.213  1.00  0.00     0.026 A 
HETATM   29  C   UNL     1       4.865  27.108  50.771  1.00  0.00     0.035 A 
HETATM   30 CL   UNL     1       4.724  26.727  49.101  1.00  0.00    -0.084 Cl
BRANCH  22  31
HETATM   31  N   UNL     1       6.020  24.174  53.687  1.00  0.00    -0.272 NA
HETATM   32  H   UNL     1       5.777  24.068  52.704  1.00  0.00     0.129 HD
BRANCH  31  33
HETATM   33  C   UNL     1       7.386  23.726  53.956  1.00  0.00     0.061 C 
HETATM   34  C   UNL     1       7.425  22.749  55.139  1.00  0.00     0.020 C 
HETATM   35  C   UNL     1       8.512  21.753  54.772  1.00  0.00     0.002 C 
HETATM   36  C   UNL     1       8.281  21.537  53.287  1.00  0.00     0.002 C 
HETATM   37  C   UNL     1       7.929  22.923  52.756  1.00  0.00     0.020 C 
ENDBRANCH  31  33
ENDBRANCH  22  31
ENDBRANCH   1  20
TORSDOF 7
ENDMDL
MODEL 3
REMARK VINA RESULT:     -10.5      1.794      2.262
REMARK  7 active torsions:
REMARK  status: ('A' for Active; 'I' for Inactive)
REMARK    1  A    between atoms: C_2  and  C_3 
REMARK    2  A    between atoms: C_3  and  C_4 
REMARK       I    between atoms: C_4  and  N_5 
REMARK    3  A    between atoms: N_5  and  C_6 
REMARK    4  A    between atoms: C_6  and  C_7 
REMARK    5  A    between atoms: C_9  and  N_10 
REMARK    6  A    between atoms: N_10  and  C_11 
REMARK    7  A    between atoms: C_27  and  N_28 
ROOT
HETATM    1  C   UNL     1       8.317  30.569  57.951  1.00  0.00     0.203 C 
ENDROOT
BRANCH   1   2
HETATM    2  N   UNL     1       8.365  30.351  59.387  1.00  0.00    -0.354 N 
HETATM    3  C   UNL     1       8.622  31.385  60.255  1.00  0.00     0.222 C 
HETATM    4  O   UNL     1       8.770  32.542  59.873  1.00  0.00    -0.273 OA
HETATM    5  H   UNL     1       8.446  29.387  59.690  1.00  0.00     0.162 HD
BRANCH   3   6
HETATM    6  C   UNL     1       8.647  30.984  61.722  1.00  0.00     0.141 C 
BRANCH   6   7
HETATM    7  C   UNL     1       7.667  31.733  62.594  1.00  0.00    -0.049 A 
HETATM    8  C   UNL     1       8.101  32.700  63.504  1.00  0.00     0.010 A 
HETATM    9  C   UNL     1       7.181  33.440  64.260  1.00  0.00     0.030 A 
HETATM   10  C   UNL     1       5.799  33.247  64.121  1.00  0.00     0.039 A 
HETATM   11  C   UNL     1       5.374  32.268  63.216  1.00  0.00     0.030 A 
HETATM   12  C   UNL     1       6.291  31.522  62.462  1.00  0.00     0.010 A 
BRANCH  10  13
HETATM   13  N   UNL     1       4.881  34.034  64.862  1.00  0.00    -0.298 N 
HETATM   14  C   UNL     1       4.010  35.020  64.362  1.00  0.00     0.323 C 
HETATM   15  O   UNL     1       3.856  35.434  63.225  1.00  0.00    -0.247 OA
HETATM   16  N   UNL     1       3.281  35.527  65.434  1.00  0.00    -0.341 N 
HETATM   17  C   UNL     1       3.819  35.070  66.679  1.00  0.00     0.144 C 
HETATM   18  H   UNL     1       2.728  36.362  65.295  1.00  0.00     0.164 HD
HETATM   19  C   UNL     1       4.664  33.870  66.286  1.00  0.00     0.153 C 
ENDBRANCH  10  13
ENDBRANCH   6   7
ENDBRANCH   3   6
ENDBRANCH   1   2
BRANCH   1  20
HETATM   20  C   UNL     1       8.048  29.295  57.179  1.00  0.00     0.146 A 
HETATM   21  N   UNL     1       7.670  29.418  55.891  1.00  0.00    -0.219 NA
HETATM   22  C   UNL     1       7.399  28.292  55.210  1.00  0.00     0.118 A 
HETATM   23  C   UNL     1       7.536  27.020  55.795  1.00  0.00     0.035 A 
HETATM   24  C   UNL     1       7.933  27.010  57.139  1.00  0.00     0.072 A 
HETATM   25  C   UNL     1       7.313  25.791  55.122  1.00  0.00     0.041 A 
HETATM   26  N   UNL     1       8.174  28.126  57.829  1.00  0.00    -0.231 NA
HETATM   27  C   UNL     1       8.086  25.786  57.781  1.00  0.00     0.034 A 
HETATM   28  C   UNL     1       7.861  24.573  57.123  1.00  0.00     0.026 A 
HETATM   29  C   UNL     1       7.475  24.581  55.791  1.00  0.00     0.035 A 
HETATM   30 CL   UNL     1       7.201  23.099  54.965  1.00  0.00    -0.084 Cl
BRANCH  22  31
HETATM   31  N   UNL     1       6.971  28.388  53.867  1.00  0.00    -0.272 NA
HETATM   32  H   UNL     1       6.986  27.449  53.474  1.00  0.00     0.129 HD
BRANCH  31  33
HETATM   33  C   UNL     1       5.687  29.048  53.639  1.00  0.00     0.061 C 
HETATM   34  C   UNL     1       5.325  29.057  52.147  1.00  0.00     0.020 C 
HETATM   35  C   UNL     1       3.815  28.885  52.122  1.00  0.00     0.002 C 
HETATM   36  C   UNL     1       3.577  27.862  53.217  1.00  0.00     0.002 C 
HETATM   37  C   UNL     1       4.553  28.256  54.321  1.00  0.00     0.020 C 
ENDBRANCH  31  33
ENDBRANCH  22  31
ENDBRANCH   1  20
TORSDOF 7
ENDMDL
MODEL 4
REMARK VINA RESULT:     -10.4      2.521      3.755
REMARK  7 active torsions:
REMARK  status: ('A' for Active; 'I' for Inactive)
REMARK    1  A    between atoms: C_2  and  C_3 
REMARK    2  A    between atoms: C_3  and  C_4 
REMARK       I    between atoms: C_4  and  N_5 
REMARK    3  A    between atoms: N_5  and  C_6 
REMARK    4  A    between atoms: C_6  and  C_7 
REMARK    5  A    between atoms: C_9  and  N_10 
REMARK    6  A    between atoms: N_10  and  C_11 
REMARK    7  A    between atoms: C_27  and  N_28 
ROOT
HETATM    1  C   UNL     1       7.628  28.992  58.189  1.00  0.00     0.203 C 
ENDROOT
BRANCH   1   2
HETATM    2  N   UNL     1       7.626  30.379  58.623  1.00  0.00    -0.354 N 
HETATM    3  C   UNL     1       8.346  30.781  59.721  1.00  0.00     0.222 C 
HETATM    4  O   UNL     1       9.064  30.012  60.355  1.00  0.00    -0.273 OA
HETATM    5  H   UNL     1       6.893  30.966  58.239  1.00  0.00     0.162 HD
BRANCH   3   6
HETATM    6  C   UNL     1       8.227  32.262  60.045  1.00  0.00     0.141 C 
BRANCH   6   7
HETATM    7  C   UNL     1       7.613  32.564  61.391  1.00  0.00    -0.049 A 
HETATM    8  C   UNL     1       8.327  32.359  62.574  1.00  0.00     0.010 A 
HETATM    9  C   UNL     1       7.777  32.707  63.815  1.00  0.00     0.030 A 
HETATM   10  C   UNL     1       6.502  33.284  63.913  1.00  0.00     0.039 A 
HETATM   11  C   UNL     1       5.789  33.474  62.724  1.00  0.00     0.030 A 
HETATM   12  C   UNL     1       6.334  33.122  61.481  1.00  0.00     0.010 A 
BRANCH  10  13
HETATM   13  N   UNL     1       5.978  33.669  65.174  1.00  0.00    -0.298 N 
HETATM   14  C   UNL     1       4.622  33.803  65.525  1.00  0.00     0.323 C 
HETATM   15  O   UNL     1       3.614  33.648  64.855  1.00  0.00    -0.247 OA
HETATM   16  N   UNL     1       4.564  34.186  66.862  1.00  0.00    -0.341 N 
HETATM   17  C   UNL     1       5.861  34.547  67.346  1.00  0.00     0.144 C 
HETATM   18  H   UNL     1       3.679  34.495  67.242  1.00  0.00     0.164 HD
HETATM   19  C   UNL     1       6.809  33.923  66.334  1.00  0.00     0.153 C 
ENDBRANCH  10  13
ENDBRANCH   6   7
ENDBRANCH   3   6
ENDBRANCH   1   2
BRANCH   1  20
HETATM   20  C   UNL     1       6.748  28.760  56.978  1.00  0.00     0.146 A 
HETATM   21  N   UNL     1       6.736  27.522  56.447  1.00  0.00    -0.219 NA
HETATM   22  C   UNL     1       5.982  27.319  55.354  1.00  0.00     0.118 A 
HETATM   23  C   UNL     1       5.197  28.342  54.794  1.00  0.00     0.035 A 
HETATM   24  C   UNL     1       5.286  29.590  55.426  1.00  0.00     0.072 A 
HETATM   25  C   UNL     1       4.343  28.186  53.672  1.00  0.00     0.041 A 
HETATM   26  N   UNL     1       6.057  29.805  56.493  1.00  0.00    -0.231 NA
HETATM   27  C   UNL     1       4.537  30.648  54.924  1.00  0.00     0.034 A 
HETATM   28  C   UNL     1       3.699  30.500  53.815  1.00  0.00     0.026 A 
HETATM   29  C   UNL     1       3.604  29.263  53.192  1.00  0.00     0.035 A 
HETATM   30 CL   UNL     1       2.573  29.061  51.832  1.00  0.00    -0.084 Cl
BRANCH  22  31
HETATM   31  N   UNL     1       5.972  26.039  54.755  1.00  0.00    -0.272 NA
HETATM   32  H   UNL     1       5.349  26.083  53.951  1.00  0.00     0.129 HD
BRANCH  31  33
HETATM   33  C   UNL     1       7.275  25.478  54.397  1.00  0.00     0.061 C 
HETATM   34  C   UNL     1       7.283  23.952  54.555  1.00  0.00     0.020 C 
HETATM   35  C   UNL     1       8.165  23.458  53.420  1.00  0.00     0.002 C 
HETATM   36  C   UNL     1       7.758  24.355  52.266  1.00  0.00     0.002 C 
HETATM   37  C   UNL     1       7.569  25.727  52.903  1.00  0.00     0.020 C 
ENDBRANCH  31  33
ENDBRANCH  22  31
ENDBRANCH   1  20
TORSDOF 7
ENDMDL
MODEL 5
REMARK VINA RESULT:     -10.3      4.411     10.463
REMARK  7 active torsions:
REMARK  status: ('A' for Active; 'I' for Inactive)
REMARK    1  A    between atoms: C_2  and  C_3 
REMARK    2  A    between atoms: C_3  and  C_4 
REMARK       I    between atoms: C_4  and  N_5 
REMARK    3  A    between atoms: N_5  and  C_6 
REMARK    4  A    between atoms: C_6  and  C_7 
REMARK    5  A    between atoms: C_9  and  N_10 
REMARK    6  A    between atoms: N_10  and  C_11 
REMARK    7  A    between atoms: C_27  and  N_28 
ROOT
HETATM    1  C   UNL     1       8.237  25.846  57.485  1.00  0.00     0.203 C 
ENDROOT
BRANCH   1   2
HETATM    2  N   UNL     1       8.161  25.147  56.212  1.00  0.00    -0.354 N 
HETATM    3  C   UNL     1       8.211  23.776  56.149  1.00  0.00     0.222 C 
HETATM    4  O   UNL     1       8.269  23.073  57.154  1.00  0.00    -0.273 OA
HETATM    5  H   UNL     1       8.316  25.712  55.384  1.00  0.00     0.162 HD
BRANCH   3   6
HETATM    6  C   UNL     1       8.130  23.207  54.741  1.00  0.00     0.141 C 
BRANCH   6   7
HETATM    7  C   UNL     1       7.288  24.016  53.783  1.00  0.00    -0.049 A 
HETATM    8  C   UNL     1       5.952  24.312  54.066  1.00  0.00     0.010 A 
HETATM    9  C   UNL     1       5.198  25.123  53.207  1.00  0.00     0.030 A 
HETATM   10  C   UNL     1       5.758  25.675  52.045  1.00  0.00     0.039 A 
HETATM   11  C   UNL     1       7.093  25.363  51.763  1.00  0.00     0.030 A 
HETATM   12  C   UNL     1       7.849  24.548  52.618  1.00  0.00     0.010 A 
BRANCH  10  13
HETATM   13  N   UNL     1       4.993  26.528  51.209  1.00  0.00    -0.298 N 
HETATM   14  C   UNL     1       4.345  27.722  51.577  1.00  0.00     0.323 C 
HETATM   15  O   UNL     1       4.269  28.275  52.661  1.00  0.00    -0.247 OA
HETATM   16  N   UNL     1       3.727  28.238  50.442  1.00  0.00    -0.341 N 
HETATM   17  C   UNL     1       3.746  27.287  49.373  1.00  0.00     0.144 C 
HETATM   18  H   UNL     1       3.073  29.001  50.549  1.00  0.00     0.164 HD
HETATM   19  C   UNL     1       4.829  26.303  49.786  1.00  0.00     0.153 C 
ENDBRANCH  10  13
ENDBRANCH   6   7
ENDBRANCH   3   6
ENDBRANCH   1   2
BRANCH   1  20
HETATM   20  C   UNL     1       7.523  27.181  57.459  1.00  0.00     0.146 A 
HETATM   21  N   UNL     1       8.159  28.235  58.007  1.00  0.00    -0.219 NA
HETATM   22  C   UNL     1       7.517  29.415  58.016  1.00  0.00     0.118 A 
HETATM   23  C   UNL     1       6.242  29.570  57.443  1.00  0.00     0.035 A 
HETATM   24  C   UNL     1       5.674  28.408  56.902  1.00  0.00     0.072 A 
HETATM   25  C   UNL     1       5.528  30.794  57.374  1.00  0.00     0.041 A 
HETATM   26  N   UNL     1       6.294  27.227  56.918  1.00  0.00    -0.231 NA
HETATM   27  C   UNL     1       4.414  28.489  56.320  1.00  0.00     0.034 A 
HETATM   28  C   UNL     1       3.704  29.691  56.257  1.00  0.00     0.026 A 
HETATM   29  C   UNL     1       4.268  30.844  56.785  1.00  0.00     0.035 A 
HETATM   30 CL   UNL     1       3.413  32.333  56.708  1.00  0.00    -0.084 Cl
BRANCH  22  31
HETATM   31  N   UNL     1       8.143  30.533  58.611  1.00  0.00    -0.272 NA
HETATM   32  H   UNL     1       7.764  31.367  58.167  1.00  0.00     0.129 HD
BRANCH  31  33
HETATM   33  C   UNL     1       8.072  30.619  60.069  1.00  0.00     0.061 C 
HETATM   34  C   UNL     1       9.442  30.960  60.671  1.00  0.00     0.020 C 
HETATM   35  C   UNL     1       9.122  31.851  61.860  1.00  0.00     0.002 C 
HETATM   36  C   UNL     1       8.002  32.727  61.330  1.00  0.00     0.002 C 
HETATM   37  C   UNL     1       7.150  31.781  60.490  1.00  0.00     0.020 C 
ENDBRANCH  31  33
ENDBRANCH  22  31
ENDBRANCH   1  20
TORSDOF 7
ENDMDL
MODEL 6
REMARK VINA RESULT:     -10.1      2.692      3.557
REMARK  7 active torsions:
REMARK  status: ('A' for Active; 'I' for Inactive)
REMARK    1  A    between atoms: C_2  and  C_3 
REMARK    2  A    between atoms: C_3  and  C_4 
REMARK       I    between atoms: C_4  and  N_5 
REMARK    3  A    between atoms: N_5  and  C_6 
REMARK    4  A    between atoms: C_6  and  C_7 
REMARK    5  A    between atoms: C_9  and  N_10 
REMARK    6  A    between atoms: N_10  and  C_11 
REMARK    7  A    between atoms: C_27  and  N_28 
ROOT
HETATM    1  C   UNL     1       7.111  26.395  57.719  1.00  0.00     0.203 C 
ENDROOT
BRANCH   1   2
HETATM    2  N   UNL     1       6.690  27.711  57.266  1.00  0.00    -0.354 N 
HETATM    3  C   UNL     1       7.379  28.842  57.631  1.00  0.00     0.222 C 
HETATM    4  O   UNL     1       8.403  28.799  58.306  1.00  0.00    -0.273 OA
HETATM    5  H   UNL     1       5.751  27.774  56.888  1.00  0.00     0.162 HD
BRANCH   3   6
HETATM    6  C   UNL     1       6.801  30.136  57.081  1.00  0.00     0.141 C 
BRANCH   6   7
HETATM    7  C   UNL     1       5.899  30.879  58.038  1.00  0.00    -0.049 A 
HETATM    8  C   UNL     1       6.407  31.847  58.907  1.00  0.00     0.010 A 
HETATM    9  C   UNL     1       5.555  32.582  59.743  1.00  0.00     0.030 A 
HETATM   10  C   UNL     1       4.166  32.383  59.726  1.00  0.00     0.039 A 
HETATM   11  C   UNL     1       3.667  31.403  58.860  1.00  0.00     0.030 A 
HETATM   12  C   UNL     1       4.518  30.662  58.027  1.00  0.00     0.010 A 
BRANCH  10  13
HETATM   13  N   UNL     1       3.314  33.165  60.547  1.00  0.00    -0.298 N 
HETATM   14  C   UNL     1       3.138  33.053  61.939  1.00  0.00     0.323 C 
HETATM   15  O   UNL     1       3.636  32.278  62.737  1.00  0.00    -0.247 OA
HETATM   16  N   UNL     1       2.221  34.025  62.331  1.00  0.00    -0.341 N 
HETATM   17  C   UNL     1       1.597  34.627  61.193  1.00  0.00     0.144 C 
HETATM   18  H   UNL     1       1.842  33.987  63.267  1.00  0.00     0.164 HD
HETATM   19  C   UNL     1       2.527  34.274  60.043  1.00  0.00     0.153 C 
ENDBRANCH  10  13
ENDBRANCH   6   7
ENDBRANCH   3   6
ENDBRANCH   1   2
BRANCH   1  20
HETATM   20  C   UNL     1       7.292  25.418  56.577  1.00  0.00     0.146 A 
HETATM   21  N   UNL     1       7.155  25.895  55.324  1.00  0.00    -0.219 NA
HETATM   22  C   UNL     1       7.283  25.026  54.307  1.00  0.00     0.118 A 
HETATM   23  C   UNL     1       7.586  23.670  54.525  1.00  0.00     0.035 A 
HETATM   24  C   UNL     1       7.705  23.282  55.866  1.00  0.00     0.072 A 
HETATM   25  C   UNL     1       7.782  22.709  53.500  1.00  0.00     0.041 A 
HETATM   26  N   UNL     1       7.549  24.135  56.881  1.00  0.00    -0.231 NA
HETATM   27  C   UNL     1       8.003  21.955  56.155  1.00  0.00     0.034 A 
HETATM   28  C   UNL     1       8.189  21.004  55.148  1.00  0.00     0.026 A 
HETATM   29  C   UNL     1       8.080  21.387  53.819  1.00  0.00     0.035 A 
HETATM   30 CL   UNL     1       8.314  20.233  52.567  1.00  0.00    -0.084 Cl
BRANCH  22  31
HETATM   31  N   UNL     1       7.115  25.488  52.983  1.00  0.00    -0.272 NA
HETATM   32  H   UNL     1       7.316  24.709  52.360  1.00  0.00     0.129 HD
BRANCH  31  33
HETATM   33  C   UNL     1       5.830  26.113  52.669  1.00  0.00     0.061 C 
HETATM   34  C   UNL     1       6.021  27.547  52.159  1.00  0.00     0.020 C 
HETATM   35  C   UNL     1       4.937  27.724  51.109  1.00  0.00     0.002 C 
HETATM   36  C   UNL     1       4.943  26.385  50.394  1.00  0.00     0.002 C 
HETATM   37  C   UNL     1       5.144  25.364  51.509  1.00  0.00     0.020 C 
ENDBRANCH  31  33
ENDBRANCH  22  31
ENDBRANCH   1  20
TORSDOF 7
ENDMDL
MODEL 7
REMARK VINA RESULT:     -10.1      1.939      2.249
REMARK  7 active torsions:
REMARK  status: ('A' for Active; 'I' for Inactive)
REMARK    1  A    between atoms: C_2  and  C_3 
REMARK    2  A    between atoms: C_3  and  C_4 
REMARK       I    between atoms: C_4  and  N_5 
REMARK    3  A    between atoms: N_5  and  C_6 
REMARK    4  A    between atoms: C_6  and  C_7 
REMARK    5  A    between atoms: C_9  and  N_10 
REMARK    6  A    between atoms: N_10  and  C_11 
REMARK    7  A    between atoms: C_27  and  N_28 
ROOT
HETATM    1  C   UNL     1       5.704  29.788  57.451  1.00  0.00     0.203 C 
ENDROOT
BRANCH   1   2
HETATM    2  N   UNL     1       6.675  30.054  58.500  1.00  0.00    -0.354 N 
HETATM    3  C   UNL     1       7.070  31.336  58.793  1.00  0.00     0.222 C 
HETATM    4  O   UNL     1       6.593  32.318  58.229  1.00  0.00    -0.273 OA
HETATM    5  H   UNL     1       7.214  29.258  58.821  1.00  0.00     0.162 HD
BRANCH   3   6
HETATM    6  C   UNL     1       8.099  31.439  59.908  1.00  0.00     0.141 C 
BRANCH   6   7
HETATM    7  C   UNL     1       7.576  32.038  61.193  1.00  0.00    -0.049 A 
HETATM    8  C   UNL     1       6.237  32.414  61.323  1.00  0.00     0.010 A 
HETATM    9  C   UNL     1       5.743  32.904  62.539  1.00  0.00     0.030 A 
HETATM   10  C   UNL     1       6.567  33.020  63.669  1.00  0.00     0.039 A 
HETATM   11  C   UNL     1       7.910  32.652  63.526  1.00  0.00     0.030 A 
HETATM   12  C   UNL     1       8.409  32.167  62.308  1.00  0.00     0.010 A 
BRANCH  10  13
HETATM   13  N   UNL     1       6.041  33.477  64.904  1.00  0.00    -0.298 N 
HETATM   14  C   UNL     1       4.686  33.662  65.234  1.00  0.00     0.323 C 
HETATM   15  O   UNL     1       3.681  33.504  64.561  1.00  0.00    -0.247 OA
HETATM   16  N   UNL     1       4.626  34.108  66.552  1.00  0.00    -0.341 N 
HETATM   17  C   UNL     1       5.928  34.456  67.033  1.00  0.00     0.144 C 
HETATM   18  H   UNL     1       3.746  34.457  66.907  1.00  0.00     0.164 HD
HETATM   19  C   UNL     1       6.868  33.761  66.061  1.00  0.00     0.153 C 
ENDBRANCH  10  13
ENDBRANCH   6   7
ENDBRANCH   3   6
ENDBRANCH   1   2
BRANCH   1  20
HETATM   20  C   UNL     1       6.174  28.725  56.480  1.00  0.00     0.146 A 
HETATM   21  N   UNL     1       6.270  29.070  55.181  1.00  0.00    -0.219 NA
HETATM   22  C   UNL     1       6.656  28.122  54.311  1.00  0.00     0.118 A 
HETATM   23  C   UNL     1       6.988  26.821  54.730  1.00  0.00     0.035 A 
HETATM   24  C   UNL     1       6.851  26.572  56.102  1.00  0.00     0.072 A 
HETATM   25  C   UNL     1       7.447  25.787  53.875  1.00  0.00     0.041 A 
HETATM   26  N   UNL     1       6.439  27.501  56.967  1.00  0.00    -0.231 NA
HETATM   27  C   UNL     1       7.162  25.307  56.586  1.00  0.00     0.034 A 
HETATM   28  C   UNL     1       7.608  24.283  55.745  1.00  0.00     0.026 A 
HETATM   29  C   UNL     1       7.751  24.529  54.387  1.00  0.00     0.035 A 
HETATM   30 CL   UNL     1       8.306  23.285  53.340  1.00  0.00    -0.084 Cl
BRANCH  22  31
HETATM   31  N   UNL     1       6.737  28.443  52.937  1.00  0.00    -0.272 NA
HETATM   32  H   UNL     1       7.351  27.759  52.500  1.00  0.00     0.129 HD
BRANCH  31  33
HETATM   33  C   UNL     1       5.467  28.564  52.221  1.00  0.00     0.061 C 
HETATM   34  C   UNL     1       5.611  29.460  50.984  1.00  0.00     0.020 C 
HETATM   35  C   UNL     1       4.692  28.832  49.951  1.00  0.00     0.002 C 
HETATM   36  C   UNL     1       4.921  27.346  50.158  1.00  0.00     0.002 C 
HETATM   37  C   UNL     1       5.034  27.190  51.671  1.00  0.00     0.020 C 
ENDBRANCH  31  33
ENDBRANCH  22  31
ENDBRANCH   1  20
TORSDOF 7
ENDMDL
MODEL 8
REMARK VINA RESULT:      -9.8      6.543     12.155
REMARK  7 active torsions:
REMARK  status: ('A' for Active; 'I' for Inactive)
REMARK    1  A    between atoms: C_2  and  C_3 
REMARK    2  A    between atoms: C_3  and  C_4 
REMARK       I    between atoms: C_4  and  N_5 
REMARK    3  A    between atoms: N_5  and  C_6 
REMARK    4  A    between atoms: C_6  and  C_7 
REMARK    5  A    between atoms: C_9  and  N_10 
REMARK    6  A    between atoms: N_10  and  C_11 
REMARK    7  A    between atoms: C_27  and  N_28 
ROOT
HETATM    1  C   UNL     1       5.534  27.053  52.353  1.00  0.00     0.203 C 
ENDROOT
BRANCH   1   2
HETATM    2  N   UNL     1       5.271  26.596  50.998  1.00  0.00    -0.354 N 
HETATM    3  C   UNL     1       5.263  27.472  49.941  1.00  0.00     0.222 C 
HETATM    4  O   UNL     1       5.526  28.664  50.073  1.00  0.00    -0.273 OA
HETATM    5  H   UNL     1       4.859  25.673  50.911  1.00  0.00     0.162 HD
BRANCH   3   6
HETATM    6  C   UNL     1       4.960  26.833  48.595  1.00  0.00     0.141 C 
BRANCH   6   7
HETATM    7  C   UNL     1       3.684  27.312  47.944  1.00  0.00    -0.049 A 
HETATM    8  C   UNL     1       2.521  26.539  47.977  1.00  0.00     0.010 A 
HETATM    9  C   UNL     1       1.322  27.020  47.432  1.00  0.00     0.030 A 
HETATM   10  C   UNL     1       1.244  28.295  46.851  1.00  0.00     0.039 A 
HETATM   11  C   UNL     1       2.417  29.057  46.812  1.00  0.00     0.030 A 
HETATM   12  C   UNL     1       3.619  28.577  47.351  1.00  0.00     0.010 A 
BRANCH  10  13
HETATM   13  N   UNL     1       0.013  28.783  46.344  1.00  0.00    -0.298 N 
HETATM   14  C   UNL     1      -0.846  28.141  45.432  1.00  0.00     0.323 C 
HETATM   15  O   UNL     1      -0.734  27.066  44.866  1.00  0.00    -0.247 OA
HETATM   16  N   UNL     1      -1.943  28.972  45.223  1.00  0.00    -0.341 N 
HETATM   17  C   UNL     1      -1.719  30.266  45.790  1.00  0.00     0.144 C 
HETATM   18  H   UNL     1      -2.581  28.754  44.470  1.00  0.00     0.164 HD
HETATM   19  C   UNL     1      -0.578  30.037  46.769  1.00  0.00     0.153 C 
ENDBRANCH  10  13
ENDBRANCH   6   7
ENDBRANCH   3   6
ENDBRANCH   1   2
BRANCH   1  20
HETATM   20  C   UNL     1       6.019  25.940  53.258  1.00  0.00     0.146 A 
HETATM   21  N   UNL     1       5.735  26.041  54.572  1.00  0.00    -0.219 NA
HETATM   22  C   UNL     1       6.190  25.072  55.384  1.00  0.00     0.118 A 
HETATM   23  C   UNL     1       6.905  23.966  54.891  1.00  0.00     0.035 A 
HETATM   24  C   UNL     1       7.144  23.963  53.510  1.00  0.00     0.072 A 
HETATM   25  C   UNL     1       7.373  22.886  55.683  1.00  0.00     0.041 A 
HETATM   26  N   UNL     1       6.721  24.938  52.703  1.00  0.00    -0.231 NA
HETATM   27  C   UNL     1       7.847  22.900  52.956  1.00  0.00     0.034 A 
HETATM   28  C   UNL     1       8.316  21.838  53.734  1.00  0.00     0.026 A 
HETATM   29  C   UNL     1       8.074  21.834  55.100  1.00  0.00     0.035 A 
HETATM   30 CL   UNL     1       8.635  20.532  56.070  1.00  0.00    -0.084 Cl
BRANCH  22  31
HETATM   31  N   UNL     1       5.937  25.164  56.771  1.00  0.00    -0.272 NA
HETATM   32  H   UNL     1       6.021  24.227  57.160  1.00  0.00     0.129 HD
BRANCH  31  33
HETATM   33  C   UNL     1       6.740  26.132  57.517  1.00  0.00     0.061 C 
HETATM   34  C   UNL     1       8.162  26.227  56.947  1.00  0.00     0.020 C 
HETATM   35  C   UNL     1       8.535  27.692  57.101  1.00  0.00     0.002 C 
HETATM   36  C   UNL     1       7.246  28.405  56.734  1.00  0.00     0.002 C 
HETATM   37  C   UNL     1       6.150  27.548  57.358  1.00  0.00     0.020 C 
ENDBRANCH  31  33
ENDBRANCH  22  31
ENDBRANCH   1  20
TORSDOF 7
ENDMDL
MODEL 9
REMARK VINA RESULT:      -9.8      4.624     11.083
REMARK  7 active torsions:
REMARK  status: ('A' for Active; 'I' for Inactive)
REMARK    1  A    between atoms: C_2  and  C_3 
REMARK    2  A    between atoms: C_3  and  C_4 
REMARK       I    between atoms: C_4  and  N_5 
REMARK    3  A    between atoms: N_5  and  C_6 
REMARK    4  A    between atoms: C_6  and  C_7 
REMARK    5  A    between atoms: C_9  and  N_10 
REMARK    6  A    between atoms: N_10  and  C_11 
REMARK    7  A    between atoms: C_27  and  N_28 
ROOT
HETATM    1  C   UNL     1       4.826  29.123  55.113  1.00  0.00     0.203 C 
ENDROOT
BRANCH   1   2
HETATM    2  N   UNL     1       5.713  28.387  54.226  1.00  0.00    -0.354 N 
HETATM    3  C   UNL     1       5.223  27.455  53.344  1.00  0.00     0.222 C 
HETATM    4  O   UNL     1       4.022  27.234  53.220  1.00  0.00    -0.273 OA
HETATM    5  H   UNL     1       6.699  28.414  54.460  1.00  0.00     0.162 HD
BRANCH   3   6
HETATM    6  C   UNL     1       6.285  26.769  52.499  1.00  0.00     0.141 C 
BRANCH   6   7
HETATM    7  C   UNL     1       6.860  25.513  53.109  1.00  0.00    -0.049 A 
HETATM    8  C   UNL     1       6.502  25.105  54.396  1.00  0.00     0.010 A 
HETATM    9  C   UNL     1       6.985  23.902  54.929  1.00  0.00     0.030 A 
HETATM   10  C   UNL     1       7.828  23.061  54.188  1.00  0.00     0.039 A 
HETATM   11  C   UNL     1       8.191  23.483  52.904  1.00  0.00     0.030 A 
HETATM   12  C   UNL     1       7.714  24.689  52.370  1.00  0.00     0.010 A 
BRANCH  10  13
HETATM   13  N   UNL     1       8.273  21.826  54.726  1.00  0.00    -0.298 N 
HETATM   14  C   UNL     1       8.325  20.582  54.069  1.00  0.00     0.323 C 
HETATM   15  O   UNL     1       7.993  20.274  52.936  1.00  0.00    -0.247 OA
HETATM   16  N   UNL     1       8.838  19.649  54.965  1.00  0.00    -0.341 N 
HETATM   17  C   UNL     1       8.905  20.193  56.286  1.00  0.00     0.144 C 
HETATM   18  H   UNL     1       8.789  18.668  54.726  1.00  0.00     0.164 HD
HETATM   19  C   UNL     1       8.819  21.694  56.062  1.00  0.00     0.153 C 
ENDBRANCH  10  13
ENDBRANCH   6   7
ENDBRANCH   3   6
ENDBRANCH   1   2
BRANCH   1  20
HETATM   20  C   UNL     1       5.555  29.728  56.294  1.00  0.00     0.146 A 
HETATM   21  N   UNL     1       4.816  30.389  57.207  1.00  0.00    -0.219 NA
HETATM   22  C   UNL     1       5.462  30.954  58.240  1.00  0.00     0.118 A 
HETATM   23  C   UNL     1       6.854  30.838  58.399  1.00  0.00     0.035 A 
HETATM   24  C   UNL     1       7.522  30.130  57.391  1.00  0.00     0.072 A 
HETATM   25  C   UNL     1       7.593  31.368  59.488  1.00  0.00     0.041 A 
HETATM   26  N   UNL     1       6.890  29.592  56.346  1.00  0.00    -0.231 NA
HETATM   27  C   UNL     1       8.901  29.977  57.483  1.00  0.00     0.034 A 
HETATM   28  C   UNL     1       9.633  30.504  58.551  1.00  0.00     0.026 A 
HETATM   29  C   UNL     1       8.973  31.198  59.554  1.00  0.00     0.035 A 
HETATM   30 CL   UNL     1       9.856  31.845  60.878  1.00  0.00    -0.084 Cl
BRANCH  22  31
HETATM   31  N   UNL     1       4.720  31.681  59.199  1.00  0.00    -0.272 NA
HETATM   32  H   UNL     1       5.384  32.093  59.851  1.00  0.00     0.129 HD
BRANCH  31  33
HETATM   33  C   UNL     1       3.785  32.679  58.678  1.00  0.00     0.061 C 
HETATM   34  C   UNL     1       3.005  33.353  59.815  1.00  0.00     0.020 C 
HETATM   35  C   UNL     1       2.836  34.792  59.357  1.00  0.00     0.002 C 
HETATM   36  C   UNL     1       4.181  35.103  58.728  1.00  0.00     0.002 C 
HETATM   37  C   UNL     1       4.557  33.822  57.990  1.00  0.00     0.020 C 
ENDBRANCH  31  33
ENDBRANCH  22  31
ENDBRANCH   1  20
TORSDOF 7
ENDMDL
MODEL 10
REMARK VINA RESULT:      -9.7      2.742      3.655
REMARK  7 active torsions:
REMARK  status: ('A' for Active; 'I' for Inactive)
REMARK    1  A    between atoms: C_2  and  C_3 
REMARK    2  A    between atoms: C_3  and  C_4 
REMARK       I    between atoms: C_4  and  N_5 
REMARK    3  A    between atoms: N_5  and  C_6 
REMARK    4  A    between atoms: C_6  and  C_7 
REMARK    5  A    between atoms: C_9  and  N_10 
REMARK    6  A    between atoms: N_10  and  C_11 
REMARK    7  A    between atoms: C_27  and  N_28 
ROOT
HETATM    1  C   UNL     1       7.225  26.505  57.696  1.00  0.00     0.203 C 
ENDROOT
BRANCH   1   2
HETATM    2  N   UNL     1       6.797  27.809  57.218  1.00  0.00    -0.354 N 
HETATM    3  C   UNL     1       7.379  28.963  57.682  1.00  0.00     0.222 C 
HETATM    4  O   UNL     1       8.315  28.954  58.477  1.00  0.00    -0.273 OA
HETATM    5  H   UNL     1       5.908  27.835  56.729  1.00  0.00     0.162 HD
BRANCH   3   6
HETATM    6  C   UNL     1       6.807  30.241  57.087  1.00  0.00     0.141 C 
BRANCH   6   7
HETATM    7  C   UNL     1       5.915  31.024  58.021  1.00  0.00    -0.049 A 
HETATM    8  C   UNL     1       4.527  30.869  57.995  1.00  0.00     0.010 A 
HETATM    9  C   UNL     1       3.711  31.546  58.911  1.00  0.00     0.030 A 
HETATM   10  C   UNL     1       4.256  32.390  59.890  1.00  0.00     0.039 A 
HETATM   11  C   UNL     1       5.647  32.549  59.901  1.00  0.00     0.030 A 
HETATM   12  C   UNL     1       6.465  31.877  58.982  1.00  0.00     0.010 A 
BRANCH  10  13
HETATM   13  N   UNL     1       3.419  33.035  60.837  1.00  0.00    -0.298 N 
HETATM   14  C   UNL     1       2.335  33.891  60.568  1.00  0.00     0.323 C 
HETATM   15  O   UNL     1       1.887  34.287  59.505  1.00  0.00    -0.247 OA
HETATM   16  N   UNL     1       1.791  34.283  61.788  1.00  0.00    -0.341 N 
HETATM   17  C   UNL     1       2.640  33.899  62.873  1.00  0.00     0.144 C 
HETATM   18  H   UNL     1       1.112  35.033  61.799  1.00  0.00     0.164 HD
HETATM   19  C   UNL     1       3.537  32.832  62.267  1.00  0.00     0.153 C 
ENDBRANCH  10  13
ENDBRANCH   6   7
ENDBRANCH   3   6
ENDBRANCH   1   2
BRANCH   1  20
HETATM   20  C   UNL     1       7.424  25.510  56.573  1.00  0.00     0.146 A 
HETATM   21  N   UNL     1       7.517  25.999  55.320  1.00  0.00    -0.219 NA
HETATM   22  C   UNL     1       7.661  25.118  54.316  1.00  0.00     0.118 A 
HETATM   23  C   UNL     1       7.752  23.734  54.550  1.00  0.00     0.035 A 
HETATM   24  C   UNL     1       7.642  23.337  55.889  1.00  0.00     0.072 A 
HETATM   25  C   UNL     1       7.952  22.754  53.545  1.00  0.00     0.041 A 
HETATM   26  N   UNL     1       7.467  24.205  56.888  1.00  0.00    -0.231 NA
HETATM   27  C   UNL     1       7.722  21.983  56.194  1.00  0.00     0.034 A 
HETATM   28  C   UNL     1       7.912  21.013  55.205  1.00  0.00     0.026 A 
HETATM   29  C   UNL     1       8.029  21.405  53.879  1.00  0.00     0.035 A 
HETATM   30 CL   UNL     1       8.271  20.227  52.652  1.00  0.00    -0.084 Cl
BRANCH  22  31
HETATM   31  N   UNL     1       7.731  25.596  52.988  1.00  0.00    -0.272 NA
HETATM   32  H   UNL     1       8.032  24.821  52.400  1.00  0.00     0.129 HD
BRANCH  31  33
HETATM   33  C   UNL     1       6.525  26.235  52.462  1.00  0.00     0.061 C 
HETATM   34  C   UNL     1       5.260  25.622  53.077  1.00  0.00     0.020 C 
HETATM   35  C   UNL     1       4.300  26.792  53.216  1.00  0.00     0.002 C 
HETATM   36  C   UNL     1       5.209  27.917  53.677  1.00  0.00     0.002 C 
HETATM   37  C   UNL     1       6.489  27.721  52.871  1.00  0.00     0.020 C 
ENDBRANCH  31  33
ENDBRANCH  22  31
ENDBRANCH   1  20
TORSDOF 7
ENDMDL
