MODEL 1
REMARK VINA RESULT:      -8.4      0.000      0.000
REMARK  6 active torsions:
REMARK  status: ('A' for Active; 'I' for Inactive)
REMARK    1  A    between atoms: C_9  and  C_10 
REMARK    2  A    between atoms: C_12  and  O_13 
REMARK    3  A    between atoms: C_15  and  O_16 
REMARK    4  A    between atoms: O_16  and  C_17 
REMARK    5  A    between atoms: C_17  and  C_18 
REMARK    6  A    between atoms: C_18  and  N_19 
ROOT
HETATM    1  H   UNL     1       4.415  25.482  57.362  1.00  0.00     0.186 HD
HETATM    2  N   UNL     1       4.757  25.381  56.395  1.00  0.00    -0.304 NA
HETATM    3  C   UNL     1       5.965  25.812  56.199  1.00  0.00     0.062 C 
HETATM    4  C   UNL     1       6.625  25.678  54.812  1.00  0.00     0.173 C 
HETATM    5  C   UNL     1       7.717  24.625  54.907  1.00  0.00     0.012 C 
HETATM    6  N   UNL     1       8.623  23.752  54.986  1.00  0.00    -0.099 N 
HETATM    7  C   UNL     1       5.656  25.221  53.786  1.00  0.00     0.090 C 
HETATM    8  N   UNL     1       4.929  24.939  52.927  1.00  0.00    -0.195 NA
HETATM    9  C   UNL     1       7.251  27.054  54.371  1.00  0.00     0.070 C 
HETATM   10  C   UNL     1       8.149  27.671  55.491  1.00  0.00     0.053 C 
HETATM   11  C   UNL     1       7.430  27.749  56.830  1.00  0.00    -0.052 C 
HETATM   12  C   UNL     1       7.506  28.864  57.588  1.00  0.00     0.005 C 
HETATM   13  C   UNL     1       6.740  26.487  57.330  1.00  0.00     0.171 C 
HETATM   14  C   UNL     1       7.734  25.588  57.932  1.00  0.00     0.074 C 
HETATM   15  N   UNL     1       8.586  24.955  58.395  1.00  0.00    -0.196 NA
HETATM   16  C   UNL     1       8.800  29.012  55.054  1.00  0.00     0.244 C 
HETATM   17  N   UNL     1       9.409  29.739  56.229  1.00  0.00    -0.071 N 
HETATM   18  H   UNL     1       9.741  30.649  55.880  1.00  0.00     0.279 HD
HETATM   19  C   UNL     1      10.637  29.076  56.801  1.00  0.00     0.270 C 
HETATM   20  C   UNL     1       8.359  30.053  57.264  1.00  0.00     0.262 C 
ENDROOT
BRANCH   9  21
HETATM   21  C   UNL     1       6.227  28.038  53.773  1.00  0.00    -0.047 A 
HETATM   22  C   UNL     1       5.278  28.724  54.546  1.00  0.00     0.047 A 
HETATM   23  C   UNL     1       4.222  29.419  53.934  1.00  0.00     0.102 A 
HETATM   24  C   UNL     1       4.141  29.526  52.540  1.00  0.00     0.102 A 
HETATM   25  C   UNL     1       5.141  28.936  51.768  1.00  0.00     0.040 A 
HETATM   26  C   UNL     1       6.155  28.180  52.375  1.00  0.00     0.010 A 
BRANCH  23  27
HETATM   27  O   UNL     1       3.243  30.021  54.689  1.00  0.00    -0.353 OA
HETATM   28  C   UNL     1       3.652  30.201  56.049  1.00  0.00     0.210 C 
ENDBRANCH  23  27
BRANCH  24  29
HETATM   29  O   UNL     1       3.058  30.203  52.037  1.00  0.00    -0.347 OA
BRANCH  29  30
HETATM   30  C   UNL     1       2.883  30.163  50.617  1.00  0.00     0.203 C 
BRANCH  30  31
HETATM   31  C   UNL     1       1.825  29.101  50.283  1.00  0.00     0.261 C 
BRANCH  31  32
HETATM   32  N   UNL     1       2.375  28.000  49.395  1.00  0.00    -0.065 N 
HETATM   33  H   UNL     1       2.612  27.218  50.026  1.00  0.00     0.280 HD
HETATM   34  C   UNL     1       1.380  27.478  48.367  1.00  0.00     0.261 C 
HETATM   35  C   UNL     1       2.044  26.403  47.499  1.00  0.00     0.195 C 
HETATM   36  O   UNL     1       3.213  26.915  46.854  1.00  0.00    -0.388 OA
HETATM   37  C   UNL     1       4.199  27.331  47.803  1.00  0.00     0.195 C 
HETATM   38  C   UNL     1       3.659  28.452  48.696  1.00  0.00     0.261 C 
ENDBRANCH  31  32
ENDBRANCH  30  31
ENDBRANCH  29  30
ENDBRANCH  24  29
ENDBRANCH   9  21
TORSDOF 6
ENDMDL
MODEL 2
REMARK VINA RESULT:      -8.0      4.125      7.530
REMARK  6 active torsions:
REMARK  status: ('A' for Active; 'I' for Inactive)
REMARK    1  A    between atoms: C_9  and  C_10 
REMARK    2  A    between atoms: C_12  and  O_13 
REMARK    3  A    between atoms: C_15  and  O_16 
REMARK    4  A    between atoms: O_16  and  C_17 
REMARK    5  A    between atoms: C_17  and  C_18 
REMARK    6  A    between atoms: C_18  and  N_19 
ROOT
HETATM    1  H   UNL     1       5.991  33.787  53.985  1.00  0.00     0.186 HD
HETATM    2  N   UNL     1       5.293  33.034  53.897  1.00  0.00    -0.304 NA
HETATM    3  C   UNL     1       4.546  32.861  54.944  1.00  0.00     0.062 C 
HETATM    4  C   UNL     1       3.426  31.803  54.937  1.00  0.00     0.173 C 
HETATM    5  C   UNL     1       2.090  32.528  54.912  1.00  0.00     0.012 C 
HETATM    6  N   UNL     1       0.982  33.129  54.892  1.00  0.00    -0.099 N 
HETATM    7  C   UNL     1       3.488  30.947  53.727  1.00  0.00     0.090 C 
HETATM    8  N   UNL     1       3.532  30.198  52.841  1.00  0.00    -0.195 NA
HETATM    9  C   UNL     1       3.517  30.903  56.225  1.00  0.00     0.070 C 
HETATM   10  C   UNL     1       3.630  31.759  57.528  1.00  0.00     0.053 C 
HETATM   11  C   UNL     1       4.746  32.791  57.444  1.00  0.00    -0.052 C 
HETATM   12  C   UNL     1       5.590  32.976  58.482  1.00  0.00     0.005 C 
HETATM   13  C   UNL     1       4.787  33.682  56.211  1.00  0.00     0.171 C 
HETATM   14  C   UNL     1       3.810  34.771  56.357  1.00  0.00     0.074 C 
HETATM   15  N   UNL     1       3.025  35.596  56.569  1.00  0.00    -0.196 NA
HETATM   16  C   UNL     1       3.687  30.882  58.808  1.00  0.00     0.244 C 
HETATM   17  N   UNL     1       4.096  31.692  60.015  1.00  0.00    -0.071 N 
HETATM   18  H   UNL     1       4.194  31.034  60.800  1.00  0.00     0.279 HD
HETATM   19  C   UNL     1       3.059  32.687  60.477  1.00  0.00     0.270 C 
HETATM   20  C   UNL     1       5.461  32.298  59.813  1.00  0.00     0.262 C 
ENDROOT
BRANCH   9  21
HETATM   21  C   UNL     1       4.562  29.775  56.122  1.00  0.00    -0.047 A 
HETATM   22  C   UNL     1       5.945  30.011  56.073  1.00  0.00     0.047 A 
HETATM   23  C   UNL     1       6.836  28.978  55.740  1.00  0.00     0.102 A 
HETATM   24  C   UNL     1       6.382  27.669  55.543  1.00  0.00     0.102 A 
HETATM   25  C   UNL     1       5.022  27.406  55.695  1.00  0.00     0.040 A 
HETATM   26  C   UNL     1       4.121  28.450  55.955  1.00  0.00     0.010 A 
BRANCH  23  27
HETATM   27  O   UNL     1       8.183  29.225  55.607  1.00  0.00    -0.353 OA
HETATM   28  C   UNL     1       8.862  29.181  56.868  1.00  0.00     0.210 C 
ENDBRANCH  23  27
BRANCH  24  29
HETATM   29  O   UNL     1       7.327  26.735  55.196  1.00  0.00    -0.347 OA
BRANCH  29  30
HETATM   30  C   UNL     1       6.838  25.471  54.736  1.00  0.00     0.203 C 
BRANCH  30  31
HETATM   31  C   UNL     1       7.886  24.852  53.800  1.00  0.00     0.261 C 
BRANCH  31  32
HETATM   32  N   UNL     1       8.200  23.411  54.160  1.00  0.00    -0.065 N 
HETATM   33  H   UNL     1       9.220  23.374  54.316  1.00  0.00     0.280 HD
HETATM   34  C   UNL     1       7.520  22.928  55.435  1.00  0.00     0.261 C 
HETATM   35  C   UNL     1       7.869  21.457  55.686  1.00  0.00     0.195 C 
HETATM   36  O   UNL     1       7.488  20.644  54.573  1.00  0.00    -0.388 OA
HETATM   37  C   UNL     1       8.182  21.023  53.381  1.00  0.00     0.195 C 
HETATM   38  C   UNL     1       7.862  22.472  53.000  1.00  0.00     0.261 C 
ENDBRANCH  31  32
ENDBRANCH  30  31
ENDBRANCH  29  30
ENDBRANCH  24  29
ENDBRANCH   9  21
TORSDOF 6
ENDMDL
MODEL 3
REMARK VINA RESULT:      -7.9      2.239      5.061
REMARK  6 active torsions:
REMARK  status: ('A' for Active; 'I' for Inactive)
REMARK    1  A    between atoms: C_9  and  C_10 
REMARK    2  A    between atoms: C_12  and  O_13 
REMARK    3  A    between atoms: C_15  and  O_16 
REMARK    4  A    between atoms: O_16  and  C_17 
REMARK    5  A    between atoms: C_17  and  C_18 
REMARK    6  A    between atoms: C_18  and  N_19 
ROOT
HETATM    1  H   UNL     1       4.627  24.954  57.601  1.00  0.00     0.186 HD
HETATM    2  N   UNL     1       4.856  24.967  56.595  1.00  0.00    -0.304 NA
HETATM    3  C   UNL     1       5.999  25.509  56.306  1.00  0.00     0.062 C 
HETATM    4  C   UNL     1       6.493  25.554  54.847  1.00  0.00     0.173 C 
HETATM    5  C   UNL     1       7.658  24.586  54.712  1.00  0.00     0.012 C 
HETATM    6  N   UNL     1       8.624  23.784  54.600  1.00  0.00    -0.099 N 
HETATM    7  C   UNL     1       5.441  25.116  53.898  1.00  0.00     0.090 C 
HETATM    8  N   UNL     1       4.635  24.856  53.104  1.00  0.00    -0.195 NA
HETATM    9  C   UNL     1       6.966  27.009  54.475  1.00  0.00     0.070 C 
HETATM   10  C   UNL     1       7.950  27.591  55.540  1.00  0.00     0.053 C 
HETATM   11  C   UNL     1       7.394  27.491  56.954  1.00  0.00    -0.052 C 
HETATM   12  C   UNL     1       7.486  28.535  57.805  1.00  0.00     0.005 C 
HETATM   13  C   UNL     1       6.857  26.138  57.403  1.00  0.00     0.171 C 
HETATM   14  C   UNL     1       7.976  25.270  57.795  1.00  0.00     0.074 C 
HETATM   15  N   UNL     1       8.919  24.667  58.093  1.00  0.00    -0.196 NA
HETATM   16  C   UNL     1       8.450  29.014  55.168  1.00  0.00     0.244 C 
HETATM   17  N   UNL     1       9.146  29.678  56.331  1.00  0.00    -0.071 N 
HETATM   18  H   UNL     1       9.371  30.638  56.038  1.00  0.00     0.279 HD
HETATM   19  C   UNL     1      10.477  29.065  56.691  1.00  0.00     0.270 C 
HETATM   20  C   UNL     1       8.211  29.813  57.505  1.00  0.00     0.262 C 
ENDROOT
BRANCH   9  21
HETATM   21  C   UNL     1       5.814  27.959  54.098  1.00  0.00    -0.047 A 
HETATM   22  C   UNL     1       5.641  28.484  52.808  1.00  0.00     0.047 A 
HETATM   23  C   UNL     1       4.726  29.524  52.575  1.00  0.00     0.102 A 
HETATM   24  C   UNL     1       3.897  29.999  53.597  1.00  0.00     0.102 A 
HETATM   25  C   UNL     1       3.989  29.409  54.857  1.00  0.00     0.040 A 
HETATM   26  C   UNL     1       4.952  28.421  55.111  1.00  0.00     0.010 A 
BRANCH  23  27
HETATM   27  O   UNL     1       4.616  30.098  51.330  1.00  0.00    -0.353 OA
HETATM   28  C   UNL     1       3.823  29.302  50.442  1.00  0.00     0.210 C 
ENDBRANCH  23  27
BRANCH  24  29
HETATM   29  O   UNL     1       3.055  31.035  53.276  1.00  0.00    -0.347 OA
BRANCH  29  30
HETATM   30  C   UNL     1       3.379  32.316  53.826  1.00  0.00     0.203 C 
BRANCH  30  31
HETATM   31  C   UNL     1       2.347  32.660  54.909  1.00  0.00     0.261 C 
BRANCH  31  32
HETATM   32  N   UNL     1       2.994  32.925  56.257  1.00  0.00    -0.065 N 
HETATM   33  H   UNL     1       2.558  32.260  56.916  1.00  0.00     0.280 HD
HETATM   34  C   UNL     1       4.497  32.680  56.283  1.00  0.00     0.261 C 
HETATM   35  C   UNL     1       5.056  33.012  57.670  1.00  0.00     0.195 C 
HETATM   36  O   UNL     1       4.759  34.364  58.031  1.00  0.00    -0.388 OA
HETATM   37  C   UNL     1       3.349  34.594  58.099  1.00  0.00     0.195 C 
HETATM   38  C   UNL     1       2.688  34.344  56.740  1.00  0.00     0.261 C 
ENDBRANCH  31  32
ENDBRANCH  30  31
ENDBRANCH  29  30
ENDBRANCH  24  29
ENDBRANCH   9  21
TORSDOF 6
ENDMDL
MODEL 4
REMARK VINA RESULT:      -7.8      3.451      8.281
REMARK  6 active torsions:
REMARK  status: ('A' for Active; 'I' for Inactive)
REMARK    1  A    between atoms: C_9  and  C_10 
REMARK    2  A    between atoms: C_12  and  O_13 
REMARK    3  A    between atoms: C_15  and  O_16 
REMARK    4  A    between atoms: O_16  and  C_17 
REMARK    5  A    between atoms: C_17  and  C_18 
REMARK    6  A    between atoms: C_18  and  N_19 
ROOT
HETATM    1  H   UNL     1       6.443  27.573  46.585  1.00  0.00     0.186 HD
HETATM    2  N   UNL     1       5.620  27.185  47.068  1.00  0.00    -0.304 NA
HETATM    3  C   UNL     1       4.849  28.069  47.623  1.00  0.00     0.062 C 
HETATM    4  C   UNL     1       3.554  27.635  48.338  1.00  0.00     0.173 C 
HETATM    5  C   UNL     1       2.373  28.092  47.496  1.00  0.00     0.012 C 
HETATM    6  N   UNL     1       1.394  28.471  46.798  1.00  0.00    -0.099 N 
HETATM    7  C   UNL     1       3.465  26.160  48.464  1.00  0.00     0.090 C 
HETATM    8  N   UNL     1       3.375  25.019  48.658  1.00  0.00    -0.195 NA
HETATM    9  C   UNL     1       3.473  28.293  49.766  1.00  0.00     0.070 C 
HETATM   10  C   UNL     1       3.734  29.832  49.715  1.00  0.00     0.053 C 
HETATM   11  C   UNL     1       5.020  30.175  48.976  1.00  0.00    -0.052 C 
HETATM   12  C   UNL     1       5.878  31.088  49.477  1.00  0.00     0.005 C 
HETATM   13  C   UNL     1       5.229  29.549  47.604  1.00  0.00     0.171 C 
HETATM   14  C   UNL     1       4.467  30.302  46.598  1.00  0.00     0.074 C 
HETATM   15  N   UNL     1       3.846  30.964  45.879  1.00  0.00    -0.196 NA
HETATM   16  C   UNL     1       3.624  30.498  51.114  1.00  0.00     0.244 C 
HETATM   17  N   UNL     1       4.167  31.906  51.101  1.00  0.00    -0.071 N 
HETATM   18  H   UNL     1       4.140  32.247  52.071  1.00  0.00     0.279 HD
HETATM   19  C   UNL     1       3.328  32.890  50.324  1.00  0.00     0.270 C 
HETATM   20  C   UNL     1       5.621  31.912  50.703  1.00  0.00     0.262 C 
ENDROOT
BRANCH   9  21
HETATM   21  C   UNL     1       4.295  27.552  50.838  1.00  0.00    -0.047 A 
HETATM   22  C   UNL     1       4.023  27.640  52.212  1.00  0.00     0.047 A 
HETATM   23  C   UNL     1       4.937  27.144  53.156  1.00  0.00     0.102 A 
HETATM   24  C   UNL     1       6.095  26.467  52.754  1.00  0.00     0.102 A 
HETATM   25  C   UNL     1       6.318  26.283  51.390  1.00  0.00     0.040 A 
HETATM   26  C   UNL     1       5.444  26.840  50.445  1.00  0.00     0.010 A 
BRANCH  23  27
HETATM   27  O   UNL     1       4.715  27.305  54.504  1.00  0.00    -0.353 OA
HETATM   28  C   UNL     1       4.227  28.615  54.813  1.00  0.00     0.210 C 
ENDBRANCH  23  27
BRANCH  24  29
HETATM   29  O   UNL     1       6.938  26.044  53.751  1.00  0.00    -0.347 OA
BRANCH  29  30
HETATM   30  C   UNL     1       7.615  24.802  53.531  1.00  0.00     0.203 C 
BRANCH  30  31
HETATM   31  C   UNL     1       7.578  23.987  54.833  1.00  0.00     0.261 C 
BRANCH  31  32
HETATM   32  N   UNL     1       7.551  22.491  54.575  1.00  0.00    -0.065 N 
HETATM   33  H   UNL     1       6.571  22.197  54.715  1.00  0.00     0.280 HD
HETATM   34  C   UNL     1       7.953  22.099  53.159  1.00  0.00     0.261 C 
HETATM   35  C   UNL     1       7.931  20.573  53.015  1.00  0.00     0.195 C 
HETATM   36  O   UNL     1       8.796  19.957  53.973  1.00  0.00    -0.388 OA
HETATM   37  C   UNL     1       8.384  20.240  55.314  1.00  0.00     0.195 C 
HETATM   38  C   UNL     1       8.421  21.746  55.589  1.00  0.00     0.261 C 
ENDBRANCH  31  32
ENDBRANCH  30  31
ENDBRANCH  29  30
ENDBRANCH  24  29
ENDBRANCH   9  21
TORSDOF 6
ENDMDL
MODEL 5
REMARK VINA RESULT:      -7.5      7.721     10.477
REMARK  6 active torsions:
REMARK  status: ('A' for Active; 'I' for Inactive)
REMARK    1  A    between atoms: C_9  and  C_10 
REMARK    2  A    between atoms: C_12  and  O_13 
REMARK    3  A    between atoms: C_15  and  O_16 
REMARK    4  A    between atoms: O_16  and  C_17 
REMARK    5  A    between atoms: C_17  and  C_18 
REMARK    6  A    between atoms: C_18  and  N_19 
ROOT
HETATM    1  H   UNL     1       1.758  34.277  64.644  1.00  0.00     0.186 HD
HETATM    2  N   UNL     1       2.584  33.762  64.303  1.00  0.00    -0.304 NA
HETATM    3  C   UNL     1       3.647  34.488  64.141  1.00  0.00     0.062 C 
HETATM    4  C   UNL     1       4.969  33.841  63.683  1.00  0.00     0.173 C 
HETATM    5  C   UNL     1       5.935  33.856  64.857  1.00  0.00     0.012 C 
HETATM    6  N   UNL     1       6.735  33.868  65.831  1.00  0.00    -0.099 N 
HETATM    7  C   UNL     1       4.778  32.426  63.283  1.00  0.00     0.090 C 
HETATM    8  N   UNL     1       4.677  31.340  62.887  1.00  0.00    -0.195 NA
HETATM    9  C   UNL     1       5.584  34.650  62.480  1.00  0.00     0.070 C 
HETATM   10  C   UNL     1       5.649  36.182  62.781  1.00  0.00     0.053 C 
HETATM   11  C   UNL     1       4.309  36.736  63.245  1.00  0.00    -0.052 C 
HETATM   12  C   UNL     1       3.838  37.901  62.750  1.00  0.00     0.005 C 
HETATM   13  C   UNL     1       3.596  35.998  64.370  1.00  0.00     0.171 C 
HETATM   14  C   UNL     1       4.185  36.380  65.661  1.00  0.00     0.074 C 
HETATM   15  N   UNL     1       4.705  36.752  66.627  1.00  0.00    -0.196 NA
HETATM   16  C   UNL     1       6.285  36.987  61.615  1.00  0.00     0.244 C 
HETATM   17  N   UNL     1       6.068  38.471  61.785  1.00  0.00    -0.071 N 
HETATM   18  H   UNL     1       6.438  38.928  60.940  1.00  0.00     0.279 HD
HETATM   19  C   UNL     1       6.843  39.087  62.924  1.00  0.00     0.270 C 
HETATM   20  C   UNL     1       4.596  38.795  61.816  1.00  0.00     0.262 C 
ENDROOT
BRANCH   9  21
HETATM   21  C   UNL     1       4.960  34.304  61.115  1.00  0.00    -0.047 A 
HETATM   22  C   UNL     1       3.655  34.670  60.752  1.00  0.00     0.047 A 
HETATM   23  C   UNL     1       3.053  34.130  59.604  1.00  0.00     0.102 A 
HETATM   24  C   UNL     1       3.767  33.289  58.742  1.00  0.00     0.102 A 
HETATM   25  C   UNL     1       5.099  33.006  59.041  1.00  0.00     0.040 A 
HETATM   26  C   UNL     1       5.679  33.485  60.225  1.00  0.00     0.010 A 
BRANCH  23  27
HETATM   27  O   UNL     1       1.745  34.420  59.291  1.00  0.00    -0.353 OA
HETATM   28  C   UNL     1       1.047  35.003  60.398  1.00  0.00     0.210 C 
ENDBRANCH  23  27
BRANCH  24  29
HETATM   29  O   UNL     1       3.083  32.792  57.661  1.00  0.00    -0.347 OA
BRANCH  29  30
HETATM   30  C   UNL     1       3.792  31.874  56.823  1.00  0.00     0.203 C 
BRANCH  30  31
HETATM   31  C   UNL     1       3.104  30.503  56.904  1.00  0.00     0.261 C 
BRANCH  31  32
HETATM   32  N   UNL     1       4.100  29.365  57.033  1.00  0.00    -0.065 N 
HETATM   33  H   UNL     1       3.781  28.800  57.837  1.00  0.00     0.280 HD
HETATM   34  C   UNL     1       4.156  28.449  55.818  1.00  0.00     0.261 C 
HETATM   35  C   UNL     1       5.215  27.363  56.033  1.00  0.00     0.195 C 
HETATM   36  O   UNL     1       6.498  27.942  56.287  1.00  0.00    -0.388 OA
HETATM   37  C   UNL     1       6.491  28.737  57.476  1.00  0.00     0.195 C 
HETATM   38  C   UNL     1       5.499  29.897  57.351  1.00  0.00     0.261 C 
ENDBRANCH  31  32
ENDBRANCH  30  31
ENDBRANCH  29  30
ENDBRANCH  24  29
ENDBRANCH   9  21
TORSDOF 6
ENDMDL
MODEL 6
REMARK VINA RESULT:      -7.3      9.473     13.404
REMARK  6 active torsions:
REMARK  status: ('A' for Active; 'I' for Inactive)
REMARK    1  A    between atoms: C_9  and  C_10 
REMARK    2  A    between atoms: C_12  and  O_13 
REMARK    3  A    between atoms: C_15  and  O_16 
REMARK    4  A    between atoms: O_16  and  C_17 
REMARK    5  A    between atoms: C_17  and  C_18 
REMARK    6  A    between atoms: C_18  and  N_19 
ROOT
HETATM    1  H   UNL     1       5.360  37.755  57.825  1.00  0.00     0.186 HD
HETATM    2  N   UNL     1       4.543  37.582  58.429  1.00  0.00    -0.304 NA
HETATM    3  C   UNL     1       4.470  38.349  59.474  1.00  0.00     0.062 C 
HETATM    4  C   UNL     1       3.274  38.236  60.440  1.00  0.00     0.173 C 
HETATM    5  C   UNL     1       2.415  39.480  60.277  1.00  0.00     0.012 C 
HETATM    6  N   UNL     1       1.703  40.511  60.142  1.00  0.00    -0.099 N 
HETATM    7  C   UNL     1       2.422  37.064  60.124  1.00  0.00     0.090 C 
HETATM    8  N   UNL     1       1.761  36.122  59.972  1.00  0.00    -0.195 NA
HETATM    9  C   UNL     1       3.782  38.133  61.927  1.00  0.00     0.070 C 
HETATM   10  C   UNL     1       4.822  39.248  62.266  1.00  0.00     0.053 C 
HETATM   11  C   UNL     1       5.958  39.304  61.253  1.00  0.00    -0.052 C 
HETATM   12  C   UNL     1       7.239  39.424  61.663  1.00  0.00     0.005 C 
HETATM   13  C   UNL     1       5.581  39.352  59.779  1.00  0.00     0.171 C 
HETATM   14  C   UNL     1       5.204  40.724  59.411  1.00  0.00     0.074 C 
HETATM   15  N   UNL     1       4.937  41.833  59.215  1.00  0.00    -0.196 NA
HETATM   16  C   UNL     1       5.306  39.177  63.740  1.00  0.00     0.244 C 
HETATM   17  N   UNL     1       6.515  40.051  63.968  1.00  0.00    -0.071 N 
HETATM   18  H   UNL     1       6.826  39.888  64.935  1.00  0.00     0.279 HD
HETATM   19  C   UNL     1       6.233  41.532  63.901  1.00  0.00     0.270 C 
HETATM   20  C   UNL     1       7.660  39.618  63.089  1.00  0.00     0.262 C 
ENDROOT
BRANCH   9  21
HETATM   21  C   UNL     1       4.226  36.715  62.334  1.00  0.00    -0.047 A 
HETATM   22  C   UNL     1       3.544  35.940  63.285  1.00  0.00     0.047 A 
HETATM   23  C   UNL     1       4.118  34.763  63.794  1.00  0.00     0.102 A 
HETATM   24  C   UNL     1       5.335  34.281  63.300  1.00  0.00     0.102 A 
HETATM   25  C   UNL     1       5.967  34.991  62.279  1.00  0.00     0.040 A 
HETATM   26  C   UNL     1       5.432  36.204  61.821  1.00  0.00     0.010 A 
BRANCH  23  27
HETATM   27  O   UNL     1       3.492  34.047  64.788  1.00  0.00    -0.353 OA
HETATM   28  C   UNL     1       3.440  34.775  66.020  1.00  0.00     0.210 C 
ENDBRANCH  23  27
BRANCH  24  29
HETATM   29  O   UNL     1       5.826  33.138  63.879  1.00  0.00    -0.347 OA
BRANCH  29  30
HETATM   30  C   UNL     1       5.766  31.945  63.091  1.00  0.00     0.203 C 
BRANCH  30  31
HETATM   31  C   UNL     1       7.192  31.567  62.664  1.00  0.00     0.261 C 
BRANCH  31  32
HETATM   32  N   UNL     1       7.263  31.137  61.210  1.00  0.00    -0.065 N 
HETATM   33  H   UNL     1       6.727  30.257  61.148  1.00  0.00     0.280 HD
HETATM   34  C   UNL     1       6.635  32.129  60.239  1.00  0.00     0.261 C 
HETATM   35  C   UNL     1       6.795  31.622  58.801  1.00  0.00     0.195 C 
HETATM   36  O   UNL     1       8.173  31.409  58.484  1.00  0.00    -0.388 OA
HETATM   37  C   UNL     1       8.761  30.415  59.328  1.00  0.00     0.195 C 
HETATM   38  C   UNL     1       8.707  30.845  60.797  1.00  0.00     0.261 C 
ENDBRANCH  31  32
ENDBRANCH  30  31
ENDBRANCH  29  30
ENDBRANCH  24  29
ENDBRANCH   9  21
TORSDOF 6
ENDMDL
MODEL 7
REMARK VINA RESULT:      -7.0      5.342      8.499
REMARK  6 active torsions:
REMARK  status: ('A' for Active; 'I' for Inactive)
REMARK    1  A    between atoms: C_9  and  C_10 
REMARK    2  A    between atoms: C_12  and  O_13 
REMARK    3  A    between atoms: C_15  and  O_16 
REMARK    4  A    between atoms: O_16  and  C_17 
REMARK    5  A    between atoms: C_17  and  C_18 
REMARK    6  A    between atoms: C_18  and  N_19 
ROOT
HETATM    1  H   UNL     1       0.726  33.626  60.584  1.00  0.00     0.186 HD
HETATM    2  N   UNL     1       1.737  33.556  60.773  1.00  0.00    -0.304 NA
HETATM    3  C   UNL     1       2.486  34.268  59.989  1.00  0.00     0.062 C 
HETATM    4  C   UNL     1       4.015  34.299  60.189  1.00  0.00     0.173 C 
HETATM    5  C   UNL     1       4.394  35.672  60.719  1.00  0.00     0.012 C 
HETATM    6  N   UNL     1       4.710  36.811  61.159  1.00  0.00    -0.099 N 
HETATM    7  C   UNL     1       4.457  33.299  61.190  1.00  0.00     0.090 C 
HETATM    8  N   UNL     1       4.871  32.485  61.908  1.00  0.00    -0.195 NA
HETATM    9  C   UNL     1       4.749  34.037  58.821  1.00  0.00     0.070 C 
HETATM   10  C   UNL     1       4.198  34.950  57.679  1.00  0.00     0.053 C 
HETATM   11  C   UNL     1       2.682  34.875  57.562  1.00  0.00    -0.052 C 
HETATM   12  C   UNL     1       2.089  34.764  56.354  1.00  0.00     0.005 C 
HETATM   13  C   UNL     1       1.870  35.060  58.837  1.00  0.00     0.171 C 
HETATM   14  C   UNL     1       1.761  36.493  59.148  1.00  0.00     0.074 C 
HETATM   15  N   UNL     1       1.720  37.640  59.302  1.00  0.00    -0.196 NA
HETATM   16  C   UNL     1       4.937  34.723  56.332  1.00  0.00     0.244 C 
HETATM   17  N   UNL     1       4.207  35.377  55.184  1.00  0.00    -0.071 N 
HETATM   18  H   UNL     1       4.706  35.115  54.323  1.00  0.00     0.279 HD
HETATM   19  C   UNL     1       4.243  36.886  55.203  1.00  0.00     0.270 C 
HETATM   20  C   UNL     1       2.817  34.811  55.044  1.00  0.00     0.262 C 
ENDROOT
BRANCH   9  21
HETATM   21  C   UNL     1       4.844  32.546  58.443  1.00  0.00    -0.047 A 
HETATM   22  C   UNL     1       6.059  31.849  58.364  1.00  0.00     0.047 A 
HETATM   23  C   UNL     1       6.115  30.569  57.789  1.00  0.00     0.102 A 
HETATM   24  C   UNL     1       4.951  29.917  57.366  1.00  0.00     0.102 A 
HETATM   25  C   UNL     1       3.727  30.561  57.538  1.00  0.00     0.040 A 
HETATM   26  C   UNL     1       3.677  31.868  58.046  1.00  0.00     0.010 A 
BRANCH  23  27
HETATM   27  O   UNL     1       7.317  29.919  57.633  1.00  0.00    -0.353 OA
HETATM   28  C   UNL     1       8.355  30.517  58.417  1.00  0.00     0.210 C 
ENDBRANCH  23  27
BRANCH  24  29
HETATM   29  O   UNL     1       5.112  28.680  56.792  1.00  0.00    -0.347 OA
BRANCH  29  30
HETATM   30  C   UNL     1       4.510  28.487  55.509  1.00  0.00     0.203 C 
BRANCH  30  31
HETATM   31  C   UNL     1       5.598  28.612  54.432  1.00  0.00     0.261 C 
BRANCH  31  32
HETATM   32  N   UNL     1       5.809  27.315  53.673  1.00  0.00    -0.065 N 
HETATM   33  H   UNL     1       6.830  27.220  53.554  1.00  0.00     0.280 HD
HETATM   34  C   UNL     1       5.313  26.077  54.409  1.00  0.00     0.261 C 
HETATM   35  C   UNL     1       5.536  24.832  53.544  1.00  0.00     0.195 C 
HETATM   36  O   UNL     1       4.880  24.963  52.280  1.00  0.00    -0.388 OA
HETATM   37  C   UNL     1       5.394  26.069  51.532  1.00  0.00     0.195 C 
HETATM   38  C   UNL     1       5.173  27.386  52.283  1.00  0.00     0.261 C 
ENDBRANCH  31  32
ENDBRANCH  30  31
ENDBRANCH  29  30
ENDBRANCH  24  29
ENDBRANCH   9  21
TORSDOF 6
ENDMDL
MODEL 8
REMARK VINA RESULT:      -7.0      5.451      8.884
REMARK  6 active torsions:
REMARK  status: ('A' for Active; 'I' for Inactive)
REMARK    1  A    between atoms: C_9  and  C_10 
REMARK    2  A    between atoms: C_12  and  O_13 
REMARK    3  A    between atoms: C_15  and  O_16 
REMARK    4  A    between atoms: O_16  and  C_17 
REMARK    5  A    between atoms: C_17  and  C_18 
REMARK    6  A    between atoms: C_18  and  N_19 
ROOT
HETATM    1  H   UNL     1       5.922  36.509  56.863  1.00  0.00     0.186 HD
HETATM    2  N   UNL     1       5.350  35.716  56.537  1.00  0.00    -0.304 NA
HETATM    3  C   UNL     1       4.383  35.381  57.334  1.00  0.00     0.062 C 
HETATM    4  C   UNL     1       3.415  34.244  56.950  1.00  0.00     0.173 C 
HETATM    5  C   UNL     1       2.063  34.862  56.631  1.00  0.00     0.012 C 
HETATM    6  N   UNL     1       0.941  35.374  56.366  1.00  0.00    -0.099 N 
HETATM    7  C   UNL     1       3.870  33.523  55.737  1.00  0.00     0.090 C 
HETATM    8  N   UNL     1       4.215  32.873  54.839  1.00  0.00    -0.195 NA
HETATM    9  C   UNL     1       3.266  33.229  58.144  1.00  0.00     0.070 C 
HETATM   10  C   UNL     1       2.954  33.955  59.492  1.00  0.00     0.053 C 
HETATM   11  C   UNL     1       3.944  35.074  59.785  1.00  0.00    -0.052 C 
HETATM   12  C   UNL     1       4.472  35.219  61.019  1.00  0.00     0.005 C 
HETATM   13  C   UNL     1       4.207  36.086  58.678  1.00  0.00     0.171 C 
HETATM   14  C   UNL     1       3.120  37.075  58.646  1.00  0.00     0.074 C 
HETATM   15  N   UNL     1       2.228  37.810  58.707  1.00  0.00    -0.196 NA
HETATM   16  C   UNL     1       2.772  32.961  60.671  1.00  0.00     0.244 C 
HETATM   17  N   UNL     1       2.775  33.674  62.001  1.00  0.00    -0.071 N 
HETATM   18  H   UNL     1       2.736  32.949  62.731  1.00  0.00     0.279 HD
HETATM   19  C   UNL     1       1.559  34.533  62.249  1.00  0.00     0.270 C 
HETATM   20  C   UNL     1       4.077  34.402  62.213  1.00  0.00     0.262 C 
ENDROOT
BRANCH   9  21
HETATM   21  C   UNL     1       4.411  32.203  58.233  1.00  0.00    -0.047 A 
HETATM   22  C   UNL     1       5.713  32.537  58.639  1.00  0.00     0.047 A 
HETATM   23  C   UNL     1       6.770  31.627  58.476  1.00  0.00     0.102 A 
HETATM   24  C   UNL     1       6.541  30.334  57.993  1.00  0.00     0.102 A 
HETATM   25  C   UNL     1       5.233  29.960  57.686  1.00  0.00     0.040 A 
HETATM   26  C   UNL     1       4.187  30.889  57.780  1.00  0.00     0.010 A 
BRANCH  23  27
HETATM   27  O   UNL     1       8.060  31.982  58.794  1.00  0.00    -0.353 OA
HETATM   28  C   UNL     1       8.189  32.353  60.171  1.00  0.00     0.210 C 
ENDBRANCH  23  27
BRANCH  24  29
HETATM   29  O   UNL     1       7.642  29.528  57.844  1.00  0.00    -0.347 OA
BRANCH  29  30
HETATM   30  C   UNL     1       7.414  28.229  57.290  1.00  0.00     0.203 C 
BRANCH  30  31
HETATM   31  C   UNL     1       8.004  28.190  55.873  1.00  0.00     0.261 C 
BRANCH  31  32
HETATM   32  N   UNL     1       7.351  27.128  55.006  1.00  0.00    -0.065 N 
HETATM   33  H   UNL     1       7.887  27.114  54.123  1.00  0.00     0.280 HD
HETATM   34  C   UNL     1       7.402  25.726  55.599  1.00  0.00     0.261 C 
HETATM   35  C   UNL     1       6.684  24.741  54.669  1.00  0.00     0.195 C 
HETATM   36  O   UNL     1       5.331  25.144  54.443  1.00  0.00    -0.388 OA
HETATM   37  C   UNL     1       5.262  26.423  53.805  1.00  0.00     0.195 C 
HETATM   38  C   UNL     1       5.905  27.504  54.678  1.00  0.00     0.261 C 
ENDBRANCH  31  32
ENDBRANCH  30  31
ENDBRANCH  29  30
ENDBRANCH  24  29
ENDBRANCH   9  21
TORSDOF 6
ENDMDL
MODEL 9
REMARK VINA RESULT:      -6.9      3.425      5.313
REMARK  6 active torsions:
REMARK  status: ('A' for Active; 'I' for Inactive)
REMARK    1  A    between atoms: C_9  and  C_10 
REMARK    2  A    between atoms: C_12  and  O_13 
REMARK    3  A    between atoms: C_15  and  O_16 
REMARK    4  A    between atoms: O_16  and  C_17 
REMARK    5  A    between atoms: C_17  and  C_18 
REMARK    6  A    between atoms: C_18  and  N_19 
ROOT
HETATM    1  H   UNL     1       3.440  24.392  53.998  1.00  0.00     0.186 HD
HETATM    2  N   UNL     1       3.995  24.826  53.246  1.00  0.00    -0.304 NA
HETATM    3  C   UNL     1       5.110  25.362  53.636  1.00  0.00     0.062 C 
HETATM    4  C   UNL     1       6.067  26.004  52.611  1.00  0.00     0.173 C 
HETATM    5  C   UNL     1       7.295  25.116  52.491  1.00  0.00     0.012 C 
HETATM    6  N   UNL     1       8.314  24.380  52.391  1.00  0.00    -0.099 N 
HETATM    7  C   UNL     1       5.450  26.092  51.266  1.00  0.00     0.090 C 
HETATM    8  N   UNL     1       4.993  26.257  50.211  1.00  0.00    -0.195 NA
HETATM    9  C   UNL     1       6.496  27.441  53.090  1.00  0.00     0.070 C 
HETATM   10  C   UNL     1       6.996  27.437  54.571  1.00  0.00     0.053 C 
HETATM   11  C   UNL     1       6.003  26.769  55.512  1.00  0.00    -0.052 C 
HETATM   12  C   UNL     1       5.697  27.332  56.701  1.00  0.00     0.005 C 
HETATM   13  C   UNL     1       5.478  25.395  55.119  1.00  0.00     0.171 C 
HETATM   14  C   UNL     1       6.473  24.370  55.465  1.00  0.00     0.074 C 
HETATM   15  N   UNL     1       7.311  23.637  55.784  1.00  0.00    -0.196 NA
HETATM   16  C   UNL     1       7.453  28.843  55.045  1.00  0.00     0.244 C 
HETATM   17  N   UNL     1       7.642  28.888  56.541  1.00  0.00    -0.071 N 
HETATM   18  H   UNL     1       7.860  29.864  56.787  1.00  0.00     0.279 HD
HETATM   19  C   UNL     1       8.823  28.094  57.043  1.00  0.00     0.270 C 
HETATM   20  C   UNL     1       6.353  28.562  57.252  1.00  0.00     0.262 C 
ENDROOT
BRANCH   9  21
HETATM   21  C   UNL     1       5.456  28.534  52.781  1.00  0.00    -0.047 A 
HETATM   22  C   UNL     1       5.599  29.457  51.734  1.00  0.00     0.047 A 
HETATM   23  C   UNL     1       4.752  30.574  51.642  1.00  0.00     0.102 A 
HETATM   24  C   UNL     1       3.686  30.746  52.533  1.00  0.00     0.102 A 
HETATM   25  C   UNL     1       3.474  29.777  53.512  1.00  0.00     0.040 A 
HETATM   26  C   UNL     1       4.362  28.700  53.651  1.00  0.00     0.010 A 
BRANCH  23  27
HETATM   27  O   UNL     1       4.943  31.525  50.667  1.00  0.00    -0.353 OA
HETATM   28  C   UNL     1       5.611  30.988  49.520  1.00  0.00     0.210 C 
ENDBRANCH  23  27
BRANCH  24  29
HETATM   29  O   UNL     1       2.932  31.883  52.378  1.00  0.00    -0.347 OA
BRANCH  29  30
HETATM   30  C   UNL     1       2.431  32.486  53.575  1.00  0.00     0.203 C 
BRANCH  30  31
HETATM   31  C   UNL     1       3.375  33.628  53.980  1.00  0.00     0.261 C 
BRANCH  31  32
HETATM   32  N   UNL     1       2.693  34.984  53.929  1.00  0.00    -0.065 N 
HETATM   33  H   UNL     1       1.683  34.790  53.841  1.00  0.00     0.280 HD
HETATM   34  C   UNL     1       2.894  35.826  55.182  1.00  0.00     0.261 C 
HETATM   35  C   UNL     1       2.203  37.184  55.013  1.00  0.00     0.195 C 
HETATM   36  O   UNL     1       2.698  37.870  53.859  1.00  0.00    -0.388 OA
HETATM   37  C   UNL     1       2.441  37.136  52.659  1.00  0.00     0.195 C 
HETATM   38  C   UNL     1       3.136  35.771  52.694  1.00  0.00     0.261 C 
ENDBRANCH  31  32
ENDBRANCH  30  31
ENDBRANCH  29  30
ENDBRANCH  24  29
ENDBRANCH   9  21
TORSDOF 6
ENDMDL
MODEL 10
REMARK VINA RESULT:      -6.7      3.990      7.728
REMARK  6 active torsions:
REMARK  status: ('A' for Active; 'I' for Inactive)
REMARK    1  A    between atoms: C_9  and  C_10 
REMARK    2  A    between atoms: C_12  and  O_13 
REMARK    3  A    between atoms: C_15  and  O_16 
REMARK    4  A    between atoms: O_16  and  C_17 
REMARK    5  A    between atoms: C_17  and  C_18 
REMARK    6  A    between atoms: C_18  and  N_19 
ROOT
HETATM    1  H   UNL     1       6.074  34.155  53.637  1.00  0.00     0.186 HD
HETATM    2  N   UNL     1       5.333  33.467  53.436  1.00  0.00    -0.304 NA
HETATM    3  C   UNL     1       4.597  33.148  54.455  1.00  0.00     0.062 C 
HETATM    4  C   UNL     1       3.419  32.167  54.290  1.00  0.00     0.173 C 
HETATM    5  C   UNL     1       2.126  32.954  54.433  1.00  0.00     0.012 C 
HETATM    6  N   UNL     1       1.053  33.606  54.552  1.00  0.00    -0.099 N 
HETATM    7  C   UNL     1       3.411  31.542  52.945  1.00  0.00     0.090 C 
HETATM    8  N   UNL     1       3.397  30.965  51.938  1.00  0.00    -0.195 NA
HETATM    9  C   UNL     1       3.483  31.046  55.393  1.00  0.00     0.070 C 
HETATM   10  C   UNL     1       3.667  31.646  56.824  1.00  0.00     0.053 C 
HETATM   11  C   UNL     1       4.838  32.617  56.896  1.00  0.00    -0.052 C 
HETATM   12  C   UNL     1       5.710  32.568  57.926  1.00  0.00     0.005 C 
HETATM   13  C   UNL     1       4.906  33.713  55.841  1.00  0.00     0.171 C 
HETATM   14  C   UNL     1       3.996  34.806  56.208  1.00  0.00     0.074 C 
HETATM   15  N   UNL     1       3.262  35.619  56.586  1.00  0.00    -0.196 NA
HETATM   16  C   UNL     1       3.699  30.551  57.925  1.00  0.00     0.244 C 
HETATM   17  N   UNL     1       4.174  31.107  59.245  1.00  0.00    -0.071 N 
HETATM   18  H   UNL     1       4.250  30.314  59.896  1.00  0.00     0.279 HD
HETATM   19  C   UNL     1       3.204  32.055  59.906  1.00  0.00     0.270 C 
HETATM   20  C   UNL     1       5.567  31.668  59.116  1.00  0.00     0.262 C 
ENDROOT
BRANCH   9  21
HETATM   21  C   UNL     1       4.461  29.903  55.060  1.00  0.00    -0.047 A 
HETATM   22  C   UNL     1       4.118  28.809  54.252  1.00  0.00     0.047 A 
HETATM   23  C   UNL     1       4.956  27.685  54.175  1.00  0.00     0.102 A 
HETATM   24  C   UNL     1       6.197  27.663  54.823  1.00  0.00     0.102 A 
HETATM   25  C   UNL     1       6.591  28.790  55.543  1.00  0.00     0.040 A 
HETATM   26  C   UNL     1       5.724  29.885  55.681  1.00  0.00     0.010 A 
BRANCH  23  27
HETATM   27  O   UNL     1       4.583  26.576  53.451  1.00  0.00    -0.353 OA
HETATM   28  C   UNL     1       4.889  26.718  52.059  1.00  0.00     0.210 C 
ENDBRANCH  23  27
BRANCH  24  29
HETATM   29  O   UNL     1       6.931  26.509  54.709  1.00  0.00    -0.347 OA
BRANCH  29  30
HETATM   30  C   UNL     1       6.697  25.501  55.698  1.00  0.00     0.203 C 
BRANCH  30  31
HETATM   31  C   UNL     1       8.052  25.022  56.240  1.00  0.00     0.261 C 
BRANCH  31  32
HETATM   32  N   UNL     1       8.370  23.600  55.816  1.00  0.00    -0.065 N 
HETATM   33  H   UNL     1       9.327  23.627  55.428  1.00  0.00     0.280 HD
HETATM   34  C   UNL     1       8.366  22.596  56.962  1.00  0.00     0.261 C 
HETATM   35  C   UNL     1       8.659  21.191  56.424  1.00  0.00     0.195 C 
HETATM   36  O   UNL     1       7.708  20.817  55.423  1.00  0.00    -0.388 OA
HETATM   37  C   UNL     1       7.755  21.697  54.297  1.00  0.00     0.195 C 
HETATM   38  C   UNL     1       7.421  23.133  54.710  1.00  0.00     0.261 C 
ENDBRANCH  31  32
ENDBRANCH  30  31
ENDBRANCH  29  30
ENDBRANCH  24  29
ENDBRANCH   9  21
TORSDOF 6
ENDMDL
