MODEL 1
REMARK VINA RESULT:      -9.2      0.000      0.000
REMARK  6 active torsions:
REMARK  status: ('A' for Active; 'I' for Inactive)
REMARK    1  A    between atoms: C_2  and  S_3 
REMARK    2  A    between atoms: C_2  and  C_18 
REMARK    3  A    between atoms: S_3  and  C_4 
REMARK    4  A    between atoms: C_4  and  C_5 
REMARK       I    between atoms: C_5  and  N_6 
REMARK    5  A    between atoms: N_6  and  C_7 
REMARK    6  A    between atoms: C_10  and  C_11 
REMARK       I    between atoms: C_11  and  N_12 
ROOT
HETATM    1  C   UNL     1       9.551  31.040  58.484  1.00  0.00     0.231 C 
HETATM    2  N   UNL     1       8.602  30.598  59.391  1.00  0.00    -0.327 N 
HETATM    3  O   UNL     1      10.258  32.039  58.603  1.00  0.00    -0.272 OA
HETATM    4  H   UNL     1       8.240  29.662  59.251  1.00  0.00     0.169 HD
ENDROOT
BRANCH   1   5
HETATM    5  C   UNL     1       9.633  30.160  57.242  1.00  0.00     0.177 C 
BRANCH   5   6
HETATM    6  S   UNL     1       8.519  28.719  57.331  1.00  0.00    -0.147 SA
BRANCH   6   7
HETATM    7  C   UNL     1       7.627  28.820  55.727  1.00  0.00     0.113 C 
HETATM    8  C   UNL     1       6.235  29.426  55.891  1.00  0.00     0.029 C 
BRANCH   7   9
HETATM    9  C   UNL     1       7.602  27.511  55.004  1.00  0.00     0.118 A 
HETATM   10  N   UNL     1       7.742  27.308  53.707  1.00  0.00    -0.232 NA
HETATM   11  C   UNL     1       7.681  25.943  53.535  1.00  0.00     0.085 A 
HETATM   12  C   UNL     1       7.481  25.299  54.750  1.00  0.00     0.062 A 
HETATM   13  C   UNL     1       7.777  25.178  52.365  1.00  0.00     0.034 A 
HETATM   14  N   UNL     1       7.431  26.315  55.667  1.00  0.00    -0.342 N 
HETATM   15  C   UNL     1       7.359  23.915  54.876  1.00  0.00     0.032 A 
HETATM   16  H   UNL     1       7.250  26.215  56.656  1.00  0.00     0.167 HD
HETATM   17  C   UNL     1       7.452  23.168  53.696  1.00  0.00     0.002 A 
HETATM   18  C   UNL     1       7.656  23.785  52.459  1.00  0.00     0.002 A 
ENDBRANCH   7   9
ENDBRANCH   6   7
ENDBRANCH   5   6
ENDBRANCH   1   5
BRANCH   2  19
HETATM   19  C   UNL     1       8.212  31.206  60.600  1.00  0.00     0.034 A 
HETATM   20  C   UNL     1       8.796  30.937  61.840  1.00  0.00     0.030 A 
HETATM   21  C   UNL     1       8.339  31.581  62.998  1.00  0.00     0.019 A 
HETATM   22  C   UNL     1       7.301  32.517  62.923  1.00  0.00     0.032 A 
HETATM   23  C   UNL     1       6.709  32.782  61.685  1.00  0.00     0.019 A 
HETATM   24  C   UNL     1       7.165  32.134  60.534  1.00  0.00     0.030 A 
BRANCH  22  25
HETATM   25  C   UNL     1       6.777  33.230  64.121  1.00  0.00     0.251 C 
HETATM   26  N   UNL     1       5.428  33.096  64.377  1.00  0.00    -0.361 N 
HETATM   27  C   UNL     1       4.802  33.747  65.500  1.00  0.00     0.149 C 
HETATM   28  H   UNL     1       4.855  32.509  63.789  1.00  0.00     0.162 HD
HETATM   29  O   UNL     1       7.541  33.868  64.835  1.00  0.00    -0.268 OA
ENDBRANCH  22  25
ENDBRANCH   2  19
TORSDOF 6
ENDMDL
MODEL 2
REMARK VINA RESULT:      -9.1      0.713      1.630
REMARK  6 active torsions:
REMARK  status: ('A' for Active; 'I' for Inactive)
REMARK    1  A    between atoms: C_2  and  S_3 
REMARK    2  A    between atoms: C_2  and  C_18 
REMARK    3  A    between atoms: S_3  and  C_4 
REMARK    4  A    between atoms: C_4  and  C_5 
REMARK       I    between atoms: C_5  and  N_6 
REMARK    5  A    between atoms: N_6  and  C_7 
REMARK    6  A    between atoms: C_10  and  C_11 
REMARK       I    between atoms: C_11  and  N_12 
ROOT
HETATM    1  C   UNL     1       8.875  31.138  59.072  1.00  0.00     0.231 C 
HETATM    2  N   UNL     1       8.056  30.658  60.080  1.00  0.00    -0.327 N 
HETATM    3  O   UNL     1       9.342  32.272  58.995  1.00  0.00    -0.272 OA
HETATM    4  H   UNL     1       7.910  29.656  60.110  1.00  0.00     0.169 HD
ENDROOT
BRANCH   1   5
HETATM    5  C   UNL     1       9.139  30.101  57.985  1.00  0.00     0.177 C 
BRANCH   5   6
HETATM    6  S   UNL     1       7.801  28.871  57.852  1.00  0.00    -0.147 SA
BRANCH   6   7
HETATM    7  C   UNL     1       7.373  28.956  56.066  1.00  0.00     0.113 C 
HETATM    8  C   UNL     1       6.038  29.660  55.837  1.00  0.00     0.029 C 
BRANCH   7   9
HETATM    9  C   UNL     1       7.440  27.619  55.398  1.00  0.00     0.118 A 
HETATM   10  N   UNL     1       7.318  26.433  55.965  1.00  0.00    -0.232 NA
HETATM   11  C   UNL     1       7.416  25.519  54.941  1.00  0.00     0.085 A 
HETATM   12  C   UNL     1       7.621  26.159  53.724  1.00  0.00     0.062 A 
HETATM   13  C   UNL     1       7.352  24.119  54.973  1.00  0.00     0.034 A 
HETATM   14  N   UNL     1       7.636  27.491  54.041  1.00  0.00    -0.342 N 
HETATM   15  C   UNL     1       7.778  25.480  52.515  1.00  0.00     0.032 A 
HETATM   16  H   UNL     1       7.809  28.252  53.400  1.00  0.00     0.167 HD
HETATM   17  C   UNL     1       7.716  24.083  52.568  1.00  0.00     0.002 A 
HETATM   18  C   UNL     1       7.508  23.410  53.775  1.00  0.00     0.002 A 
ENDBRANCH   7   9
ENDBRANCH   6   7
ENDBRANCH   5   6
ENDBRANCH   1   5
BRANCH   2  19
HETATM   19  C   UNL     1       7.550  31.360  61.192  1.00  0.00     0.034 A 
HETATM   20  C   UNL     1       6.287  31.954  61.239  1.00  0.00     0.030 A 
HETATM   21  C   UNL     1       5.866  32.644  62.384  1.00  0.00     0.019 A 
HETATM   22  C   UNL     1       6.702  32.732  63.503  1.00  0.00     0.032 A 
HETATM   23  C   UNL     1       7.970  32.147  63.455  1.00  0.00     0.019 A 
HETATM   24  C   UNL     1       8.387  31.464  62.310  1.00  0.00     0.030 A 
BRANCH  22  25
HETATM   25  C   UNL     1       6.306  33.454  64.744  1.00  0.00     0.251 C 
HETATM   26  N   UNL     1       4.971  33.404  65.087  1.00  0.00    -0.361 N 
HETATM   27  C   UNL     1       4.465  34.072  66.260  1.00  0.00     0.149 C 
HETATM   28  H   UNL     1       4.323  32.867  64.530  1.00  0.00     0.162 HD
HETATM   29  O   UNL     1       7.157  34.026  65.416  1.00  0.00    -0.268 OA
ENDBRANCH  22  25
ENDBRANCH   2  19
TORSDOF 6
ENDMDL
MODEL 3
REMARK VINA RESULT:      -9.0      1.970      2.591
REMARK  6 active torsions:
REMARK  status: ('A' for Active; 'I' for Inactive)
REMARK    1  A    between atoms: C_2  and  S_3 
REMARK    2  A    between atoms: C_2  and  C_18 
REMARK    3  A    between atoms: S_3  and  C_4 
REMARK    4  A    between atoms: C_4  and  C_5 
REMARK       I    between atoms: C_5  and  N_6 
REMARK    5  A    between atoms: N_6  and  C_7 
REMARK    6  A    between atoms: C_10  and  C_11 
REMARK       I    between atoms: C_11  and  N_12 
ROOT
HETATM    1  C   UNL     1       7.740  29.211  57.932  1.00  0.00     0.231 C 
HETATM    2  N   UNL     1       8.517  29.913  58.838  1.00  0.00    -0.327 N 
HETATM    3  O   UNL     1       6.518  29.285  57.813  1.00  0.00    -0.272 OA
HETATM    4  H   UNL     1       9.519  29.895  58.689  1.00  0.00     0.169 HD
ENDROOT
BRANCH   1   5
HETATM    5  C   UNL     1       8.560  28.262  57.065  1.00  0.00     0.177 C 
BRANCH   5   6
HETATM    6  S   UNL     1       8.093  26.517  57.302  1.00  0.00    -0.147 SA
BRANCH   6   7
HETATM    7  C   UNL     1       7.090  26.177  55.800  1.00  0.00     0.113 C 
HETATM    8  C   UNL     1       5.610  26.479  56.027  1.00  0.00     0.029 C 
BRANCH   7   9
HETATM    9  C   UNL     1       7.319  24.801  55.259  1.00  0.00     0.118 A 
HETATM   10  N   UNL     1       7.436  24.446  53.993  1.00  0.00    -0.232 NA
HETATM   11  C   UNL     1       7.670  23.090  54.007  1.00  0.00     0.085 A 
HETATM   12  C   UNL     1       7.677  22.601  55.308  1.00  0.00     0.062 A 
HETATM   13  C   UNL     1       7.875  22.200  52.943  1.00  0.00     0.034 A 
HETATM   14  N   UNL     1       7.449  23.706  56.085  1.00  0.00    -0.342 N 
HETATM   15  C   UNL     1       7.870  21.256  55.623  1.00  0.00     0.032 A 
HETATM   16  H   UNL     1       7.344  23.715  57.089  1.00  0.00     0.167 HD
HETATM   17  C   UNL     1       8.068  20.382  54.548  1.00  0.00     0.002 A 
HETATM   18  C   UNL     1       8.070  20.843  53.229  1.00  0.00     0.002 A 
ENDBRANCH   7   9
ENDBRANCH   6   7
ENDBRANCH   5   6
ENDBRANCH   1   5
BRANCH   2  19
HETATM   19  C   UNL     1       8.085  30.811  59.835  1.00  0.00     0.034 A 
HETATM   20  C   UNL     1       7.152  31.828  59.625  1.00  0.00     0.030 A 
HETATM   21  C   UNL     1       6.785  32.686  60.671  1.00  0.00     0.019 A 
HETATM   22  C   UNL     1       7.337  32.521  61.946  1.00  0.00     0.032 A 
HETATM   23  C   UNL     1       8.277  31.509  62.157  1.00  0.00     0.019 A 
HETATM   24  C   UNL     1       8.644  30.659  61.110  1.00  0.00     0.030 A 
BRANCH  22  25
HETATM   25  C   UNL     1       6.984  33.403  63.093  1.00  0.00     0.251 C 
HETATM   26  N   UNL     1       7.430  33.007  64.336  1.00  0.00    -0.361 N 
HETATM   27  C   UNL     1       7.142  33.772  65.524  1.00  0.00     0.149 C 
HETATM   28  H   UNL     1       7.998  32.178  64.432  1.00  0.00     0.162 HD
HETATM   29  O   UNL     1       6.352  34.435  62.898  1.00  0.00    -0.268 OA
ENDBRANCH  22  25
ENDBRANCH   2  19
TORSDOF 6
ENDMDL
MODEL 4
REMARK VINA RESULT:      -9.0      6.191      9.842
REMARK  6 active torsions:
REMARK  status: ('A' for Active; 'I' for Inactive)
REMARK    1  A    between atoms: C_2  and  S_3 
REMARK    2  A    between atoms: C_2  and  C_18 
REMARK    3  A    between atoms: S_3  and  C_4 
REMARK    4  A    between atoms: C_4  and  C_5 
REMARK       I    between atoms: C_5  and  N_6 
REMARK    5  A    between atoms: N_6  and  C_7 
REMARK    6  A    between atoms: C_10  and  C_11 
REMARK       I    between atoms: C_11  and  N_12 
ROOT
HETATM    1  C   UNL     1       5.191  27.604  55.305  1.00  0.00     0.231 C 
HETATM    2  N   UNL     1       5.861  26.933  54.295  1.00  0.00    -0.327 N 
HETATM    3  O   UNL     1       4.156  28.256  55.180  1.00  0.00    -0.272 OA
HETATM    4  H   UNL     1       6.584  26.283  54.582  1.00  0.00     0.169 HD
ENDROOT
BRANCH   1   5
HETATM    5  C   UNL     1       5.895  27.492  56.653  1.00  0.00     0.177 C 
BRANCH   5   6
HETATM    6  S   UNL     1       5.731  25.834  57.392  1.00  0.00    -0.147 SA
BRANCH   6   7
HETATM    7  C   UNL     1       7.454  25.199  57.302  1.00  0.00     0.113 C 
HETATM    8  C   UNL     1       8.464  26.329  57.114  1.00  0.00     0.029 C 
BRANCH   7   9
HETATM    9  C   UNL     1       7.610  24.113  56.284  1.00  0.00     0.118 A 
HETATM   10  N   UNL     1       7.390  24.195  54.985  1.00  0.00    -0.232 NA
HETATM   11  C   UNL     1       7.704  22.955  54.476  1.00  0.00     0.085 A 
HETATM   12  C   UNL     1       8.106  22.091  55.488  1.00  0.00     0.062 A 
HETATM   13  C   UNL     1       7.659  22.486  53.156  1.00  0.00     0.034 A 
HETATM   14  N   UNL     1       8.034  22.848  56.626  1.00  0.00    -0.342 N 
HETATM   15  C   UNL     1       8.464  20.761  55.266  1.00  0.00     0.032 A 
HETATM   16  H   UNL     1       8.214  22.526  57.567  1.00  0.00     0.167 HD
HETATM   17  C   UNL     1       8.408  20.309  53.943  1.00  0.00     0.002 A 
HETATM   18  C   UNL     1       8.012  21.153  52.903  1.00  0.00     0.002 A 
ENDBRANCH   7   9
ENDBRANCH   6   7
ENDBRANCH   5   6
ENDBRANCH   1   5
BRANCH   2  19
HETATM   19  C   UNL     1       5.538  26.888  52.924  1.00  0.00     0.034 A 
HETATM   20  C   UNL     1       5.589  27.990  52.069  1.00  0.00     0.030 A 
HETATM   21  C   UNL     1       5.241  27.859  50.717  1.00  0.00     0.019 A 
HETATM   22  C   UNL     1       4.853  26.616  50.204  1.00  0.00     0.032 A 
HETATM   23  C   UNL     1       4.792  25.514  51.061  1.00  0.00     0.019 A 
HETATM   24  C   UNL     1       5.136  25.650  52.408  1.00  0.00     0.030 A 
BRANCH  22  25
HETATM   25  C   UNL     1       4.472  26.421  48.778  1.00  0.00     0.251 C 
HETATM   26  N   UNL     1       3.329  25.687  48.539  1.00  0.00    -0.361 N 
HETATM   27  C   UNL     1       2.865  25.422  47.201  1.00  0.00     0.149 C 
HETATM   28  H   UNL     1       2.776  25.344  49.310  1.00  0.00     0.162 HD
HETATM   29  O   UNL     1       5.149  26.927  47.890  1.00  0.00    -0.268 OA
ENDBRANCH  22  25
ENDBRANCH   2  19
TORSDOF 6
ENDMDL
MODEL 5
REMARK VINA RESULT:      -8.8      2.956      5.292
REMARK  6 active torsions:
REMARK  status: ('A' for Active; 'I' for Inactive)
REMARK    1  A    between atoms: C_2  and  S_3 
REMARK    2  A    between atoms: C_2  and  C_18 
REMARK    3  A    between atoms: S_3  and  C_4 
REMARK    4  A    between atoms: C_4  and  C_5 
REMARK       I    between atoms: C_5  and  N_6 
REMARK    5  A    between atoms: N_6  and  C_7 
REMARK    6  A    between atoms: C_10  and  C_11 
REMARK       I    between atoms: C_11  and  N_12 
ROOT
HETATM    1  C   UNL     1       5.263  27.434  55.025  1.00  0.00     0.231 C 
HETATM    2  N   UNL     1       5.884  28.670  55.069  1.00  0.00    -0.327 N 
HETATM    3  O   UNL     1       5.184  26.628  55.950  1.00  0.00    -0.272 OA
HETATM    4  H   UNL     1       5.701  29.300  54.297  1.00  0.00     0.169 HD
ENDROOT
BRANCH   1   5
HETATM    5  C   UNL     1       4.681  27.117  53.652  1.00  0.00     0.177 C 
BRANCH   5   6
HETATM    6  S   UNL     1       4.869  25.362  53.199  1.00  0.00    -0.147 SA
BRANCH   6   7
HETATM    7  C   UNL     1       6.695  25.182  53.096  1.00  0.00     0.113 C 
HETATM    8  C   UNL     1       7.204  25.389  51.670  1.00  0.00     0.029 C 
BRANCH   7   9
HETATM    9  C   UNL     1       7.178  23.901  53.698  1.00  0.00     0.118 A 
HETATM   10  N   UNL     1       7.178  23.565  54.975  1.00  0.00    -0.232 NA
HETATM   11  C   UNL     1       7.684  22.286  55.023  1.00  0.00     0.085 A 
HETATM   12  C   UNL     1       8.019  21.837  53.751  1.00  0.00     0.062 A 
HETATM   13  C   UNL     1       7.900  21.444  56.123  1.00  0.00     0.034 A 
HETATM   14  N   UNL     1       7.692  22.881  52.928  1.00  0.00    -0.342 N 
HETATM   15  C   UNL     1       8.575  20.582  53.500  1.00  0.00     0.032 A 
HETATM   16  H   UNL     1       7.844  22.921  51.930  1.00  0.00     0.167 HD
HETATM   17  C   UNL     1       8.788  19.757  54.611  1.00  0.00     0.002 A 
HETATM   18  C   UNL     1       8.458  20.178  55.902  1.00  0.00     0.002 A 
ENDBRANCH   7   9
ENDBRANCH   6   7
ENDBRANCH   5   6
ENDBRANCH   1   5
BRANCH   2  19
HETATM   19  C   UNL     1       6.588  29.247  56.146  1.00  0.00     0.034 A 
HETATM   20  C   UNL     1       7.864  28.853  56.551  1.00  0.00     0.030 A 
HETATM   21  C   UNL     1       8.489  29.474  57.642  1.00  0.00     0.019 A 
HETATM   22  C   UNL     1       7.846  30.510  58.328  1.00  0.00     0.032 A 
HETATM   23  C   UNL     1       6.565  30.900  57.930  1.00  0.00     0.019 A 
HETATM   24  C   UNL     1       5.944  30.275  56.845  1.00  0.00     0.030 A 
BRANCH  22  25
HETATM   25  C   UNL     1       8.463  31.204  59.493  1.00  0.00     0.251 C 
HETATM   26  N   UNL     1       8.602  30.464  60.649  1.00  0.00    -0.361 N 
HETATM   27  C   UNL     1       9.175  31.028  61.845  1.00  0.00     0.149 C 
HETATM   28  H   UNL     1       8.328  29.492  60.666  1.00  0.00     0.162 HD
HETATM   29  O   UNL     1       8.842  32.364  59.383  1.00  0.00    -0.268 OA
ENDBRANCH  22  25
ENDBRANCH   2  19
TORSDOF 6
ENDMDL
MODEL 6
REMARK VINA RESULT:      -8.6      3.254     10.559
REMARK  6 active torsions:
REMARK  status: ('A' for Active; 'I' for Inactive)
REMARK    1  A    between atoms: C_2  and  S_3 
REMARK    2  A    between atoms: C_2  and  C_18 
REMARK    3  A    between atoms: S_3  and  C_4 
REMARK    4  A    between atoms: C_4  and  C_5 
REMARK       I    between atoms: C_5  and  N_6 
REMARK    5  A    between atoms: N_6  and  C_7 
REMARK    6  A    between atoms: C_10  and  C_11 
REMARK       I    between atoms: C_11  and  N_12 
ROOT
HETATM    1  C   UNL     1       6.576  28.055  57.332  1.00  0.00     0.231 C 
HETATM    2  N   UNL     1       7.700  27.281  57.098  1.00  0.00    -0.327 N 
HETATM    3  O   UNL     1       5.408  27.686  57.237  1.00  0.00    -0.272 OA
HETATM    4  H   UNL     1       8.588  27.662  57.403  1.00  0.00     0.169 HD
ENDROOT
BRANCH   1   5
HETATM    5  C   UNL     1       6.921  29.493  57.706  1.00  0.00     0.177 C 
BRANCH   5   6
HETATM    6  S   UNL     1       8.367  29.601  58.810  1.00  0.00    -0.147 SA
BRANCH   6   7
HETATM    7  C   UNL     1       8.495  31.411  59.104  1.00  0.00     0.113 C 
HETATM    8  C   UNL     1       9.909  31.928  58.846  1.00  0.00     0.029 C 
BRANCH   7   9
HETATM    9  C   UNL     1       7.974  31.810  60.449  1.00  0.00     0.118 A 
HETATM   10  N   UNL     1       8.676  32.189  61.500  1.00  0.00    -0.232 NA
HETATM   11  C   UNL     1       7.752  32.483  62.478  1.00  0.00     0.085 A 
HETATM   12  C   UNL     1       6.459  32.261  62.020  1.00  0.00     0.062 A 
HETATM   13  C   UNL     1       7.943  32.936  63.790  1.00  0.00     0.034 A 
HETATM   14  N   UNL     1       6.626  31.831  60.731  1.00  0.00    -0.342 N 
HETATM   15  C   UNL     1       5.322  32.456  62.805  1.00  0.00     0.032 A 
HETATM   16  H   UNL     1       5.892  31.532  60.105  1.00  0.00     0.167 HD
HETATM   17  C   UNL     1       5.532  32.903  64.115  1.00  0.00     0.002 A 
HETATM   18  C   UNL     1       6.820  33.139  64.603  1.00  0.00     0.002 A 
ENDBRANCH   7   9
ENDBRANCH   6   7
ENDBRANCH   5   6
ENDBRANCH   1   5
BRANCH   2  19
HETATM   19  C   UNL     1       7.751  25.941  56.663  1.00  0.00     0.034 A 
HETATM   20  C   UNL     1       8.315  24.898  57.399  1.00  0.00     0.030 A 
HETATM   21  C   UNL     1       8.333  23.593  56.887  1.00  0.00     0.019 A 
HETATM   22  C   UNL     1       7.771  23.318  55.635  1.00  0.00     0.032 A 
HETATM   23  C   UNL     1       7.214  24.362  54.893  1.00  0.00     0.019 A 
HETATM   24  C   UNL     1       7.202  25.662  55.406  1.00  0.00     0.030 A 
BRANCH  22  25
HETATM   25  C   UNL     1       7.764  21.951  55.043  1.00  0.00     0.251 C 
HETATM   26  N   UNL     1       8.127  21.852  53.716  1.00  0.00    -0.361 N 
HETATM   27  C   UNL     1       8.148  20.585  53.029  1.00  0.00     0.149 C 
HETATM   28  H   UNL     1       8.416  22.674  53.205  1.00  0.00     0.162 HD
HETATM   29  O   UNL     1       7.472  20.985  55.739  1.00  0.00    -0.268 OA
ENDBRANCH  22  25
ENDBRANCH   2  19
TORSDOF 6
ENDMDL
MODEL 7
REMARK VINA RESULT:      -8.6      3.348     10.585
REMARK  6 active torsions:
REMARK  status: ('A' for Active; 'I' for Inactive)
REMARK    1  A    between atoms: C_2  and  S_3 
REMARK    2  A    between atoms: C_2  and  C_18 
REMARK    3  A    between atoms: S_3  and  C_4 
REMARK    4  A    between atoms: C_4  and  C_5 
REMARK       I    between atoms: C_5  and  N_6 
REMARK    5  A    between atoms: N_6  and  C_7 
REMARK    6  A    between atoms: C_10  and  C_11 
REMARK       I    between atoms: C_11  and  N_12 
ROOT
HETATM    1  C   UNL     1       5.851  28.118  55.610  1.00  0.00     0.231 C 
HETATM    2  N   UNL     1       7.003  27.598  55.043  1.00  0.00    -0.327 N 
HETATM    3  O   UNL     1       4.853  27.481  55.939  1.00  0.00    -0.272 OA
HETATM    4  H   UNL     1       7.809  28.210  55.006  1.00  0.00     0.169 HD
ENDROOT
BRANCH   1   5
HETATM    5  C   UNL     1       5.909  29.633  55.772  1.00  0.00     0.177 C 
BRANCH   5   6
HETATM    6  S   UNL     1       5.580  30.167  57.483  1.00  0.00    -0.147 SA
BRANCH   6   7
HETATM    7  C   UNL     1       7.275  30.474  58.125  1.00  0.00     0.113 C 
HETATM    8  C   UNL     1       8.105  29.192  58.167  1.00  0.00     0.029 C 
BRANCH   7   9
HETATM    9  C   UNL     1       7.268  31.198  59.434  1.00  0.00     0.118 A 
HETATM   10  N   UNL     1       6.644  32.324  59.724  1.00  0.00    -0.232 NA
HETATM   11  C   UNL     1       6.910  32.565  61.053  1.00  0.00     0.085 A 
HETATM   12  C   UNL     1       7.729  31.575  61.582  1.00  0.00     0.062 A 
HETATM   13  C   UNL     1       6.495  33.620  61.878  1.00  0.00     0.034 A 
HETATM   14  N   UNL     1       7.946  30.720  60.535  1.00  0.00    -0.342 N 
HETATM   15  C   UNL     1       8.179  31.573  62.903  1.00  0.00     0.032 A 
HETATM   16  H   UNL     1       8.540  29.903  60.547  1.00  0.00     0.167 HD
HETATM   17  C   UNL     1       7.758  32.637  63.710  1.00  0.00     0.002 A 
HETATM   18  C   UNL     1       6.931  33.645  63.209  1.00  0.00     0.002 A 
ENDBRANCH   7   9
ENDBRANCH   6   7
ENDBRANCH   5   6
ENDBRANCH   1   5
BRANCH   2  19
HETATM   19  C   UNL     1       7.261  26.260  54.683  1.00  0.00     0.034 A 
HETATM   20  C   UNL     1       7.571  25.841  53.388  1.00  0.00     0.030 A 
HETATM   21  C   UNL     1       7.805  24.486  53.115  1.00  0.00     0.019 A 
HETATM   22  C   UNL     1       7.747  23.538  54.142  1.00  0.00     0.032 A 
HETATM   23  C   UNL     1       7.428  23.954  55.437  1.00  0.00     0.019 A 
HETATM   24  C   UNL     1       7.192  25.305  55.704  1.00  0.00     0.030 A 
BRANCH  22  25
HETATM   25  C   UNL     1       7.986  22.086  53.908  1.00  0.00     0.251 C 
HETATM   26  N   UNL     1       8.557  21.380  54.946  1.00  0.00    -0.361 N 
HETATM   27  C   UNL     1       8.846  19.972  54.835  1.00  0.00     0.149 C 
HETATM   28  H   UNL     1       8.758  21.838  55.823  1.00  0.00     0.162 HD
HETATM   29  O   UNL     1       7.652  21.576  52.845  1.00  0.00    -0.268 OA
ENDBRANCH  22  25
ENDBRANCH   2  19
TORSDOF 6
ENDMDL
MODEL 8
REMARK VINA RESULT:      -8.6      6.093      9.768
REMARK  6 active torsions:
REMARK  status: ('A' for Active; 'I' for Inactive)
REMARK    1  A    between atoms: C_2  and  S_3 
REMARK    2  A    between atoms: C_2  and  C_18 
REMARK    3  A    between atoms: S_3  and  C_4 
REMARK    4  A    between atoms: C_4  and  C_5 
REMARK       I    between atoms: C_5  and  N_6 
REMARK    5  A    between atoms: N_6  and  C_7 
REMARK    6  A    between atoms: C_10  and  C_11 
REMARK       I    between atoms: C_11  and  N_12 
ROOT
HETATM    1  C   UNL     1       5.273  27.108  51.705  1.00  0.00     0.231 C 
HETATM    2  N   UNL     1       6.041  26.744  52.799  1.00  0.00    -0.327 N 
HETATM    3  O   UNL     1       4.934  26.372  50.780  1.00  0.00    -0.272 OA
HETATM    4  H   UNL     1       6.076  27.401  53.569  1.00  0.00     0.169 HD
ENDROOT
BRANCH   1   5
HETATM    5  C   UNL     1       4.890  28.584  51.720  1.00  0.00     0.177 C 
BRANCH   5   6
HETATM    6  S   UNL     1       3.245  28.872  52.448  1.00  0.00    -0.147 SA
BRANCH   6   7
HETATM    7  C   UNL     1       3.634  29.990  53.854  1.00  0.00     0.113 C 
HETATM    8  C   UNL     1       4.017  31.389  53.375  1.00  0.00     0.029 C 
BRANCH   7   9
HETATM    9  C   UNL     1       4.647  29.404  54.786  1.00  0.00     0.118 A 
HETATM   10  N   UNL     1       4.596  28.234  55.393  1.00  0.00    -0.232 NA
HETATM   11  C   UNL     1       5.767  28.134  56.110  1.00  0.00     0.085 A 
HETATM   12  C   UNL     1       6.542  29.276  55.953  1.00  0.00     0.062 A 
HETATM   13  C   UNL     1       6.235  27.099  56.932  1.00  0.00     0.034 A 
HETATM   14  N   UNL     1       5.809  30.070  55.112  1.00  0.00    -0.342 N 
HETATM   15  C   UNL     1       7.774  29.462  56.582  1.00  0.00     0.032 A 
HETATM   16  H   UNL     1       6.051  31.005  54.815  1.00  0.00     0.167 HD
HETATM   17  C   UNL     1       8.223  28.421  57.402  1.00  0.00     0.002 A 
HETATM   18  C   UNL     1       7.468  27.258  57.577  1.00  0.00     0.002 A 
ENDBRANCH   7   9
ENDBRANCH   6   7
ENDBRANCH   5   6
ENDBRANCH   1   5
BRANCH   2  19
HETATM   19  C   UNL     1       6.627  25.491  53.066  1.00  0.00     0.034 A 
HETATM   20  C   UNL     1       7.530  24.849  52.216  1.00  0.00     0.030 A 
HETATM   21  C   UNL     1       8.059  23.596  52.555  1.00  0.00     0.019 A 
HETATM   22  C   UNL     1       7.701  22.979  53.759  1.00  0.00     0.032 A 
HETATM   23  C   UNL     1       6.790  23.616  54.606  1.00  0.00     0.019 A 
HETATM   24  C   UNL     1       6.262  24.863  54.263  1.00  0.00     0.030 A 
BRANCH  22  25
HETATM   25  C   UNL     1       8.232  21.649  54.167  1.00  0.00     0.251 C 
HETATM   26  N   UNL     1       8.767  21.561  55.435  1.00  0.00    -0.361 N 
HETATM   27  C   UNL     1       9.321  20.330  55.940  1.00  0.00     0.149 C 
HETATM   28  H   UNL     1       8.752  22.363  56.050  1.00  0.00     0.162 HD
HETATM   29  O   UNL     1       8.153  20.697  53.399  1.00  0.00    -0.268 OA
ENDBRANCH  22  25
ENDBRANCH   2  19
TORSDOF 6
ENDMDL
MODEL 9
REMARK VINA RESULT:      -8.5      3.259      9.998
REMARK  6 active torsions:
REMARK  status: ('A' for Active; 'I' for Inactive)
REMARK    1  A    between atoms: C_2  and  S_3 
REMARK    2  A    between atoms: C_2  and  C_18 
REMARK    3  A    between atoms: S_3  and  C_4 
REMARK    4  A    between atoms: C_4  and  C_5 
REMARK       I    between atoms: C_5  and  N_6 
REMARK    5  A    between atoms: N_6  and  C_7 
REMARK    6  A    between atoms: C_10  and  C_11 
REMARK       I    between atoms: C_11  and  N_12 
ROOT
HETATM    1  C   UNL     1       6.044  28.394  56.646  1.00  0.00     0.231 C 
HETATM    2  N   UNL     1       5.507  27.120  56.575  1.00  0.00    -0.327 N 
HETATM    3  O   UNL     1       7.145  28.741  56.226  1.00  0.00    -0.272 OA
HETATM    4  H   UNL     1       4.520  27.029  56.787  1.00  0.00     0.169 HD
ENDROOT
BRANCH   1   5
HETATM    5  C   UNL     1       5.125  29.381  57.358  1.00  0.00     0.177 C 
BRANCH   5   6
HETATM    6  S   UNL     1       5.023  30.986  56.501  1.00  0.00    -0.147 SA
BRANCH   6   7
HETATM    7  C   UNL     1       4.834  32.161  57.902  1.00  0.00     0.113 C 
HETATM    8  C   UNL     1       4.600  33.589  57.414  1.00  0.00     0.029 C 
BRANCH   7   9
HETATM    9  C   UNL     1       5.960  32.066  58.883  1.00  0.00     0.118 A 
HETATM   10  N   UNL     1       7.253  32.075  58.621  1.00  0.00    -0.232 NA
HETATM   11  C   UNL     1       7.880  32.000  59.845  1.00  0.00     0.085 A 
HETATM   12  C   UNL     1       6.950  31.925  60.874  1.00  0.00     0.062 A 
HETATM   13  C   UNL     1       9.247  31.979  60.156  1.00  0.00     0.034 A 
HETATM   14  N   UNL     1       5.738  31.965  60.239  1.00  0.00    -0.342 N 
HETATM   15  C   UNL     1       7.301  31.819  62.221  1.00  0.00     0.032 A 
HETATM   16  H   UNL     1       4.833  31.886  60.679  1.00  0.00     0.167 HD
HETATM   17  C   UNL     1       8.669  31.795  62.513  1.00  0.00     0.002 A 
HETATM   18  C   UNL     1       9.629  31.872  61.500  1.00  0.00     0.002 A 
ENDBRANCH   7   9
ENDBRANCH   6   7
ENDBRANCH   5   6
ENDBRANCH   1   5
BRANCH   2  19
HETATM   19  C   UNL     1       6.108  25.955  56.058  1.00  0.00     0.034 A 
HETATM   20  C   UNL     1       5.947  25.504  54.747  1.00  0.00     0.030 A 
HETATM   21  C   UNL     1       6.575  24.326  54.316  1.00  0.00     0.019 A 
HETATM   22  C   UNL     1       7.386  23.598  55.192  1.00  0.00     0.032 A 
HETATM   23  C   UNL     1       7.542  24.042  56.507  1.00  0.00     0.019 A 
HETATM   24  C   UNL     1       6.911  25.214  56.934  1.00  0.00     0.030 A 
BRANCH  22  25
HETATM   25  C   UNL     1       8.076  22.341  54.787  1.00  0.00     0.251 C 
HETATM   26  N   UNL     1       7.683  21.780  53.590  1.00  0.00    -0.361 N 
HETATM   27  C   UNL     1       8.270  20.559  53.098  1.00  0.00     0.149 C 
HETATM   28  H   UNL     1       6.989  22.238  53.017  1.00  0.00     0.162 HD
HETATM   29  O   UNL     1       8.962  21.876  55.494  1.00  0.00    -0.268 OA
ENDBRANCH  22  25
ENDBRANCH   2  19
TORSDOF 6
ENDMDL
MODEL 10
REMARK VINA RESULT:      -8.2      7.763      9.900
REMARK  6 active torsions:
REMARK  status: ('A' for Active; 'I' for Inactive)
REMARK    1  A    between atoms: C_2  and  S_3 
REMARK    2  A    between atoms: C_2  and  C_18 
REMARK    3  A    between atoms: S_3  and  C_4 
REMARK    4  A    between atoms: C_4  and  C_5 
REMARK       I    between atoms: C_5  and  N_6 
REMARK    5  A    between atoms: N_6  and  C_7 
REMARK    6  A    between atoms: C_10  and  C_11 
REMARK       I    between atoms: C_11  and  N_12 
ROOT
HETATM    1  C   UNL     1       4.838  27.581  53.442  1.00  0.00     0.231 C 
HETATM    2  N   UNL     1       4.639  26.214  53.545  1.00  0.00    -0.327 N 
HETATM    3  O   UNL     1       5.902  28.174  53.610  1.00  0.00    -0.272 OA
HETATM    4  H   UNL     1       3.761  25.854  53.192  1.00  0.00     0.169 HD
ENDROOT
BRANCH   1   5
HETATM    5  C   UNL     1       3.555  28.339  53.120  1.00  0.00     0.177 C 
BRANCH   5   6
HETATM    6  S   UNL     1       3.830  30.131  52.929  1.00  0.00    -0.147 SA
BRANCH   6   7
HETATM    7  C   UNL     1       4.560  30.233  51.245  1.00  0.00     0.113 C 
HETATM    8  C   UNL     1       4.497  31.653  50.687  1.00  0.00     0.029 C 
BRANCH   7   9
HETATM    9  C   UNL     1       3.979  29.221  50.309  1.00  0.00     0.118 A 
HETATM   10  N   UNL     1       2.745  29.175  49.843  1.00  0.00    -0.232 NA
HETATM   11  C   UNL     1       2.706  28.090  48.997  1.00  0.00     0.085 A 
HETATM   12  C   UNL     1       3.938  27.447  48.960  1.00  0.00     0.062 A 
HETATM   13  C   UNL     1       1.648  27.581  48.232  1.00  0.00     0.034 A 
HETATM   14  N   UNL     1       4.728  28.182  49.803  1.00  0.00    -0.342 N 
HETATM   15  C   UNL     1       4.185  26.302  48.201  1.00  0.00     0.032 A 
HETATM   16  H   UNL     1       5.685  27.974  50.053  1.00  0.00     0.167 HD
HETATM   17  C   UNL     1       3.115  25.806  47.448  1.00  0.00     0.002 A 
HETATM   18  C   UNL     1       1.865  26.431  47.462  1.00  0.00     0.002 A 
ENDBRANCH   7   9
ENDBRANCH   6   7
ENDBRANCH   5   6
ENDBRANCH   1   5
BRANCH   2  19
HETATM   19  C   UNL     1       5.580  25.228  53.902  1.00  0.00     0.034 A 
HETATM   20  C   UNL     1       5.994  24.973  55.211  1.00  0.00     0.030 A 
HETATM   21  C   UNL     1       6.944  23.977  55.477  1.00  0.00     0.019 A 
HETATM   22  C   UNL     1       7.478  23.214  54.433  1.00  0.00     0.032 A 
HETATM   23  C   UNL     1       7.072  23.473  53.122  1.00  0.00     0.019 A 
HETATM   24  C   UNL     1       6.128  24.469  52.861  1.00  0.00     0.030 A 
BRANCH  22  25
HETATM   25  C   UNL     1       8.491  22.145  54.659  1.00  0.00     0.251 C 
HETATM   26  N   UNL     1       8.386  21.435  55.837  1.00  0.00    -0.361 N 
HETATM   27  C   UNL     1       9.313  20.384  56.173  1.00  0.00     0.149 C 
HETATM   28  H   UNL     1       7.630  21.624  56.479  1.00  0.00     0.162 HD
HETATM   29  O   UNL     1       9.340  21.917  53.805  1.00  0.00    -0.268 OA
ENDBRANCH  22  25
ENDBRANCH   2  19
TORSDOF 6
ENDMDL
