MODEL 1
REMARK VINA RESULT:     -10.5      0.000      0.000
REMARK  5 active torsions:
REMARK  status: ('A' for Active; 'I' for Inactive)
REMARK    1  A    between atoms: C_4  and  C_5 
REMARK    2  A    between atoms: C_5  and  N_6 
REMARK    3  A    between atoms: C_8  and  C_9 
REMARK       I    between atoms: C_9  and  N_10 
REMARK    4  A    between atoms: N_10  and  N_11 
REMARK       I    between atoms: N_11  and  C_12 
REMARK    5  A    between atoms: C_12  and  C_13 
ROOT
HETATM    1  N   UNL     1       6.921  24.886  56.314  1.00  0.00    -0.229 N 
HETATM    2  N   UNL     1       6.240  25.226  55.165  1.00  0.00    -0.163 NA
HETATM    3  C   UNL     1       6.390  24.487  54.104  1.00  0.00     0.157 A 
HETATM    4  C   UNL     1       7.272  23.312  54.042  1.00  0.00     0.016 A 
HETATM    5  C   UNL     1       7.958  22.979  55.205  1.00  0.00     0.046 A 
HETATM    6  C   UNL     1       7.778  23.793  56.421  1.00  0.00     0.275 A 
HETATM    7  O   UNL     1       8.388  23.490  57.443  1.00  0.00    -0.266 OA
HETATM    8  C   UNL     1       7.467  22.554  52.880  1.00  0.00     0.015 A 
HETATM    9  C   UNL     1       8.338  21.460  52.896  1.00  0.00     0.001 A 
HETATM   10  C   UNL     1       9.019  21.124  54.064  1.00  0.00     0.001 A 
HETATM   11  C   UNL     1       8.831  21.882  55.219  1.00  0.00     0.018 A 
ENDROOT
BRANCH   3  12
HETATM   12  C   UNL     1       5.618  24.935  52.871  1.00  0.00     0.291 C 
HETATM   13  N   UNL     1       6.353  25.754  52.046  1.00  0.00    -0.262 N 
HETATM   14  H   UNL     1       7.230  26.176  52.358  1.00  0.00     0.190 HD
HETATM   15  O   UNL     1       4.469  24.571  52.669  1.00  0.00    -0.264 OA
BRANCH  13  16
HETATM   16  N   UNL     1       5.750  26.296  50.908  1.00  0.00    -0.263 N 
HETATM   17  C   UNL     1       5.347  27.615  50.959  1.00  0.00     0.270 C 
HETATM   18  O   UNL     1       5.514  28.318  51.954  1.00  0.00    -0.266 OA
HETATM   19  H   UNL     1       5.464  25.640  50.185  1.00  0.00     0.190 HD
BRANCH  17  20
HETATM   20  C   UNL     1       4.672  28.160  49.750  1.00  0.00     0.036 A 
HETATM   21  C   UNL     1       3.275  28.285  49.681  1.00  0.00     0.051 A 
HETATM   22  C   UNL     1       2.707  28.781  48.499  1.00  0.00     0.085 A 
HETATM   23  C   UNL     1       3.529  29.130  47.433  1.00  0.00     0.062 A 
HETATM   24  N   UNL     1       1.386  28.991  48.188  1.00  0.00    -0.242 NA
HETATM   25  N   UNL     1       2.658  29.559  46.463  1.00  0.00    -0.349 N 
HETATM   26  C   UNL     1       4.918  29.010  47.465  1.00  0.00     0.033 A 
HETATM   27  H   UNL     1       2.909  29.887  45.541  1.00  0.00     0.167 HD
HETATM   28  C   UNL     1       1.390  29.456  46.960  1.00  0.00     0.208 A 
HETATM   29  C   UNL     1       5.472  28.512  48.650  1.00  0.00     0.019 A 
ENDBRANCH  17  20
ENDBRANCH  13  16
ENDBRANCH   3  12
BRANCH   1  30
HETATM   30  C   UNL     1       6.674  25.719  57.487  1.00  0.00     0.193 C 
BRANCH  30  31
HETATM   31  C   UNL     1       7.189  27.129  57.310  1.00  0.00    -0.038 A 
HETATM   32  C   UNL     1       8.561  27.371  57.155  1.00  0.00     0.009 A 
HETATM   33  C   UNL     1       9.038  28.674  56.998  1.00  0.00     0.001 A 
HETATM   34  C   UNL     1       8.148  29.747  57.002  1.00  0.00     0.000 A 
HETATM   35  C   UNL     1       6.783  29.519  57.167  1.00  0.00     0.001 A 
HETATM   36  C   UNL     1       6.306  28.218  57.326  1.00  0.00     0.009 A 
ENDBRANCH  30  31
ENDBRANCH   1  30
TORSDOF 5
ENDMDL
MODEL 2
REMARK VINA RESULT:     -10.5      1.674      4.734
REMARK  5 active torsions:
REMARK  status: ('A' for Active; 'I' for Inactive)
REMARK    1  A    between atoms: C_4  and  C_5 
REMARK    2  A    between atoms: C_5  and  N_6 
REMARK    3  A    between atoms: C_8  and  C_9 
REMARK       I    between atoms: C_9  and  N_10 
REMARK    4  A    between atoms: N_10  and  N_11 
REMARK       I    between atoms: N_11  and  C_12 
REMARK    5  A    between atoms: C_12  and  C_13 
ROOT
HETATM    1  N   UNL     1       7.750  25.085  55.773  1.00  0.00    -0.229 N 
HETATM    2  N   UNL     1       6.932  24.920  54.676  1.00  0.00    -0.163 NA
HETATM    3  C   UNL     1       5.987  25.787  54.460  1.00  0.00     0.157 A 
HETATM    4  C   UNL     1       5.712  26.934  55.339  1.00  0.00     0.016 A 
HETATM    5  C   UNL     1       6.540  27.092  56.446  1.00  0.00     0.046 A 
HETATM    6  C   UNL     1       7.631  26.129  56.686  1.00  0.00     0.275 A 
HETATM    7  O   UNL     1       8.357  26.277  57.667  1.00  0.00    -0.266 OA
HETATM    8  C   UNL     1       4.658  27.833  55.128  1.00  0.00     0.015 A 
HETATM    9  C   UNL     1       4.450  28.890  56.020  1.00  0.00     0.001 A 
HETATM   10  C   UNL     1       5.285  29.049  57.124  1.00  0.00     0.001 A 
HETATM   11  C   UNL     1       6.330  28.151  57.339  1.00  0.00     0.018 A 
ENDROOT
BRANCH   3  12
HETATM   12  C   UNL     1       5.116  25.530  53.239  1.00  0.00     0.291 C 
HETATM   13  N   UNL     1       5.455  26.317  52.163  1.00  0.00    -0.262 N 
HETATM   14  H   UNL     1       6.072  27.125  52.267  1.00  0.00     0.190 HD
HETATM   15  O   UNL     1       4.226  24.693  53.253  1.00  0.00    -0.264 OA
BRANCH  13  16
HETATM   16  N   UNL     1       4.698  26.236  50.992  1.00  0.00    -0.263 N 
HETATM   17  C   UNL     1       4.228  27.414  50.446  1.00  0.00     0.270 C 
HETATM   18  O   UNL     1       4.466  28.513  50.944  1.00  0.00    -0.266 OA
HETATM   19  H   UNL     1       4.369  25.312  50.721  1.00  0.00     0.190 HD
BRANCH  17  20
HETATM   20  C   UNL     1       3.391  27.302  49.221  1.00  0.00     0.036 A 
HETATM   21  C   UNL     1       2.405  28.254  48.914  1.00  0.00     0.051 A 
HETATM   22  C   UNL     1       1.636  28.069  47.757  1.00  0.00     0.085 A 
HETATM   23  C   UNL     1       1.859  26.958  46.952  1.00  0.00     0.062 A 
HETATM   24  N   UNL     1       0.623  28.846  47.250  1.00  0.00    -0.242 NA
HETATM   25  N   UNL     1       0.945  27.089  45.936  1.00  0.00    -0.349 N 
HETATM   26  C   UNL     1       2.823  25.989  47.231  1.00  0.00     0.033 A 
HETATM   27  H   UNL     1       0.818  26.450  45.163  1.00  0.00     0.167 HD
HETATM   28  C   UNL     1       0.229  28.231  46.158  1.00  0.00     0.208 A 
HETATM   29  C   UNL     1       3.583  26.185  48.390  1.00  0.00     0.019 A 
ENDBRANCH  17  20
ENDBRANCH  13  16
ENDBRANCH   3  12
BRANCH   1  30
HETATM   30  C   UNL     1       8.826  24.112  55.934  1.00  0.00     0.193 C 
BRANCH  30  31
HETATM   31  C   UNL     1       8.517  22.795  55.259  1.00  0.00    -0.038 A 
HETATM   32  C   UNL     1       7.997  21.722  55.998  1.00  0.00     0.009 A 
HETATM   33  C   UNL     1       7.717  20.504  55.377  1.00  0.00     0.001 A 
HETATM   34  C   UNL     1       7.961  20.344  54.014  1.00  0.00     0.000 A 
HETATM   35  C   UNL     1       8.489  21.400  53.272  1.00  0.00     0.001 A 
HETATM   36  C   UNL     1       8.771  22.618  53.892  1.00  0.00     0.009 A 
ENDBRANCH  30  31
ENDBRANCH   1  30
TORSDOF 5
ENDMDL
MODEL 3
REMARK VINA RESULT:     -10.4      1.387      1.739
REMARK  5 active torsions:
REMARK  status: ('A' for Active; 'I' for Inactive)
REMARK    1  A    between atoms: C_4  and  C_5 
REMARK    2  A    between atoms: C_5  and  N_6 
REMARK    3  A    between atoms: C_8  and  C_9 
REMARK       I    between atoms: C_9  and  N_10 
REMARK    4  A    between atoms: N_10  and  N_11 
REMARK       I    between atoms: N_11  and  C_12 
REMARK    5  A    between atoms: C_12  and  C_13 
ROOT
HETATM    1  N   UNL     1       7.034  26.451  56.273  1.00  0.00    -0.229 N 
HETATM    2  N   UNL     1       6.205  26.364  55.175  1.00  0.00    -0.163 NA
HETATM    3  C   UNL     1       6.295  25.323  54.401  1.00  0.00     0.157 A 
HETATM    4  C   UNL     1       7.259  24.230  54.607  1.00  0.00     0.016 A 
HETATM    5  C   UNL     1       8.094  24.328  55.714  1.00  0.00     0.046 A 
HETATM    6  C   UNL     1       7.983  25.492  56.614  1.00  0.00     0.275 A 
HETATM    7  O   UNL     1       8.726  25.569  57.590  1.00  0.00    -0.266 OA
HETATM    8  C   UNL     1       7.384  23.138  53.737  1.00  0.00     0.015 A 
HETATM    9  C   UNL     1       8.338  22.148  53.992  1.00  0.00     0.001 A 
HETATM   10  C   UNL     1       9.170  22.245  55.106  1.00  0.00     0.001 A 
HETATM   11  C   UNL     1       9.049  23.334  55.968  1.00  0.00     0.018 A 
ENDROOT
BRANCH   3  12
HETATM   12  C   UNL     1       5.358  25.304  53.202  1.00  0.00     0.291 C 
HETATM   13  N   UNL     1       5.917  25.862  52.076  1.00  0.00    -0.262 N 
HETATM   14  H   UNL     1       6.775  26.414  52.124  1.00  0.00     0.190 HD
HETATM   15  O   UNL     1       4.236  24.825  53.274  1.00  0.00    -0.264 OA
BRANCH  13  16
HETATM   16  N   UNL     1       5.148  25.974  50.915  1.00  0.00    -0.263 N 
HETATM   17  C   UNL     1       4.593  27.205  50.626  1.00  0.00     0.270 C 
HETATM   18  O   UNL     1       4.767  28.191  51.340  1.00  0.00    -0.266 OA
HETATM   19  H   UNL     1       4.875  25.105  50.460  1.00  0.00     0.190 HD
BRANCH  17  20
HETATM   20  C   UNL     1       3.745  27.292  49.406  1.00  0.00     0.036 A 
HETATM   21  C   UNL     1       2.814  28.330  49.230  1.00  0.00     0.051 A 
HETATM   22  C   UNL     1       2.030  28.332  48.068  1.00  0.00     0.085 A 
HETATM   23  C   UNL     1       2.185  27.318  47.130  1.00  0.00     0.062 A 
HETATM   24  N   UNL     1       1.063  29.222  47.673  1.00  0.00    -0.242 NA
HETATM   25  N   UNL     1       1.275  27.624  46.149  1.00  0.00    -0.349 N 
HETATM   26  C   UNL     1       3.092  26.269  47.278  1.00  0.00     0.033 A 
HETATM   27  H   UNL     1       1.108  27.094  45.306  1.00  0.00     0.167 HD
HETATM   28  C   UNL     1       0.628  28.770  46.518  1.00  0.00     0.208 A 
HETATM   29  C   UNL     1       3.868  26.277  48.443  1.00  0.00     0.019 A 
ENDBRANCH  17  20
ENDBRANCH  13  16
ENDBRANCH   3  12
BRANCH   1  30
HETATM   30  C   UNL     1       6.851  27.616  57.135  1.00  0.00     0.193 C 
BRANCH  30  31
HETATM   31  C   UNL     1       8.038  28.551  57.097  1.00  0.00    -0.038 A 
HETATM   32  C   UNL     1       8.406  29.279  58.238  1.00  0.00     0.009 A 
HETATM   33  C   UNL     1       9.497  30.149  58.201  1.00  0.00     0.001 A 
HETATM   34  C   UNL     1      10.226  30.304  57.023  1.00  0.00     0.000 A 
HETATM   35  C   UNL     1       9.861  29.596  55.880  1.00  0.00     0.001 A 
HETATM   36  C   UNL     1       8.769  28.728  55.914  1.00  0.00     0.009 A 
ENDBRANCH  30  31
ENDBRANCH   1  30
TORSDOF 5
ENDMDL
MODEL 4
REMARK VINA RESULT:     -10.1      4.853      8.483
REMARK  5 active torsions:
REMARK  status: ('A' for Active; 'I' for Inactive)
REMARK    1  A    between atoms: C_4  and  C_5 
REMARK    2  A    between atoms: C_5  and  N_6 
REMARK    3  A    between atoms: C_8  and  C_9 
REMARK       I    between atoms: C_9  and  N_10 
REMARK    4  A    between atoms: N_10  and  N_11 
REMARK       I    between atoms: N_11  and  C_12 
REMARK    5  A    between atoms: C_12  and  C_13 
ROOT
HETATM    1  N   UNL     1       7.381  31.319  58.562  1.00  0.00    -0.229 N 
HETATM    2  N   UNL     1       7.758  30.025  58.270  1.00  0.00    -0.163 NA
HETATM    3  C   UNL     1       6.940  29.270  57.596  1.00  0.00     0.157 A 
HETATM    4  C   UNL     1       5.609  29.703  57.143  1.00  0.00     0.016 A 
HETATM    5  C   UNL     1       5.236  31.008  57.445  1.00  0.00     0.046 A 
HETATM    6  C   UNL     1       6.165  31.882  58.186  1.00  0.00     0.275 A 
HETATM    7  O   UNL     1       5.826  33.034  58.448  1.00  0.00    -0.266 OA
HETATM    8  C   UNL     1       4.715  28.865  56.464  1.00  0.00     0.015 A 
HETATM    9  C   UNL     1       3.459  29.346  56.082  1.00  0.00     0.001 A 
HETATM   10  C   UNL     1       3.090  30.656  56.380  1.00  0.00     0.001 A 
HETATM   11  C   UNL     1       3.977  31.489  57.061  1.00  0.00     0.018 A 
ENDROOT
BRANCH   3  12
HETATM   12  C   UNL     1       7.419  27.851  57.326  1.00  0.00     0.291 C 
HETATM   13  N   UNL     1       7.512  27.562  55.985  1.00  0.00    -0.262 N 
HETATM   14  H   UNL     1       7.092  28.170  55.278  1.00  0.00     0.190 HD
HETATM   15  O   UNL     1       7.692  27.083  58.237  1.00  0.00    -0.264 OA
BRANCH  13  16
HETATM   16  N   UNL     1       7.876  26.274  55.586  1.00  0.00    -0.263 N 
HETATM   17  C   UNL     1       6.878  25.431  55.141  1.00  0.00     0.270 C 
HETATM   18  O   UNL     1       5.701  25.781  55.072  1.00  0.00    -0.266 OA
HETATM   19  H   UNL     1       8.814  25.965  55.834  1.00  0.00     0.190 HD
BRANCH  17  20
HETATM   20  C   UNL     1       7.282  24.050  54.759  1.00  0.00     0.036 A 
HETATM   21  C   UNL     1       7.603  23.084  55.727  1.00  0.00     0.051 A 
HETATM   22  C   UNL     1       8.001  21.812  55.292  1.00  0.00     0.085 A 
HETATM   23  C   UNL     1       8.074  21.541  53.930  1.00  0.00     0.062 A 
HETATM   24  N   UNL     1       8.364  20.713  56.031  1.00  0.00    -0.242 NA
HETATM   25  N   UNL     1       8.495  20.236  53.869  1.00  0.00    -0.349 N 
HETATM   26  C   UNL     1       7.772  22.479  52.944  1.00  0.00     0.033 A 
HETATM   27  H   UNL     1       8.663  19.703  53.027  1.00  0.00     0.167 HD
HETATM   28  C   UNL     1       8.656  19.785  55.148  1.00  0.00     0.208 A 
HETATM   29  C   UNL     1       7.377  23.746  53.391  1.00  0.00     0.019 A 
ENDBRANCH  17  20
ENDBRANCH  13  16
ENDBRANCH   3  12
BRANCH   1  30
HETATM   30  C   UNL     1       8.360  32.136  59.273  1.00  0.00     0.193 C 
BRANCH  30  31
HETATM   31  C   UNL     1       8.153  32.109  60.770  1.00  0.00    -0.038 A 
HETATM   32  C   UNL     1       7.456  33.144  61.411  1.00  0.00     0.009 A 
HETATM   33  C   UNL     1       7.270  33.123  62.794  1.00  0.00     0.001 A 
HETATM   34  C   UNL     1       7.785  32.071  63.550  1.00  0.00     0.000 A 
HETATM   35  C   UNL     1       8.490  31.043  62.926  1.00  0.00     0.001 A 
HETATM   36  C   UNL     1       8.678  31.065  61.543  1.00  0.00     0.009 A 
ENDBRANCH  30  31
ENDBRANCH   1  30
TORSDOF 5
ENDMDL
MODEL 5
REMARK VINA RESULT:     -10.1      1.647      2.363
REMARK  5 active torsions:
REMARK  status: ('A' for Active; 'I' for Inactive)
REMARK    1  A    between atoms: C_4  and  C_5 
REMARK    2  A    between atoms: C_5  and  N_6 
REMARK    3  A    between atoms: C_8  and  C_9 
REMARK       I    between atoms: C_9  and  N_10 
REMARK    4  A    between atoms: N_10  and  N_11 
REMARK       I    between atoms: N_11  and  C_12 
REMARK    5  A    between atoms: C_12  and  C_13 
ROOT
HETATM    1  N   UNL     1       7.157  26.902  56.309  1.00  0.00    -0.229 N 
HETATM    2  N   UNL     1       6.605  27.557  55.229  1.00  0.00    -0.163 NA
HETATM    3  C   UNL     1       6.570  26.952  54.078  1.00  0.00     0.157 A 
HETATM    4  C   UNL     1       7.114  25.605  53.844  1.00  0.00     0.016 A 
HETATM    5  C   UNL     1       7.672  24.953  54.938  1.00  0.00     0.046 A 
HETATM    6  C   UNL     1       7.695  25.619  56.254  1.00  0.00     0.275 A 
HETATM    7  O   UNL     1       8.190  25.034  57.214  1.00  0.00    -0.266 OA
HETATM    8  C   UNL     1       7.118  24.983  52.588  1.00  0.00     0.015 A 
HETATM    9  C   UNL     1       7.672  23.707  52.442  1.00  0.00     0.001 A 
HETATM   10  C   UNL     1       8.224  23.053  53.541  1.00  0.00     0.001 A 
HETATM   11  C   UNL     1       8.226  23.674  54.790  1.00  0.00     0.018 A 
ENDROOT
BRANCH   3  12
HETATM   12  C   UNL     1       5.960  27.744  52.931  1.00  0.00     0.291 C 
HETATM   13  N   UNL     1       4.714  27.289  52.567  1.00  0.00    -0.262 N 
HETATM   14  H   UNL     1       4.359  26.388  52.894  1.00  0.00     0.190 HD
HETATM   15  O   UNL     1       6.546  28.687  52.421  1.00  0.00    -0.264 OA
BRANCH  13  16
HETATM   16  N   UNL     1       4.059  27.879  51.484  1.00  0.00    -0.263 N 
HETATM   17  C   UNL     1       4.305  27.366  50.226  1.00  0.00     0.270 C 
HETATM   18  O   UNL     1       5.058  26.412  50.038  1.00  0.00    -0.266 OA
HETATM   19  H   UNL     1       3.601  28.772  51.656  1.00  0.00     0.190 HD
BRANCH  17  20
HETATM   20  C   UNL     1       3.629  28.036  49.081  1.00  0.00     0.036 A 
HETATM   21  C   UNL     1       4.209  29.134  48.424  1.00  0.00     0.051 A 
HETATM   22  C   UNL     1       3.501  29.730  47.371  1.00  0.00     0.085 A 
HETATM   23  C   UNL     1       2.254  29.232  47.010  1.00  0.00     0.062 A 
HETATM   24  N   UNL     1       3.848  30.802  46.586  1.00  0.00    -0.242 NA
HETATM   25  N   UNL     1       1.856  30.040  45.974  1.00  0.00    -0.349 N 
HETATM   26  C   UNL     1       1.646  28.150  47.646  1.00  0.00     0.033 A 
HETATM   27  H   UNL     1       0.987  29.971  45.465  1.00  0.00     0.167 HD
HETATM   28  C   UNL     1       2.840  30.964  45.759  1.00  0.00     0.208 A 
HETATM   29  C   UNL     1       2.362  27.564  48.697  1.00  0.00     0.019 A 
ENDBRANCH  17  20
ENDBRANCH  13  16
ENDBRANCH   3  12
BRANCH   1  30
HETATM   30  C   UNL     1       7.121  27.609  57.586  1.00  0.00     0.193 C 
BRANCH  30  31
HETATM   31  C   UNL     1       8.186  28.677  57.683  1.00  0.00    -0.038 A 
HETATM   32  C   UNL     1       9.355  28.587  56.912  1.00  0.00     0.009 A 
HETATM   33  C   UNL     1      10.342  29.570  57.007  1.00  0.00     0.001 A 
HETATM   34  C   UNL     1      10.174  30.646  57.876  1.00  0.00     0.000 A 
HETATM   35  C   UNL     1       9.022  30.738  58.656  1.00  0.00     0.001 A 
HETATM   36  C   UNL     1       8.035  29.756  58.564  1.00  0.00     0.009 A 
ENDBRANCH  30  31
ENDBRANCH   1  30
TORSDOF 5
ENDMDL
MODEL 6
REMARK VINA RESULT:      -9.8      4.076      9.464
REMARK  5 active torsions:
REMARK  status: ('A' for Active; 'I' for Inactive)
REMARK    1  A    between atoms: C_4  and  C_5 
REMARK    2  A    between atoms: C_5  and  N_6 
REMARK    3  A    between atoms: C_8  and  C_9 
REMARK       I    between atoms: C_9  and  N_10 
REMARK    4  A    between atoms: N_10  and  N_11 
REMARK       I    between atoms: N_11  and  C_12 
REMARK    5  A    between atoms: C_12  and  C_13 
ROOT
HETATM    1  N   UNL     1       7.335  25.724  53.372  1.00  0.00    -0.229 N 
HETATM    2  N   UNL     1       7.399  26.190  54.667  1.00  0.00    -0.163 NA
HETATM    3  C   UNL     1       6.512  27.053  55.069  1.00  0.00     0.157 A 
HETATM    4  C   UNL     1       5.447  27.594  54.210  1.00  0.00     0.016 A 
HETATM    5  C   UNL     1       5.393  27.121  52.903  1.00  0.00     0.046 A 
HETATM    6  C   UNL     1       6.377  26.123  52.444  1.00  0.00     0.275 A 
HETATM    7  O   UNL     1       6.320  25.712  51.287  1.00  0.00    -0.266 OA
HETATM    8  C   UNL     1       4.529  28.562  54.636  1.00  0.00     0.015 A 
HETATM    9  C   UNL     1       3.556  29.040  53.753  1.00  0.00     0.001 A 
HETATM   10  C   UNL     1       3.499  28.561  52.446  1.00  0.00     0.001 A 
HETATM   11  C   UNL     1       4.417  27.601  52.019  1.00  0.00     0.018 A 
ENDROOT
BRANCH   3  12
HETATM   12  C   UNL     1       6.656  27.532  56.506  1.00  0.00     0.291 C 
HETATM   13  N   UNL     1       7.483  28.625  56.627  1.00  0.00    -0.262 N 
HETATM   14  H   UNL     1       8.089  28.923  55.860  1.00  0.00     0.190 HD
HETATM   15  O   UNL     1       6.072  26.979  57.427  1.00  0.00    -0.264 OA
BRANCH  13  16
HETATM   16  N   UNL     1       7.761  29.134  57.898  1.00  0.00    -0.263 N 
HETATM   17  C   UNL     1       7.214  30.356  58.236  1.00  0.00     0.270 C 
HETATM   18  O   UNL     1       6.490  30.989  57.470  1.00  0.00    -0.266 OA
HETATM   19  H   UNL     1       8.505  28.678  58.422  1.00  0.00     0.190 HD
BRANCH  17  20
HETATM   20  C   UNL     1       7.555  30.899  59.579  1.00  0.00     0.036 A 
HETATM   21  C   UNL     1       6.696  31.780  60.256  1.00  0.00     0.051 A 
HETATM   22  C   UNL     1       7.096  32.272  61.506  1.00  0.00     0.085 A 
HETATM   23  C   UNL     1       8.321  31.887  62.039  1.00  0.00     0.062 A 
HETATM   24  N   UNL     1       6.444  33.136  62.351  1.00  0.00    -0.242 NA
HETATM   25  N   UNL     1       8.390  32.548  63.240  1.00  0.00    -0.349 N 
HETATM   26  C   UNL     1       9.202  31.021  61.390  1.00  0.00     0.033 A 
HETATM   27  H   UNL     1       9.153  32.506  63.900  1.00  0.00     0.167 HD
HETATM   28  C   UNL     1       7.247  33.283  63.381  1.00  0.00     0.208 A 
HETATM   29  C   UNL     1       8.791  30.538  60.142  1.00  0.00     0.019 A 
ENDBRANCH  17  20
ENDBRANCH  13  16
ENDBRANCH   3  12
BRANCH   1  30
HETATM   30  C   UNL     1       8.323  24.718  52.994  1.00  0.00     0.193 C 
BRANCH  30  31
HETATM   31  C   UNL     1       8.077  23.388  53.668  1.00  0.00    -0.038 A 
HETATM   32  C   UNL     1       7.983  23.305  55.065  1.00  0.00     0.009 A 
HETATM   33  C   UNL     1       7.763  22.076  55.689  1.00  0.00     0.001 A 
HETATM   34  C   UNL     1       7.641  20.918  54.923  1.00  0.00     0.000 A 
HETATM   35  C   UNL     1       7.744  20.986  53.534  1.00  0.00     0.001 A 
HETATM   36  C   UNL     1       7.967  22.214  52.910  1.00  0.00     0.009 A 
ENDBRANCH  30  31
ENDBRANCH   1  30
TORSDOF 5
ENDMDL
MODEL 7
REMARK VINA RESULT:      -9.5      4.928      8.712
REMARK  5 active torsions:
REMARK  status: ('A' for Active; 'I' for Inactive)
REMARK    1  A    between atoms: C_4  and  C_5 
REMARK    2  A    between atoms: C_5  and  N_6 
REMARK    3  A    between atoms: C_8  and  C_9 
REMARK       I    between atoms: C_9  and  N_10 
REMARK    4  A    between atoms: N_10  and  N_11 
REMARK       I    between atoms: N_11  and  C_12 
REMARK    5  A    between atoms: C_12  and  C_13 
ROOT
HETATM    1  N   UNL     1       5.209  30.961  58.061  1.00  0.00    -0.229 N 
HETATM    2  N   UNL     1       5.433  29.803  57.347  1.00  0.00    -0.163 NA
HETATM    3  C   UNL     1       6.651  29.359  57.237  1.00  0.00     0.157 A 
HETATM    4  C   UNL     1       7.825  30.037  57.809  1.00  0.00     0.016 A 
HETATM    5  C   UNL     1       7.590  31.206  58.524  1.00  0.00     0.046 A 
HETATM    6  C   UNL     1       6.211  31.706  58.677  1.00  0.00     0.275 A 
HETATM    7  O   UNL     1       6.014  32.740  59.311  1.00  0.00    -0.266 OA
HETATM    8  C   UNL     1       9.138  29.578  57.640  1.00  0.00     0.015 A 
HETATM    9  C   UNL     1      10.204  30.289  58.200  1.00  0.00     0.001 A 
HETATM   10  C   UNL     1       9.966  31.457  58.922  1.00  0.00     0.001 A 
HETATM   11  C   UNL     1       8.660  31.917  59.085  1.00  0.00     0.018 A 
ENDROOT
BRANCH   3  12
HETATM   12  C   UNL     1       6.820  28.085  56.423  1.00  0.00     0.291 C 
HETATM   13  N   UNL     1       6.562  26.945  57.149  1.00  0.00    -0.262 N 
HETATM   14  H   UNL     1       6.484  26.969  58.168  1.00  0.00     0.190 HD
HETATM   15  O   UNL     1       7.144  28.116  55.245  1.00  0.00    -0.264 OA
BRANCH  13  16
HETATM   16  N   UNL     1       6.741  25.697  56.549  1.00  0.00    -0.263 N 
HETATM   17  C   UNL     1       7.821  24.938  56.952  1.00  0.00     0.270 C 
HETATM   18  O   UNL     1       8.607  25.317  57.819  1.00  0.00    -0.266 OA
HETATM   19  H   UNL     1       6.189  25.505  55.715  1.00  0.00     0.190 HD
BRANCH  17  20
HETATM   20  C   UNL     1       8.017  23.628  56.271  1.00  0.00     0.036 A 
HETATM   21  C   UNL     1       7.844  23.487  54.885  1.00  0.00     0.051 A 
HETATM   22  C   UNL     1       8.018  22.218  54.317  1.00  0.00     0.085 A 
HETATM   23  C   UNL     1       8.348  21.139  55.130  1.00  0.00     0.062 A 
HETATM   24  N   UNL     1       7.904  21.827  53.006  1.00  0.00    -0.242 NA
HETATM   25  N   UNL     1       8.430  20.077  54.264  1.00  0.00    -0.349 N 
HETATM   26  C   UNL     1       8.517  21.242  56.510  1.00  0.00     0.033 A 
HETATM   27  H   UNL     1       8.648  19.122  54.511  1.00  0.00     0.167 HD
HETATM   28  C   UNL     1       8.156  20.537  53.007  1.00  0.00     0.208 A 
HETATM   29  C   UNL     1       8.339  22.515  57.065  1.00  0.00     0.019 A 
ENDBRANCH  17  20
ENDBRANCH  13  16
ENDBRANCH   3  12
BRANCH   1  30
HETATM   30  C   UNL     1       3.818  31.383  58.195  1.00  0.00     0.193 C 
BRANCH  30  31
HETATM   31  C   UNL     1       3.335  32.167  56.996  1.00  0.00    -0.038 A 
HETATM   32  C   UNL     1       2.685  31.518  55.937  1.00  0.00     0.009 A 
HETATM   33  C   UNL     1       2.246  32.240  54.826  1.00  0.00     0.001 A 
HETATM   34  C   UNL     1       2.459  33.616  54.761  1.00  0.00     0.000 A 
HETATM   35  C   UNL     1       3.115  34.270  55.803  1.00  0.00     0.001 A 
HETATM   36  C   UNL     1       3.556  33.548  56.912  1.00  0.00     0.009 A 
ENDBRANCH  30  31
ENDBRANCH   1  30
TORSDOF 5
ENDMDL
MODEL 8
REMARK VINA RESULT:      -9.5      5.329      9.313
REMARK  5 active torsions:
REMARK  status: ('A' for Active; 'I' for Inactive)
REMARK    1  A    between atoms: C_4  and  C_5 
REMARK    2  A    between atoms: C_5  and  N_6 
REMARK    3  A    between atoms: C_8  and  C_9 
REMARK       I    between atoms: C_9  and  N_10 
REMARK    4  A    between atoms: N_10  and  N_11 
REMARK       I    between atoms: N_11  and  C_12 
REMARK    5  A    between atoms: C_12  and  C_13 
ROOT
HETATM    1  N   UNL     1       5.468  32.165  58.753  1.00  0.00    -0.229 N 
HETATM    2  N   UNL     1       6.096  31.150  58.063  1.00  0.00    -0.163 NA
HETATM    3  C   UNL     1       7.164  30.611  58.574  1.00  0.00     0.157 A 
HETATM    4  C   UNL     1       7.770  31.039  59.844  1.00  0.00     0.016 A 
HETATM    5  C   UNL     1       7.132  32.065  60.531  1.00  0.00     0.046 A 
HETATM    6  C   UNL     1       5.906  32.667  59.975  1.00  0.00     0.275 A 
HETATM    7  O   UNL     1       5.349  33.574  60.590  1.00  0.00    -0.266 OA
HETATM    8  C   UNL     1       8.950  30.487  60.360  1.00  0.00     0.015 A 
HETATM    9  C   UNL     1       9.474  30.961  61.567  1.00  0.00     0.001 A 
HETATM   10  C   UNL     1       8.830  31.985  62.257  1.00  0.00     0.001 A 
HETATM   11  C   UNL     1       7.658  32.539  61.741  1.00  0.00     0.018 A 
ENDROOT
BRANCH   3  12
HETATM   12  C   UNL     1       7.809  29.508  57.747  1.00  0.00     0.291 C 
HETATM   13  N   UNL     1       7.110  28.325  57.793  1.00  0.00    -0.262 N 
HETATM   14  H   UNL     1       6.372  28.167  58.482  1.00  0.00     0.190 HD
HETATM   15  O   UNL     1       8.838  29.700  57.116  1.00  0.00    -0.264 OA
BRANCH  13  16
HETATM   16  N   UNL     1       7.620  27.204  57.134  1.00  0.00    -0.263 N 
HETATM   17  C   UNL     1       6.725  26.369  56.496  1.00  0.00     0.270 C 
HETATM   18  O   UNL     1       5.515  26.589  56.478  1.00  0.00    -0.266 OA
HETATM   19  H   UNL     1       8.589  26.958  57.328  1.00  0.00     0.190 HD
BRANCH  17  20
HETATM   20  C   UNL     1       7.285  25.159  55.833  1.00  0.00     0.036 A 
HETATM   21  C   UNL     1       7.679  24.032  56.573  1.00  0.00     0.051 A 
HETATM   22  C   UNL     1       8.223  22.939  55.884  1.00  0.00     0.085 A 
HETATM   23  C   UNL     1       8.365  22.998  54.502  1.00  0.00     0.062 A 
HETATM   24  N   UNL     1       8.680  21.741  56.373  1.00  0.00    -0.242 NA
HETATM   25  N   UNL     1       8.924  21.789  54.169  1.00  0.00    -0.349 N 
HETATM   26  C   UNL     1       7.993  24.104  53.738  1.00  0.00     0.033 A 
HETATM   27  H   UNL     1       9.174  21.484  53.239  1.00  0.00     0.167 HD
HETATM   28  C   UNL     1       9.095  21.073  55.320  1.00  0.00     0.208 A 
HETATM   29  C   UNL     1       7.452  25.189  54.439  1.00  0.00     0.019 A 
ENDBRANCH  17  20
ENDBRANCH  13  16
ENDBRANCH   3  12
BRANCH   1  30
HETATM   30  C   UNL     1       4.244  32.695  58.157  1.00  0.00     0.193 C 
BRANCH  30  31
HETATM   31  C   UNL     1       4.511  33.873  57.249  1.00  0.00    -0.038 A 
HETATM   32  C   UNL     1       4.950  33.672  55.932  1.00  0.00     0.009 A 
HETATM   33  C   UNL     1       5.203  34.759  55.095  1.00  0.00     0.001 A 
HETATM   34  C   UNL     1       5.026  36.059  55.568  1.00  0.00     0.000 A 
HETATM   35  C   UNL     1       4.601  36.272  56.878  1.00  0.00     0.001 A 
HETATM   36  C   UNL     1       4.350  35.185  57.717  1.00  0.00     0.009 A 
ENDBRANCH  30  31
ENDBRANCH   1  30
TORSDOF 5
ENDMDL
MODEL 9
REMARK VINA RESULT:      -9.2      4.094      8.205
REMARK  5 active torsions:
REMARK  status: ('A' for Active; 'I' for Inactive)
REMARK    1  A    between atoms: C_4  and  C_5 
REMARK    2  A    between atoms: C_5  and  N_6 
REMARK    3  A    between atoms: C_8  and  C_9 
REMARK       I    between atoms: C_9  and  N_10 
REMARK    4  A    between atoms: N_10  and  N_11 
REMARK       I    between atoms: N_11  and  C_12 
REMARK    5  A    between atoms: C_12  and  C_13 
ROOT
HETATM    1  N   UNL     1       5.301  31.228  57.810  1.00  0.00    -0.229 N 
HETATM    2  N   UNL     1       5.497  29.869  57.691  1.00  0.00    -0.163 NA
HETATM    3  C   UNL     1       5.308  29.307  56.533  1.00  0.00     0.157 A 
HETATM    4  C   UNL     1       4.866  30.032  55.333  1.00  0.00     0.016 A 
HETATM    5  C   UNL     1       4.667  31.402  55.463  1.00  0.00     0.046 A 
HETATM    6  C   UNL     1       4.902  32.055  56.764  1.00  0.00     0.275 A 
HETATM    7  O   UNL     1       4.724  33.267  56.869  1.00  0.00    -0.266 OA
HETATM    8  C   UNL     1       4.615  29.408  54.103  1.00  0.00     0.015 A 
HETATM    9  C   UNL     1       4.178  30.165  53.011  1.00  0.00     0.001 A 
HETATM   10  C   UNL     1       3.986  31.539  53.142  1.00  0.00     0.001 A 
HETATM   11  C   UNL     1       4.230  32.159  54.367  1.00  0.00     0.018 A 
ENDROOT
BRANCH   3  12
HETATM   12  C   UNL     1       5.529  27.802  56.484  1.00  0.00     0.291 C 
HETATM   13  N   UNL     1       6.812  27.459  56.124  1.00  0.00    -0.262 N 
HETATM   14  H   UNL     1       7.456  28.147  55.729  1.00  0.00     0.190 HD
HETATM   15  O   UNL     1       4.634  27.014  56.753  1.00  0.00    -0.264 OA
BRANCH  13  16
HETATM   16  N   UNL     1       7.143  26.111  55.974  1.00  0.00    -0.263 N 
HETATM   17  C   UNL     1       7.198  25.601  54.692  1.00  0.00     0.270 C 
HETATM   18  O   UNL     1       6.984  26.291  53.698  1.00  0.00    -0.266 OA
HETATM   19  H   UNL     1       7.127  25.538  56.815  1.00  0.00     0.190 HD
BRANCH  17  20
HETATM   20  C   UNL     1       7.513  24.152  54.556  1.00  0.00     0.036 A 
HETATM   21  C   UNL     1       7.765  23.346  55.678  1.00  0.00     0.051 A 
HETATM   22  C   UNL     1       8.082  21.996  55.471  1.00  0.00     0.085 A 
HETATM   23  C   UNL     1       8.146  21.494  54.176  1.00  0.00     0.062 A 
HETATM   24  N   UNL     1       8.369  21.018  56.391  1.00  0.00    -0.242 NA
HETATM   25  N   UNL     1       8.481  20.173  54.344  1.00  0.00    -0.349 N 
HETATM   26  C   UNL     1       7.911  22.268  53.041  1.00  0.00     0.033 A 
HETATM   27  H   UNL     1       8.619  19.496  53.607  1.00  0.00     0.167 HD
HETATM   28  C   UNL     1       8.604  19.937  55.683  1.00  0.00     0.208 A 
HETATM   29  C   UNL     1       7.596  23.615  53.261  1.00  0.00     0.019 A 
ENDBRANCH  17  20
ENDBRANCH  13  16
ENDBRANCH   3  12
BRANCH   1  30
HETATM   30  C   UNL     1       5.579  31.812  59.119  1.00  0.00     0.193 C 
BRANCH  30  31
HETATM   31  C   UNL     1       7.058  31.846  59.432  1.00  0.00    -0.038 A 
HETATM   32  C   UNL     1       7.986  31.294  58.538  1.00  0.00     0.009 A 
HETATM   33  C   UNL     1       9.351  31.319  58.829  1.00  0.00     0.001 A 
HETATM   34  C   UNL     1       9.800  31.890  60.019  1.00  0.00     0.000 A 
HETATM   35  C   UNL     1       8.885  32.431  60.921  1.00  0.00     0.001 A 
HETATM   36  C   UNL     1       7.520  32.405  60.632  1.00  0.00     0.009 A 
ENDBRANCH  30  31
ENDBRANCH   1  30
TORSDOF 5
ENDMDL
MODEL 10
REMARK VINA RESULT:      -9.2      5.854     10.068
REMARK  5 active torsions:
REMARK  status: ('A' for Active; 'I' for Inactive)
REMARK    1  A    between atoms: C_4  and  C_5 
REMARK    2  A    between atoms: C_5  and  N_6 
REMARK    3  A    between atoms: C_8  and  C_9 
REMARK       I    between atoms: C_9  and  N_10 
REMARK    4  A    between atoms: N_10  and  N_11 
REMARK       I    between atoms: N_11  and  C_12 
REMARK    5  A    between atoms: C_12  and  C_13 
ROOT
HETATM    1  N   UNL     1       3.885  33.175  60.951  1.00  0.00    -0.229 N 
HETATM    2  N   UNL     1       3.851  32.032  60.181  1.00  0.00    -0.163 NA
HETATM    3  C   UNL     1       3.945  32.143  58.888  1.00  0.00     0.157 A 
HETATM    4  C   UNL     1       4.060  33.428  58.182  1.00  0.00     0.016 A 
HETATM    5  C   UNL     1       4.091  34.576  58.966  1.00  0.00     0.046 A 
HETATM    6  C   UNL     1       4.010  34.462  60.435  1.00  0.00     0.275 A 
HETATM    7  O   UNL     1       4.038  35.483  61.119  1.00  0.00    -0.266 OA
HETATM    8  C   UNL     1       4.108  33.540  56.786  1.00  0.00     0.015 A 
HETATM    9  C   UNL     1       4.199  34.801  56.188  1.00  0.00     0.001 A 
HETATM   10  C   UNL     1       4.236  35.949  56.976  1.00  0.00     0.001 A 
HETATM   11  C   UNL     1       4.182  35.839  58.365  1.00  0.00     0.018 A 
ENDROOT
BRANCH   3  12
HETATM   12  C   UNL     1       3.884  30.839  58.106  1.00  0.00     0.291 C 
HETATM   13  N   UNL     1       5.010  30.065  58.264  1.00  0.00    -0.262 N 
HETATM   14  H   UNL     1       5.862  30.443  58.683  1.00  0.00     0.190 HD
HETATM   15  O   UNL     1       2.911  30.545  57.427  1.00  0.00    -0.264 OA
BRANCH  13  16
HETATM   16  N   UNL     1       5.123  28.868  57.552  1.00  0.00    -0.263 N 
HETATM   17  C   UNL     1       6.376  28.301  57.441  1.00  0.00     0.270 C 
HETATM   18  O   UNL     1       7.375  28.802  57.955  1.00  0.00    -0.266 OA
HETATM   19  H   UNL     1       4.320  28.591  56.991  1.00  0.00     0.190 HD
BRANCH  17  20
HETATM   20  C   UNL     1       6.480  27.048  56.645  1.00  0.00     0.036 A 
HETATM   21  C   UNL     1       7.544  26.148  56.825  1.00  0.00     0.051 A 
HETATM   22  C   UNL     1       7.591  25.001  56.020  1.00  0.00     0.085 A 
HETATM   23  C   UNL     1       6.600  24.786  55.069  1.00  0.00     0.062 A 
HETATM   24  N   UNL     1       8.517  23.987  56.003  1.00  0.00    -0.242 NA
HETATM   25  N   UNL     1       6.957  23.602  54.473  1.00  0.00    -0.349 N 
HETATM   26  C   UNL     1       5.537  25.663  54.857  1.00  0.00     0.033 A 
HETATM   27  H   UNL     1       6.461  23.139  53.724  1.00  0.00     0.167 HD
HETATM   28  C   UNL     1       8.109  23.164  55.063  1.00  0.00     0.208 A 
HETATM   29  C   UNL     1       5.502  26.805  55.667  1.00  0.00     0.019 A 
ENDBRANCH  17  20
ENDBRANCH  13  16
ENDBRANCH   3  12
BRANCH   1  30
HETATM   30  C   UNL     1       3.829  32.986  62.398  1.00  0.00     0.193 C 
BRANCH  30  31
HETATM   31  C   UNL     1       5.198  33.024  63.037  1.00  0.00    -0.038 A 
HETATM   32  C   UNL     1       6.298  32.433  62.398  1.00  0.00     0.009 A 
HETATM   33  C   UNL     1       7.561  32.462  62.990  1.00  0.00     0.001 A 
HETATM   34  C   UNL     1       7.736  33.074  64.230  1.00  0.00     0.000 A 
HETATM   35  C   UNL     1       6.648  33.654  64.881  1.00  0.00     0.001 A 
HETATM   36  C   UNL     1       5.384  33.624  64.290  1.00  0.00     0.009 A 
ENDBRANCH  30  31
ENDBRANCH   1  30
TORSDOF 5
ENDMDL
