MODEL 1
REMARK VINA RESULT:      -9.7      0.000      0.000
REMARK  9 active torsions:
REMARK  status: ('A' for Active; 'I' for Inactive)
REMARK    1  A    between atoms: C_2  and  C_3 
REMARK    2  A    between atoms: C_4  and  N_5 
REMARK       I    between atoms: N_5  and  C_6 
REMARK    3  A    between atoms: C_6  and  C_7 
REMARK    4  A    between atoms: C_7  and  S_8 
REMARK    5  A    between atoms: S_8  and  C_9 
REMARK    6  A    between atoms: C_13  and  C_14 
REMARK       I    between atoms: C_14  and  N_15 
REMARK    7  A    between atoms: N_15  and  C_16 
REMARK    8  A    between atoms: C_17  and  O_18 
REMARK    9  A    between atoms: C_25  and  C_26 
ROOT
HETATM    1  C   UNL     1       5.563  29.560  56.686  1.00  0.00     0.087 C 
HETATM    2  N   UNL     1       6.815  29.339  57.231  1.00  0.00    -0.353 N 
HETATM    3  C   UNL     1       7.395  30.158  58.184  1.00  0.00     0.019 C 
HETATM    4  C   UNL     1       8.559  29.567  58.941  1.00  0.00     0.069 C 
HETATM    5  C   UNL     1       6.878  31.388  58.398  1.00  0.00     0.046 C 
HETATM    6  C   UNL     1       5.690  31.904  57.584  1.00  0.00     0.104 C 
HETATM    7  C   UNL     1       4.989  30.786  56.798  1.00  0.00     0.055 C 
HETATM    8  C   UNL     1       3.583  31.010  56.267  1.00  0.00     0.019 C 
HETATM    9  N   UNL     1       2.416  31.195  55.828  1.00  0.00    -0.096 N 
HETATM   10  H   UNL     1       7.114  28.367  57.207  1.00  0.00     0.166 HD
ENDROOT
BRANCH   1  11
HETATM   11  S   UNL     1       4.728  28.203  55.937  1.00  0.00    -0.102 SA
BRANCH  11  12
HETATM   12  C   UNL     1       6.010  26.920  56.183  1.00  0.00     0.184 C 
BRANCH  12  13
HETATM   13  C   UNL     1       5.390  25.547  56.400  1.00  0.00     0.231 C 
HETATM   14  N   UNL     1       5.597  24.542  55.484  1.00  0.00    -0.326 N 
HETATM   15  H   UNL     1       4.878  23.835  55.596  1.00  0.00     0.169 HD
HETATM   16  O   UNL     1       4.682  25.289  57.378  1.00  0.00    -0.272 OA
BRANCH  14  17
HETATM   17  C   UNL     1       6.162  24.684  54.206  1.00  0.00     0.041 A 
HETATM   18  C   UNL     1       7.500  24.366  53.909  1.00  0.00    -0.032 A 
HETATM   19  C   UNL     1       7.973  24.618  52.607  1.00  0.00     0.009 A 
HETATM   20  C   UNL     1       7.130  25.131  51.621  1.00  0.00     0.001 A 
HETATM   21  C   UNL     1       5.792  25.377  51.910  1.00  0.00     0.002 A 
HETATM   22  C   UNL     1       5.307  25.140  53.195  1.00  0.00     0.030 A 
BRANCH  18  23
HETATM   23  C   UNL     1       8.430  23.659  54.872  1.00  0.00     0.036 C 
HETATM   24  C   UNL     1       8.688  22.217  54.455  1.00  0.00     0.010 C 
ENDBRANCH  18  23
ENDBRANCH  14  17
ENDBRANCH  12  13
ENDBRANCH  11  12
ENDBRANCH   1  11
BRANCH   6  25
HETATM   25  C   UNL     1       4.706  32.724  58.416  1.00  0.00    -0.044 A 
HETATM   26  C   UNL     1       4.647  34.119  58.250  1.00  0.00     0.008 A 
HETATM   27  C   UNL     1       3.757  34.885  59.002  1.00  0.00     0.001 A 
HETATM   28  C   UNL     1       2.915  34.272  59.927  1.00  0.00     0.000 A 
HETATM   29  C   UNL     1       2.960  32.890  60.099  1.00  0.00     0.001 A 
HETATM   30  C   UNL     1       3.845  32.118  59.347  1.00  0.00     0.008 A 
ENDBRANCH   6  25
BRANCH   5  31
HETATM   31  C   UNL     1       7.359  32.160  59.571  1.00  0.00     0.255 C 
HETATM   32  N   UNL     1       6.541  32.052  60.666  1.00  0.00    -0.321 N 
HETATM   33  H   UNL     1       5.681  31.520  60.588  1.00  0.00     0.169 HD
HETATM   34  O   UNL     1       8.368  32.846  59.453  1.00  0.00    -0.268 OA
BRANCH  32  35
HETATM   35  C   UNL     1       6.716  32.671  61.927  1.00  0.00     0.068 A 
HETATM   36  C   UNL     1       7.518  31.997  62.871  1.00  0.00     0.095 A 
HETATM   37  C   UNL     1       7.725  32.562  64.135  1.00  0.00     0.039 A 
HETATM   38  C   UNL     1       7.138  33.785  64.464  1.00  0.00     0.003 A 
HETATM   39  C   UNL     1       6.347  34.452  63.533  1.00  0.00     0.002 A 
HETATM   40  C   UNL     1       6.139  33.898  62.268  1.00  0.00     0.032 A 
BRANCH  36  41
HETATM   41  O   UNL     1       8.045  30.797  62.450  1.00  0.00    -0.354 OA
HETATM   42  C   UNL     1       9.447  30.767  62.203  1.00  0.00     0.210 C 
ENDBRANCH  36  41
ENDBRANCH  32  35
ENDBRANCH   5  31
TORSDOF 9
ENDMDL
MODEL 2
REMARK VINA RESULT:      -9.7      1.346      2.132
REMARK  9 active torsions:
REMARK  status: ('A' for Active; 'I' for Inactive)
REMARK    1  A    between atoms: C_2  and  C_3 
REMARK    2  A    between atoms: C_4  and  N_5 
REMARK       I    between atoms: N_5  and  C_6 
REMARK    3  A    between atoms: C_6  and  C_7 
REMARK    4  A    between atoms: C_7  and  S_8 
REMARK    5  A    between atoms: S_8  and  C_9 
REMARK    6  A    between atoms: C_13  and  C_14 
REMARK       I    between atoms: C_14  and  N_15 
REMARK    7  A    between atoms: N_15  and  C_16 
REMARK    8  A    between atoms: C_17  and  O_18 
REMARK    9  A    between atoms: C_25  and  C_26 
ROOT
HETATM    1  C   UNL     1       5.211  29.654  56.453  1.00  0.00     0.087 C 
HETATM    2  N   UNL     1       6.439  29.307  56.987  1.00  0.00    -0.353 N 
HETATM    3  C   UNL     1       7.098  30.052  57.948  1.00  0.00     0.019 C 
HETATM    4  C   UNL     1       8.204  29.342  58.689  1.00  0.00     0.069 C 
HETATM    5  C   UNL     1       6.700  31.322  58.184  1.00  0.00     0.046 C 
HETATM    6  C   UNL     1       5.562  31.960  57.385  1.00  0.00     0.104 C 
HETATM    7  C   UNL     1       4.756  30.926  56.586  1.00  0.00     0.055 C 
HETATM    8  C   UNL     1       3.374  31.289  56.068  1.00  0.00     0.019 C 
HETATM    9  N   UNL     1       2.228  31.591  55.638  1.00  0.00    -0.096 N 
HETATM   10  H   UNL     1       6.645  28.311  56.946  1.00  0.00     0.166 HD
ENDROOT
BRANCH   1  11
HETATM   11  S   UNL     1       4.248  28.393  55.688  1.00  0.00    -0.102 SA
BRANCH  11  12
HETATM   12  C   UNL     1       5.497  27.054  55.685  1.00  0.00     0.184 C 
BRANCH  12  13
HETATM   13  C   UNL     1       6.334  27.076  54.415  1.00  0.00     0.231 C 
HETATM   14  N   UNL     1       7.217  26.054  54.151  1.00  0.00    -0.326 N 
HETATM   15  H   UNL     1       7.904  26.373  53.475  1.00  0.00     0.169 HD
HETATM   16  O   UNL     1       6.266  27.995  53.594  1.00  0.00    -0.272 OA
BRANCH  14  17
HETATM   17  C   UNL     1       7.620  25.050  55.048  1.00  0.00     0.041 A 
HETATM   18  C   UNL     1       7.560  23.677  54.751  1.00  0.00    -0.032 A 
HETATM   19  C   UNL     1       7.924  22.760  55.756  1.00  0.00     0.009 A 
HETATM   20  C   UNL     1       8.372  23.198  57.003  1.00  0.00     0.001 A 
HETATM   21  C   UNL     1       8.491  24.559  57.259  1.00  0.00     0.002 A 
HETATM   22  C   UNL     1       8.130  25.482  56.279  1.00  0.00     0.030 A 
BRANCH  18  23
HETATM   23  C   UNL     1       7.241  23.126  53.378  1.00  0.00     0.036 C 
HETATM   24  C   UNL     1       8.031  21.858  53.077  1.00  0.00     0.010 C 
ENDBRANCH  18  23
ENDBRANCH  14  17
ENDBRANCH  12  13
ENDBRANCH  11  12
ENDBRANCH   1  11
BRANCH   6  25
HETATM   25  C   UNL     1       4.664  32.856  58.236  1.00  0.00    -0.044 A 
HETATM   26  C   UNL     1       3.839  32.283  59.220  1.00  0.00     0.008 A 
HETATM   27  C   UNL     1       3.011  33.085  60.006  1.00  0.00     0.001 A 
HETATM   28  C   UNL     1       2.994  34.465  59.821  1.00  0.00     0.000 A 
HETATM   29  C   UNL     1       3.809  35.047  58.852  1.00  0.00     0.001 A 
HETATM   30  C   UNL     1       4.643  34.251  58.066  1.00  0.00     0.008 A 
ENDBRANCH   6  25
BRANCH   5  31
HETATM   31  C   UNL     1       7.257  32.026  59.366  1.00  0.00     0.255 C 
HETATM   32  N   UNL     1       6.456  31.942  60.477  1.00  0.00    -0.321 N 
HETATM   33  H   UNL     1       5.561  31.471  60.404  1.00  0.00     0.169 HD
HETATM   34  O   UNL     1       8.307  32.646  59.244  1.00  0.00    -0.268 OA
BRANCH  32  35
HETATM   35  C   UNL     1       6.700  32.512  61.749  1.00  0.00     0.068 A 
HETATM   36  C   UNL     1       7.563  31.810  62.617  1.00  0.00     0.095 A 
HETATM   37  C   UNL     1       7.838  32.326  63.888  1.00  0.00     0.039 A 
HETATM   38  C   UNL     1       7.260  33.528  64.301  1.00  0.00     0.003 A 
HETATM   39  C   UNL     1       6.409  34.222  63.446  1.00  0.00     0.002 A 
HETATM   40  C   UNL     1       6.132  33.717  62.174  1.00  0.00     0.032 A 
BRANCH  36  41
HETATM   41  O   UNL     1       8.076  30.634  62.117  1.00  0.00    -0.354 OA
HETATM   42  C   UNL     1       9.486  30.583  61.928  1.00  0.00     0.210 C 
ENDBRANCH  36  41
ENDBRANCH  32  35
ENDBRANCH   5  31
TORSDOF 9
ENDMDL
MODEL 3
REMARK VINA RESULT:      -9.5      2.327      9.277
REMARK  9 active torsions:
REMARK  status: ('A' for Active; 'I' for Inactive)
REMARK    1  A    between atoms: C_2  and  C_3 
REMARK    2  A    between atoms: C_4  and  N_5 
REMARK       I    between atoms: N_5  and  C_6 
REMARK    3  A    between atoms: C_6  and  C_7 
REMARK    4  A    between atoms: C_7  and  S_8 
REMARK    5  A    between atoms: S_8  and  C_9 
REMARK    6  A    between atoms: C_13  and  C_14 
REMARK       I    between atoms: C_14  and  N_15 
REMARK    7  A    between atoms: N_15  and  C_16 
REMARK    8  A    between atoms: C_17  and  O_18 
REMARK    9  A    between atoms: C_25  and  C_26 
ROOT
HETATM    1  C   UNL     1       5.085  30.516  55.958  1.00  0.00     0.087 C 
HETATM    2  N   UNL     1       5.990  29.787  56.708  1.00  0.00    -0.353 N 
HETATM    3  C   UNL     1       6.624  28.645  56.252  1.00  0.00     0.019 C 
HETATM    4  C   UNL     1       7.845  28.215  57.028  1.00  0.00     0.069 C 
HETATM    5  C   UNL     1       6.148  28.022  55.151  1.00  0.00     0.046 C 
HETATM    6  C   UNL     1       4.904  28.534  54.425  1.00  0.00     0.104 C 
HETATM    7  C   UNL     1       4.507  29.949  54.868  1.00  0.00     0.055 C 
HETATM    8  C   UNL     1       3.571  30.773  53.999  1.00  0.00     0.019 C 
HETATM    9  N   UNL     1       2.795  31.457  53.278  1.00  0.00    -0.096 N 
HETATM   10  H   UNL     1       6.462  30.326  57.431  1.00  0.00     0.166 HD
ENDROOT
BRANCH   1  11
HETATM   11  S   UNL     1       4.785  32.191  56.410  1.00  0.00    -0.102 SA
BRANCH  11  12
HETATM   12  C   UNL     1       5.821  32.261  57.917  1.00  0.00     0.184 C 
BRANCH  12  13
HETATM   13  C   UNL     1       4.990  32.059  59.175  1.00  0.00     0.231 C 
HETATM   14  N   UNL     1       5.606  31.942  60.400  1.00  0.00    -0.326 N 
HETATM   15  H   UNL     1       4.970  31.496  61.052  1.00  0.00     0.169 HD
HETATM   16  O   UNL     1       3.758  31.981  59.148  1.00  0.00    -0.272 OA
BRANCH  14  17
HETATM   17  C   UNL     1       6.982  31.767  60.626  1.00  0.00     0.041 A 
HETATM   18  C   UNL     1       7.683  32.403  61.666  1.00  0.00    -0.032 A 
HETATM   19  C   UNL     1       9.075  32.206  61.750  1.00  0.00     0.009 A 
HETATM   20  C   UNL     1       9.740  31.370  60.852  1.00  0.00     0.001 A 
HETATM   21  C   UNL     1       9.023  30.694  59.872  1.00  0.00     0.002 A 
HETATM   22  C   UNL     1       7.646  30.881  59.768  1.00  0.00     0.030 A 
BRANCH  18  23
HETATM   23  C   UNL     1       7.016  33.192  62.772  1.00  0.00     0.036 C 
HETATM   24  C   UNL     1       7.757  33.053  64.095  1.00  0.00     0.010 C 
ENDBRANCH  18  23
ENDBRANCH  14  17
ENDBRANCH  12  13
ENDBRANCH  11  12
ENDBRANCH   1  11
BRANCH   6  25
HETATM   25  C   UNL     1       5.009  28.416  52.905  1.00  0.00    -0.044 A 
HETATM   26  C   UNL     1       4.537  27.259  52.261  1.00  0.00     0.008 A 
HETATM   27  C   UNL     1       4.625  27.132  50.875  1.00  0.00     0.001 A 
HETATM   28  C   UNL     1       5.184  28.156  50.114  1.00  0.00     0.000 A 
HETATM   29  C   UNL     1       5.652  29.310  50.738  1.00  0.00     0.001 A 
HETATM   30  C   UNL     1       5.563  29.444  52.124  1.00  0.00     0.008 A 
ENDBRANCH   6  25
BRANCH   5  31
HETATM   31  C   UNL     1       6.967  26.944  54.544  1.00  0.00     0.255 C 
HETATM   32  N   UNL     1       6.553  25.683  54.893  1.00  0.00    -0.321 N 
HETATM   33  H   UNL     1       5.785  25.582  55.548  1.00  0.00     0.169 HD
HETATM   34  O   UNL     1       7.938  27.251  53.862  1.00  0.00    -0.268 OA
BRANCH  32  35
HETATM   35  C   UNL     1       7.127  24.454  54.491  1.00  0.00     0.068 A 
HETATM   36  C   UNL     1       7.700  23.650  55.499  1.00  0.00     0.095 A 
HETATM   37  C   UNL     1       8.285  22.424  55.158  1.00  0.00     0.039 A 
HETATM   38  C   UNL     1       8.306  21.999  53.829  1.00  0.00     0.003 A 
HETATM   39  C   UNL     1       7.741  22.791  52.834  1.00  0.00     0.002 A 
HETATM   40  C   UNL     1       7.151  24.013  53.165  1.00  0.00     0.032 A 
BRANCH  36  41
HETATM   41  O   UNL     1       7.632  24.161  56.775  1.00  0.00    -0.354 OA
HETATM   42  C   UNL     1       8.867  24.518  57.386  1.00  0.00     0.210 C 
ENDBRANCH  36  41
ENDBRANCH  32  35
ENDBRANCH   5  31
TORSDOF 9
ENDMDL
MODEL 4
REMARK VINA RESULT:      -9.4      3.339     10.644
REMARK  9 active torsions:
REMARK  status: ('A' for Active; 'I' for Inactive)
REMARK    1  A    between atoms: C_2  and  C_3 
REMARK    2  A    between atoms: C_4  and  N_5 
REMARK       I    between atoms: N_5  and  C_6 
REMARK    3  A    between atoms: C_6  and  C_7 
REMARK    4  A    between atoms: C_7  and  S_8 
REMARK    5  A    between atoms: S_8  and  C_9 
REMARK    6  A    between atoms: C_13  and  C_14 
REMARK       I    between atoms: C_14  and  N_15 
REMARK    7  A    between atoms: N_15  and  C_16 
REMARK    8  A    between atoms: C_17  and  O_18 
REMARK    9  A    between atoms: C_25  and  C_26 
ROOT
HETATM    1  C   UNL     1       6.435  29.569  56.078  1.00  0.00     0.087 C 
HETATM    2  N   UNL     1       5.474  30.229  55.333  1.00  0.00    -0.353 N 
HETATM    3  C   UNL     1       4.923  29.724  54.168  1.00  0.00     0.019 C 
HETATM    4  C   UNL     1       3.637  30.369  53.713  1.00  0.00     0.069 C 
HETATM    5  C   UNL     1       5.534  28.691  53.545  1.00  0.00     0.046 C 
HETATM    6  C   UNL     1       6.836  28.096  54.083  1.00  0.00     0.104 C 
HETATM    7  C   UNL     1       7.144  28.558  55.514  1.00  0.00     0.055 C 
HETATM    8  C   UNL     1       8.146  27.783  56.354  1.00  0.00     0.019 C 
HETATM    9  N   UNL     1       8.977  27.140  57.050  1.00  0.00    -0.096 N 
HETATM   10  H   UNL     1       4.911  30.887  55.868  1.00  0.00     0.166 HD
ENDROOT
BRANCH   1  11
HETATM   11  S   UNL     1       6.639  30.026  57.766  1.00  0.00    -0.102 SA
BRANCH  11  12
HETATM   12  C   UNL     1       5.094  30.983  57.984  1.00  0.00     0.184 C 
BRANCH  12  13
HETATM   13  C   UNL     1       5.346  32.479  57.872  1.00  0.00     0.231 C 
HETATM   14  N   UNL     1       5.741  33.199  58.976  1.00  0.00    -0.326 N 
HETATM   15  H   UNL     1       5.546  34.182  58.821  1.00  0.00     0.169 HD
HETATM   16  O   UNL     1       5.199  33.097  56.813  1.00  0.00    -0.272 OA
BRANCH  14  17
HETATM   17  C   UNL     1       5.738  32.748  60.307  1.00  0.00     0.041 A 
HETATM   18  C   UNL     1       6.887  32.275  60.967  1.00  0.00    -0.032 A 
HETATM   19  C   UNL     1       6.747  31.782  62.279  1.00  0.00     0.009 A 
HETATM   20  C   UNL     1       5.512  31.799  62.928  1.00  0.00     0.001 A 
HETATM   21  C   UNL     1       4.399  32.333  62.288  1.00  0.00     0.002 A 
HETATM   22  C   UNL     1       4.516  32.820  60.987  1.00  0.00     0.030 A 
BRANCH  18  23
HETATM   23  C   UNL     1       8.285  32.370  60.396  1.00  0.00     0.036 C 
HETATM   24  C   UNL     1       9.343  31.961  61.413  1.00  0.00     0.010 C 
ENDBRANCH  18  23
ENDBRANCH  14  17
ENDBRANCH  12  13
ENDBRANCH  11  12
ENDBRANCH   1  11
BRANCH   6  25
HETATM   25  C   UNL     1       6.901  26.576  53.943  1.00  0.00    -0.044 A 
HETATM   26  C   UNL     1       7.717  26.002  52.953  1.00  0.00     0.008 A 
HETATM   27  C   UNL     1       7.788  24.616  52.809  1.00  0.00     0.001 A 
HETATM   28  C   UNL     1       7.048  23.787  53.648  1.00  0.00     0.000 A 
HETATM   29  C   UNL     1       6.237  24.343  54.636  1.00  0.00     0.001 A 
HETATM   30  C   UNL     1       6.165  25.728  54.788  1.00  0.00     0.008 A 
ENDBRANCH   6  25
BRANCH   5  31
HETATM   31  C   UNL     1       4.815  28.016  52.436  1.00  0.00     0.255 C 
HETATM   32  N   UNL     1       5.268  28.379  51.193  1.00  0.00    -0.321 N 
HETATM   33  H   UNL     1       5.992  29.085  51.120  1.00  0.00     0.169 HD
HETATM   34  O   UNL     1       3.880  27.270  52.705  1.00  0.00    -0.268 OA
BRANCH  32  35
HETATM   35  C   UNL     1       4.786  27.924  49.943  1.00  0.00     0.068 A 
HETATM   36  C   UNL     1       4.315  28.899  49.039  1.00  0.00     0.095 A 
HETATM   37  C   UNL     1       3.825  28.506  47.788  1.00  0.00     0.039 A 
HETATM   38  C   UNL     1       3.797  27.155  47.435  1.00  0.00     0.003 A 
HETATM   39  C   UNL     1       4.262  26.193  48.325  1.00  0.00     0.002 A 
HETATM   40  C   UNL     1       4.757  26.576  49.574  1.00  0.00     0.032 A 
BRANCH  36  41
HETATM   41  O   UNL     1       4.380  30.200  49.484  1.00  0.00    -0.354 OA
HETATM   42  C   UNL     1       5.156  31.103  48.705  1.00  0.00     0.210 C 
ENDBRANCH  36  41
ENDBRANCH  32  35
ENDBRANCH   5  31
TORSDOF 9
ENDMDL
MODEL 5
REMARK VINA RESULT:      -9.3      3.502     10.611
REMARK  9 active torsions:
REMARK  status: ('A' for Active; 'I' for Inactive)
REMARK    1  A    between atoms: C_2  and  C_3 
REMARK    2  A    between atoms: C_4  and  N_5 
REMARK       I    between atoms: N_5  and  C_6 
REMARK    3  A    between atoms: C_6  and  C_7 
REMARK    4  A    between atoms: C_7  and  S_8 
REMARK    5  A    between atoms: S_8  and  C_9 
REMARK    6  A    between atoms: C_13  and  C_14 
REMARK       I    between atoms: C_14  and  N_15 
REMARK    7  A    between atoms: N_15  and  C_16 
REMARK    8  A    between atoms: C_17  and  O_18 
REMARK    9  A    between atoms: C_25  and  C_26 
ROOT
HETATM    1  C   UNL     1       5.314  29.246  55.571  1.00  0.00     0.087 C 
HETATM    2  N   UNL     1       4.774  30.155  54.680  1.00  0.00    -0.353 N 
HETATM    3  C   UNL     1       4.744  29.965  53.310  1.00  0.00     0.019 C 
HETATM    4  C   UNL     1       3.788  30.844  52.543  1.00  0.00     0.069 C 
HETATM    5  C   UNL     1       5.524  29.007  52.761  1.00  0.00     0.046 C 
HETATM    6  C   UNL     1       6.462  28.158  53.619  1.00  0.00     0.104 C 
HETATM    7  C   UNL     1       6.160  28.284  55.119  1.00  0.00     0.055 C 
HETATM    8  C   UNL     1       6.694  27.238  56.084  1.00  0.00     0.019 C 
HETATM    9  N   UNL     1       7.136  26.370  56.884  1.00  0.00    -0.096 N 
HETATM   10  H   UNL     1       4.062  30.761  55.083  1.00  0.00     0.166 HD
ENDROOT
BRANCH   1  11
HETATM   11  S   UNL     1       4.809  29.330  57.256  1.00  0.00    -0.102 SA
BRANCH  11  12
HETATM   12  C   UNL     1       6.287  30.159  57.948  1.00  0.00     0.184 C 
BRANCH  12  13
HETATM   13  C   UNL     1       6.122  31.671  57.962  1.00  0.00     0.231 C 
HETATM   14  N   UNL     1       6.778  32.429  58.905  1.00  0.00    -0.326 N 
HETATM   15  H   UNL     1       6.319  33.331  58.986  1.00  0.00     0.169 HD
HETATM   16  O   UNL     1       5.400  32.265  57.156  1.00  0.00    -0.272 OA
BRANCH  14  17
HETATM   17  C   UNL     1       7.448  31.947  60.042  1.00  0.00     0.041 A 
HETATM   18  C   UNL     1       8.793  31.536  60.033  1.00  0.00    -0.032 A 
HETATM   19  C   UNL     1       9.336  31.003  61.218  1.00  0.00     0.009 A 
HETATM   20  C   UNL     1       8.576  30.921  62.386  1.00  0.00     0.001 A 
HETATM   21  C   UNL     1       7.269  31.395  62.398  1.00  0.00     0.002 A 
HETATM   22  C   UNL     1       6.712  31.920  61.233  1.00  0.00     0.030 A 
BRANCH  18  23
HETATM   23  C   UNL     1       9.727  31.740  58.860  1.00  0.00     0.036 C 
HETATM   24  C   UNL     1       9.991  30.439  58.112  1.00  0.00     0.010 C 
ENDBRANCH  18  23
ENDBRANCH  14  17
ENDBRANCH  12  13
ENDBRANCH  11  12
ENDBRANCH   1  11
BRANCH   6  25
HETATM   25  C   UNL     1       6.529  26.699  53.168  1.00  0.00    -0.044 A 
HETATM   26  C   UNL     1       7.733  26.181  52.661  1.00  0.00     0.008 A 
HETATM   27  C   UNL     1       7.814  24.853  52.243  1.00  0.00     0.001 A 
HETATM   28  C   UNL     1       6.697  24.026  52.324  1.00  0.00     0.000 A 
HETATM   29  C   UNL     1       5.497  24.525  52.828  1.00  0.00     0.001 A 
HETATM   30  C   UNL     1       5.412  25.851  53.252  1.00  0.00     0.008 A 
ENDBRANCH   6  25
BRANCH   5  31
HETATM   31  C   UNL     1       5.312  28.660  51.333  1.00  0.00     0.255 C 
HETATM   32  N   UNL     1       4.180  27.916  51.116  1.00  0.00    -0.321 N 
HETATM   33  H   UNL     1       3.621  27.628  51.911  1.00  0.00     0.169 HD
HETATM   34  O   UNL     1       6.157  28.998  50.512  1.00  0.00    -0.268 OA
BRANCH  32  35
HETATM   35  C   UNL     1       3.710  27.422  49.876  1.00  0.00     0.068 A 
HETATM   36  C   UNL     1       2.576  28.050  49.320  1.00  0.00     0.095 A 
HETATM   37  C   UNL     1       2.065  27.601  48.096  1.00  0.00     0.039 A 
HETATM   38  C   UNL     1       2.671  26.535  47.428  1.00  0.00     0.003 A 
HETATM   39  C   UNL     1       3.790  25.915  47.976  1.00  0.00     0.002 A 
HETATM   40  C   UNL     1       4.309  26.359  49.194  1.00  0.00     0.032 A 
BRANCH  36  41
HETATM   41  O   UNL     1       2.051  29.086  50.058  1.00  0.00    -0.354 OA
HETATM   42  C   UNL     1       1.307  30.066  49.343  1.00  0.00     0.210 C 
ENDBRANCH  36  41
ENDBRANCH  32  35
ENDBRANCH   5  31
TORSDOF 9
ENDMDL
MODEL 6
REMARK VINA RESULT:      -9.2      5.149      9.531
REMARK  9 active torsions:
REMARK  status: ('A' for Active; 'I' for Inactive)
REMARK    1  A    between atoms: C_2  and  C_3 
REMARK    2  A    between atoms: C_4  and  N_5 
REMARK       I    between atoms: N_5  and  C_6 
REMARK    3  A    between atoms: C_6  and  C_7 
REMARK    4  A    between atoms: C_7  and  S_8 
REMARK    5  A    between atoms: S_8  and  C_9 
REMARK    6  A    between atoms: C_13  and  C_14 
REMARK       I    between atoms: C_14  and  N_15 
REMARK    7  A    between atoms: N_15  and  C_16 
REMARK    8  A    between atoms: C_17  and  O_18 
REMARK    9  A    between atoms: C_25  and  C_26 
ROOT
HETATM    1  C   UNL     1       5.473  28.123  54.123  1.00  0.00     0.087 C 
HETATM    2  N   UNL     1       5.415  27.063  53.236  1.00  0.00    -0.353 N 
HETATM    3  C   UNL     1       4.878  27.153  51.964  1.00  0.00     0.019 C 
HETATM    4  C   UNL     1       5.247  26.043  51.012  1.00  0.00     0.069 C 
HETATM    5  C   UNL     1       4.106  28.217  51.649  1.00  0.00     0.046 C 
HETATM    6  C   UNL     1       3.787  29.301  52.680  1.00  0.00     0.104 C 
HETATM    7  C   UNL     1       4.686  29.211  53.922  1.00  0.00     0.055 C 
HETATM    8  C   UNL     1       4.803  30.407  54.852  1.00  0.00     0.019 C 
HETATM    9  N   UNL     1       4.901  31.399  55.623  1.00  0.00    -0.096 N 
HETATM   10  H   UNL     1       6.121  26.347  53.395  1.00  0.00     0.166 HD
ENDROOT
BRANCH   1  11
HETATM   11  S   UNL     1       6.638  28.043  55.441  1.00  0.00    -0.102 SA
BRANCH  11  12
HETATM   12  C   UNL     1       6.372  26.303  55.942  1.00  0.00     0.184 C 
BRANCH  12  13
HETATM   13  C   UNL     1       7.520  25.788  56.797  1.00  0.00     0.231 C 
HETATM   14  N   UNL     1       8.348  24.798  56.319  1.00  0.00    -0.326 N 
HETATM   15  H   UNL     1       8.823  24.356  57.099  1.00  0.00     0.169 HD
HETATM   16  O   UNL     1       7.744  26.218  57.932  1.00  0.00    -0.272 OA
BRANCH  14  17
HETATM   17  C   UNL     1       8.134  24.016  55.173  1.00  0.00     0.041 A 
HETATM   18  C   UNL     1       8.065  22.611  55.195  1.00  0.00    -0.032 A 
HETATM   19  C   UNL     1       7.918  21.930  53.970  1.00  0.00     0.009 A 
HETATM   20  C   UNL     1       7.801  22.628  52.767  1.00  0.00     0.001 A 
HETATM   21  C   UNL     1       7.802  24.018  52.769  1.00  0.00     0.002 A 
HETATM   22  C   UNL     1       7.953  24.710  53.970  1.00  0.00     0.030 A 
BRANCH  18  23
HETATM   23  C   UNL     1       8.022  21.790  56.466  1.00  0.00     0.036 C 
HETATM   24  C   UNL     1       8.022  20.295  56.176  1.00  0.00     0.010 C 
ENDBRANCH  18  23
ENDBRANCH  14  17
ENDBRANCH  12  13
ENDBRANCH  11  12
ENDBRANCH   1  11
BRANCH   6  25
HETATM   25  C   UNL     1       3.772  30.707  52.083  1.00  0.00    -0.044 A 
HETATM   26  C   UNL     1       2.579  31.452  52.085  1.00  0.00     0.008 A 
HETATM   27  C   UNL     1       2.545  32.737  51.543  1.00  0.00     0.001 A 
HETATM   28  C   UNL     1       3.696  33.295  50.995  1.00  0.00     0.000 A 
HETATM   29  C   UNL     1       4.886  32.570  50.990  1.00  0.00     0.001 A 
HETATM   30  C   UNL     1       4.928  31.286  51.533  1.00  0.00     0.008 A 
ENDBRANCH   6  25
BRANCH   5  31
HETATM   31  C   UNL     1       3.730  28.418  50.227  1.00  0.00     0.255 C 
HETATM   32  N   UNL     1       2.396  28.213  49.982  1.00  0.00    -0.321 N 
HETATM   33  H   UNL     1       1.798  27.907  50.742  1.00  0.00     0.169 HD
HETATM   34  O   UNL     1       4.611  28.677  49.414  1.00  0.00    -0.268 OA
BRANCH  32  35
HETATM   35  C   UNL     1       1.732  28.314  48.737  1.00  0.00     0.068 A 
HETATM   36  C   UNL     1       1.749  27.177  47.902  1.00  0.00     0.095 A 
HETATM   37  C   UNL     1       1.109  27.221  46.658  1.00  0.00     0.039 A 
HETATM   38  C   UNL     1       0.460  28.384  46.240  1.00  0.00     0.003 A 
HETATM   39  C   UNL     1       0.442  29.506  47.062  1.00  0.00     0.002 A 
HETATM   40  C   UNL     1       1.074  29.470  48.307  1.00  0.00     0.032 A 
BRANCH  36  41
HETATM   41  O   UNL     1       2.419  26.084  48.404  1.00  0.00    -0.354 OA
HETATM   42  C   UNL     1       3.217  25.347  47.484  1.00  0.00     0.210 C 
ENDBRANCH  36  41
ENDBRANCH  32  35
ENDBRANCH   5  31
TORSDOF 9
ENDMDL
MODEL 7
REMARK VINA RESULT:      -8.9      2.335      9.671
REMARK  9 active torsions:
REMARK  status: ('A' for Active; 'I' for Inactive)
REMARK    1  A    between atoms: C_2  and  C_3 
REMARK    2  A    between atoms: C_4  and  N_5 
REMARK       I    between atoms: N_5  and  C_6 
REMARK    3  A    between atoms: C_6  and  C_7 
REMARK    4  A    between atoms: C_7  and  S_8 
REMARK    5  A    between atoms: S_8  and  C_9 
REMARK    6  A    between atoms: C_13  and  C_14 
REMARK       I    between atoms: C_14  and  N_15 
REMARK    7  A    between atoms: N_15  and  C_16 
REMARK    8  A    between atoms: C_17  and  O_18 
REMARK    9  A    between atoms: C_25  and  C_26 
ROOT
HETATM    1  C   UNL     1       4.438  30.977  57.514  1.00  0.00     0.087 C 
HETATM    2  N   UNL     1       5.464  30.209  58.035  1.00  0.00    -0.353 N 
HETATM    3  C   UNL     1       6.084  29.183  57.344  1.00  0.00     0.019 C 
HETATM    4  C   UNL     1       7.412  28.726  57.895  1.00  0.00     0.069 C 
HETATM    5  C   UNL     1       5.498  28.691  56.230  1.00  0.00     0.046 C 
HETATM    6  C   UNL     1       4.149  29.220  55.742  1.00  0.00     0.104 C 
HETATM    7  C   UNL     1       3.750  30.533  56.431  1.00  0.00     0.055 C 
HETATM    8  C   UNL     1       2.675  31.410  55.811  1.00  0.00     0.019 C 
HETATM    9  N   UNL     1       1.784  32.137  55.296  1.00  0.00    -0.096 N 
HETATM   10  H   UNL     1       6.001  30.671  58.766  1.00  0.00     0.166 HD
ENDROOT
BRANCH   1  11
HETATM   11  S   UNL     1       4.126  32.551  58.238  1.00  0.00    -0.102 SA
BRANCH  11  12
HETATM   12  C   UNL     1       4.683  32.188  59.943  1.00  0.00     0.184 C 
BRANCH  12  13
HETATM   13  C   UNL     1       6.096  32.697  60.188  1.00  0.00     0.231 C 
HETATM   14  N   UNL     1       6.350  33.557  61.231  1.00  0.00    -0.326 N 
HETATM   15  H   UNL     1       7.224  34.042  61.059  1.00  0.00     0.169 HD
HETATM   16  O   UNL     1       7.048  32.377  59.470  1.00  0.00    -0.272 OA
BRANCH  14  17
HETATM   17  C   UNL     1       5.391  34.225  62.012  1.00  0.00     0.041 A 
HETATM   18  C   UNL     1       5.097  33.878  63.343  1.00  0.00    -0.032 A 
HETATM   19  C   UNL     1       4.065  34.573  64.001  1.00  0.00     0.009 A 
HETATM   20  C   UNL     1       3.376  35.610  63.369  1.00  0.00     0.001 A 
HETATM   21  C   UNL     1       3.724  35.987  62.077  1.00  0.00     0.002 A 
HETATM   22  C   UNL     1       4.738  35.306  61.406  1.00  0.00     0.030 A 
BRANCH  18  23
HETATM   23  C   UNL     1       5.901  32.882  64.150  1.00  0.00     0.036 C 
HETATM   24  C   UNL     1       7.118  33.528  64.799  1.00  0.00     0.010 C 
ENDBRANCH  18  23
ENDBRANCH  14  17
ENDBRANCH  12  13
ENDBRANCH  11  12
ENDBRANCH   1  11
BRANCH   6  25
HETATM   25  C   UNL     1       4.062  29.321  54.220  1.00  0.00    -0.044 A 
HETATM   26  C   UNL     1       3.553  28.241  53.478  1.00  0.00     0.008 A 
HETATM   27  C   UNL     1       3.467  28.314  52.087  1.00  0.00     0.001 A 
HETATM   28  C   UNL     1       3.888  29.462  51.420  1.00  0.00     0.000 A 
HETATM   29  C   UNL     1       4.392  30.541  52.144  1.00  0.00     0.001 A 
HETATM   30  C   UNL     1       4.476  30.476  53.534  1.00  0.00     0.008 A 
ENDBRANCH   6  25
BRANCH   5  31
HETATM   31  C   UNL     1       6.279  27.759  55.378  1.00  0.00     0.255 C 
HETATM   32  N   UNL     1       5.899  26.448  55.514  1.00  0.00    -0.321 N 
HETATM   33  H   UNL     1       5.181  26.212  56.190  1.00  0.00     0.169 HD
HETATM   34  O   UNL     1       7.196  28.208  54.699  1.00  0.00    -0.268 OA
BRANCH  32  35
HETATM   35  C   UNL     1       6.452  25.327  54.852  1.00  0.00     0.068 A 
HETATM   36  C   UNL     1       7.168  24.400  55.639  1.00  0.00     0.095 A 
HETATM   37  C   UNL     1       7.738  23.272  55.037  1.00  0.00     0.039 A 
HETATM   38  C   UNL     1       7.604  23.065  53.663  1.00  0.00     0.003 A 
HETATM   39  C   UNL     1       6.898  23.977  52.885  1.00  0.00     0.002 A 
HETATM   40  C   UNL     1       6.322  25.103  53.478  1.00  0.00     0.032 A 
BRANCH  36  41
HETATM   41  O   UNL     1       7.245  24.699  56.981  1.00  0.00    -0.354 OA
HETATM   42  C   UNL     1       8.544  24.961  57.502  1.00  0.00     0.210 C 
ENDBRANCH  36  41
ENDBRANCH  32  35
ENDBRANCH   5  31
TORSDOF 9
ENDMDL
MODEL 8
REMARK VINA RESULT:      -8.9      3.246     10.745
REMARK  9 active torsions:
REMARK  status: ('A' for Active; 'I' for Inactive)
REMARK    1  A    between atoms: C_2  and  C_3 
REMARK    2  A    between atoms: C_4  and  N_5 
REMARK       I    between atoms: N_5  and  C_6 
REMARK    3  A    between atoms: C_6  and  C_7 
REMARK    4  A    between atoms: C_7  and  S_8 
REMARK    5  A    between atoms: S_8  and  C_9 
REMARK    6  A    between atoms: C_13  and  C_14 
REMARK       I    between atoms: C_14  and  N_15 
REMARK    7  A    between atoms: N_15  and  C_16 
REMARK    8  A    between atoms: C_17  and  O_18 
REMARK    9  A    between atoms: C_25  and  C_26 
ROOT
HETATM    1  C   UNL     1       6.219  30.149  56.279  1.00  0.00     0.087 C 
HETATM    2  N   UNL     1       5.198  30.722  55.542  1.00  0.00    -0.353 N 
HETATM    3  C   UNL     1       4.604  30.116  54.450  1.00  0.00     0.019 C 
HETATM    4  C   UNL     1       3.274  30.686  54.020  1.00  0.00     0.069 C 
HETATM    5  C   UNL     1       5.214  29.057  53.871  1.00  0.00     0.046 C 
HETATM    6  C   UNL     1       6.562  28.543  54.378  1.00  0.00     0.104 C 
HETATM    7  C   UNL     1       6.930  29.119  55.752  1.00  0.00     0.055 C 
HETATM    8  C   UNL     1       8.001  28.439  56.590  1.00  0.00     0.019 C 
HETATM    9  N   UNL     1       8.888  27.875  57.284  1.00  0.00    -0.096 N 
HETATM   10  H   UNL     1       4.643  31.403  56.057  1.00  0.00     0.166 HD
ENDROOT
BRANCH   1  11
HETATM   11  S   UNL     1       6.497  30.737  57.915  1.00  0.00    -0.102 SA
BRANCH  11  12
HETATM   12  C   UNL     1       5.294  32.117  57.923  1.00  0.00     0.184 C 
BRANCH  12  13
HETATM   13  C   UNL     1       3.973  31.700  58.551  1.00  0.00     0.231 C 
HETATM   14  N   UNL     1       3.589  32.221  59.765  1.00  0.00    -0.326 N 
HETATM   15  H   UNL     1       2.887  31.618  60.180  1.00  0.00     0.169 HD
HETATM   16  O   UNL     1       3.213  30.888  58.015  1.00  0.00    -0.272 OA
BRANCH  14  17
HETATM   17  C   UNL     1       4.395  32.965  60.643  1.00  0.00     0.041 A 
HETATM   18  C   UNL     1       4.360  34.368  60.728  1.00  0.00    -0.032 A 
HETATM   19  C   UNL     1       5.267  35.008  61.595  1.00  0.00     0.009 A 
HETATM   20  C   UNL     1       6.151  34.271  62.384  1.00  0.00     0.001 A 
HETATM   21  C   UNL     1       6.128  32.882  62.340  1.00  0.00     0.002 A 
HETATM   22  C   UNL     1       5.242  32.230  61.483  1.00  0.00     0.030 A 
BRANCH  18  23
HETATM   23  C   UNL     1       3.326  35.227  60.032  1.00  0.00     0.036 C 
HETATM   24  C   UNL     1       3.808  35.698  58.665  1.00  0.00     0.010 C 
ENDBRANCH  18  23
ENDBRANCH  14  17
ENDBRANCH  12  13
ENDBRANCH  11  12
ENDBRANCH   1  11
BRANCH   6  25
HETATM   25  C   UNL     1       6.670  27.019  54.347  1.00  0.00    -0.044 A 
HETATM   26  C   UNL     1       5.921  26.249  55.253  1.00  0.00     0.008 A 
HETATM   27  C   UNL     1       6.007  24.856  55.241  1.00  0.00     0.001 A 
HETATM   28  C   UNL     1       6.840  24.216  54.326  1.00  0.00     0.000 A 
HETATM   29  C   UNL     1       7.585  24.967  53.420  1.00  0.00     0.001 A 
HETATM   30  C   UNL     1       7.500  26.359  53.424  1.00  0.00     0.008 A 
ENDBRANCH   6  25
BRANCH   5  31
HETATM   31  C   UNL     1       4.461  28.280  52.856  1.00  0.00     0.255 C 
HETATM   32  N   UNL     1       4.915  28.471  51.576  1.00  0.00    -0.321 N 
HETATM   33  H   UNL     1       5.664  29.135  51.414  1.00  0.00     0.169 HD
HETATM   34  O   UNL     1       3.501  27.609  53.218  1.00  0.00    -0.268 OA
BRANCH  32  35
HETATM   35  C   UNL     1       4.405  27.886  50.393  1.00  0.00     0.068 A 
HETATM   36  C   UNL     1       3.547  28.676  49.599  1.00  0.00     0.095 A 
HETATM   37  C   UNL     1       3.012  28.148  48.419  1.00  0.00     0.039 A 
HETATM   38  C   UNL     1       3.320  26.843  48.028  1.00  0.00     0.003 A 
HETATM   39  C   UNL     1       4.166  26.063  48.809  1.00  0.00     0.002 A 
HETATM   40  C   UNL     1       4.708  26.583  49.986  1.00  0.00     0.032 A 
BRANCH  36  41
HETATM   41  O   UNL     1       3.304  29.945  50.075  1.00  0.00    -0.354 OA
HETATM   42  C   UNL     1       1.961  30.241  50.442  1.00  0.00     0.210 C 
ENDBRANCH  36  41
ENDBRANCH  32  35
ENDBRANCH   5  31
TORSDOF 9
ENDMDL
MODEL 9
REMARK VINA RESULT:      -8.8      4.226      6.822
REMARK  9 active torsions:
REMARK  status: ('A' for Active; 'I' for Inactive)
REMARK    1  A    between atoms: C_2  and  C_3 
REMARK    2  A    between atoms: C_4  and  N_5 
REMARK       I    between atoms: N_5  and  C_6 
REMARK    3  A    between atoms: C_6  and  C_7 
REMARK    4  A    between atoms: C_7  and  S_8 
REMARK    5  A    between atoms: S_8  and  C_9 
REMARK    6  A    between atoms: C_13  and  C_14 
REMARK       I    between atoms: C_14  and  N_15 
REMARK    7  A    between atoms: N_15  and  C_16 
REMARK    8  A    between atoms: C_17  and  O_18 
REMARK    9  A    between atoms: C_25  and  C_26 
ROOT
HETATM    1  C   UNL     1       4.717  29.396  52.709  1.00  0.00     0.087 C 
HETATM    2  N   UNL     1       4.515  30.626  53.310  1.00  0.00    -0.353 N 
HETATM    3  C   UNL     1       4.628  30.845  54.671  1.00  0.00     0.019 C 
HETATM    4  C   UNL     1       4.765  32.286  55.098  1.00  0.00     0.069 C 
HETATM    5  C   UNL     1       4.645  29.786  55.510  1.00  0.00     0.046 C 
HETATM    6  C   UNL     1       4.505  28.356  54.986  1.00  0.00     0.104 C 
HETATM    7  C   UNL     1       4.689  28.268  53.464  1.00  0.00     0.055 C 
HETATM    8  C   UNL     1       4.986  26.924  52.820  1.00  0.00     0.019 C 
HETATM    9  N   UNL     1       5.233  25.810  52.286  1.00  0.00    -0.096 N 
HETATM   10  H   UNL     1       4.671  31.421  52.694  1.00  0.00     0.166 HD
ENDROOT
BRANCH   1  11
HETATM   11  S   UNL     1       5.086  29.360  50.988  1.00  0.00    -0.102 SA
BRANCH  11  12
HETATM   12  C   UNL     1       3.433  29.807  50.340  1.00  0.00     0.184 C 
BRANCH  12  13
HETATM   13  C   UNL     1       3.533  30.486  48.982  1.00  0.00     0.231 C 
HETATM   14  N   UNL     1       3.374  29.752  47.829  1.00  0.00    -0.326 N 
HETATM   15  H   UNL     1       3.784  30.259  47.052  1.00  0.00     0.169 HD
HETATM   16  O   UNL     1       3.766  31.692  48.861  1.00  0.00    -0.272 OA
BRANCH  14  17
HETATM   17  C   UNL     1       3.338  28.351  47.733  1.00  0.00     0.041 A 
HETATM   18  C   UNL     1       2.147  27.612  47.619  1.00  0.00    -0.032 A 
HETATM   19  C   UNL     1       2.233  26.206  47.602  1.00  0.00     0.009 A 
HETATM   20  C   UNL     1       3.468  25.559  47.653  1.00  0.00     0.001 A 
HETATM   21  C   UNL     1       4.641  26.304  47.696  1.00  0.00     0.002 A 
HETATM   22  C   UNL     1       4.576  27.696  47.720  1.00  0.00     0.030 A 
BRANCH  18  23
HETATM   23  C   UNL     1       0.787  28.237  47.397  1.00  0.00     0.036 C 
HETATM   24  C   UNL     1       0.064  27.615  46.209  1.00  0.00     0.010 C 
ENDBRANCH  18  23
ENDBRANCH  14  17
ENDBRANCH  12  13
ENDBRANCH  11  12
ENDBRANCH   1  11
BRANCH   6  25
HETATM   25  C   UNL     1       5.391  27.357  55.730  1.00  0.00    -0.044 A 
HETATM   26  C   UNL     1       6.780  27.361  55.512  1.00  0.00     0.008 A 
HETATM   27  C   UNL     1       7.605  26.456  56.180  1.00  0.00     0.001 A 
HETATM   28  C   UNL     1       7.057  25.539  57.073  1.00  0.00     0.000 A 
HETATM   29  C   UNL     1       5.683  25.526  57.301  1.00  0.00     0.001 A 
HETATM   30  C   UNL     1       4.853  26.431  56.639  1.00  0.00     0.008 A 
ENDBRANCH   6  25
BRANCH   5  31
HETATM   31  C   UNL     1       4.997  30.020  56.933  1.00  0.00     0.255 C 
HETATM   32  N   UNL     1       6.254  30.543  57.104  1.00  0.00    -0.321 N 
HETATM   33  H   UNL     1       6.844  30.681  56.291  1.00  0.00     0.169 HD
HETATM   34  O   UNL     1       4.199  29.686  57.801  1.00  0.00    -0.268 OA
BRANCH  32  35
HETATM   35  C   UNL     1       6.884  30.866  58.329  1.00  0.00     0.068 A 
HETATM   36  C   UNL     1       8.050  30.148  58.664  1.00  0.00     0.095 A 
HETATM   37  C   UNL     1       8.714  30.425  59.865  1.00  0.00     0.039 A 
HETATM   38  C   UNL     1       8.225  31.404  60.731  1.00  0.00     0.003 A 
HETATM   39  C   UNL     1       7.075  32.114  60.401  1.00  0.00     0.002 A 
HETATM   40  C   UNL     1       6.408  31.848  59.203  1.00  0.00     0.032 A 
BRANCH  36  41
HETATM   41  O   UNL     1       8.447  29.201  57.746  1.00  0.00    -0.354 OA
HETATM   42  C   UNL     1       9.722  29.392  57.144  1.00  0.00     0.210 C 
ENDBRANCH  36  41
ENDBRANCH  32  35
ENDBRANCH   5  31
TORSDOF 9
ENDMDL
MODEL 10
REMARK VINA RESULT:      -8.8      2.369      9.580
REMARK  9 active torsions:
REMARK  status: ('A' for Active; 'I' for Inactive)
REMARK    1  A    between atoms: C_2  and  C_3 
REMARK    2  A    between atoms: C_4  and  N_5 
REMARK       I    between atoms: N_5  and  C_6 
REMARK    3  A    between atoms: C_6  and  C_7 
REMARK    4  A    between atoms: C_7  and  S_8 
REMARK    5  A    between atoms: S_8  and  C_9 
REMARK    6  A    between atoms: C_13  and  C_14 
REMARK       I    between atoms: C_14  and  N_15 
REMARK    7  A    between atoms: N_15  and  C_16 
REMARK    8  A    between atoms: C_17  and  O_18 
REMARK    9  A    between atoms: C_25  and  C_26 
ROOT
HETATM    1  C   UNL     1       4.798  31.101  57.588  1.00  0.00     0.087 C 
HETATM    2  N   UNL     1       5.863  30.423  58.155  1.00  0.00    -0.353 N 
HETATM    3  C   UNL     1       6.500  29.352  57.554  1.00  0.00     0.019 C 
HETATM    4  C   UNL     1       7.857  28.996  58.109  1.00  0.00     0.069 C 
HETATM    5  C   UNL     1       5.902  28.729  56.514  1.00  0.00     0.046 C 
HETATM    6  C   UNL     1       4.523  29.163  56.014  1.00  0.00     0.104 C 
HETATM    7  C   UNL     1       4.098  30.526  56.578  1.00  0.00     0.055 C 
HETATM    8  C   UNL     1       2.977  31.301  55.903  1.00  0.00     0.019 C 
HETATM    9  N   UNL     1       2.048  31.943  55.344  1.00  0.00    -0.096 N 
HETATM   10  H   UNL     1       6.403  30.975  58.819  1.00  0.00     0.166 HD
ENDROOT
BRANCH   1  11
HETATM   11  S   UNL     1       4.450  32.731  58.157  1.00  0.00    -0.102 SA
BRANCH  11  12
HETATM   12  C   UNL     1       5.110  32.578  59.858  1.00  0.00     0.184 C 
BRANCH  12  13
HETATM   13  C   UNL     1       4.092  31.946  60.795  1.00  0.00     0.231 C 
HETATM   14  N   UNL     1       4.307  31.951  62.154  1.00  0.00    -0.326 N 
HETATM   15  H   UNL     1       3.735  31.232  62.585  1.00  0.00     0.169 HD
HETATM   16  O   UNL     1       3.061  31.406  60.384  1.00  0.00    -0.272 OA
BRANCH  14  17
HETATM   17  C   UNL     1       5.503  32.294  62.806  1.00  0.00     0.041 A 
HETATM   18  C   UNL     1       5.584  33.270  63.816  1.00  0.00    -0.032 A 
HETATM   19  C   UNL     1       6.851  33.579  64.346  1.00  0.00     0.009 A 
HETATM   20  C   UNL     1       7.996  32.907  63.915  1.00  0.00     0.001 A 
HETATM   21  C   UNL     1       7.892  31.897  62.966  1.00  0.00     0.002 A 
HETATM   22  C   UNL     1       6.647  31.581  62.424  1.00  0.00     0.030 A 
BRANCH  18  23
HETATM   23  C   UNL     1       4.376  33.926  64.449  1.00  0.00     0.036 C 
HETATM   24  C   UNL     1       4.538  35.438  64.546  1.00  0.00     0.010 C 
ENDBRANCH  18  23
ENDBRANCH  14  17
ENDBRANCH  12  13
ENDBRANCH  11  12
ENDBRANCH   1  11
BRANCH   6  25
HETATM   25  C   UNL     1       4.393  29.104  54.493  1.00  0.00    -0.044 A 
HETATM   26  C   UNL     1       3.541  28.154  53.903  1.00  0.00     0.008 A 
HETATM   27  C   UNL     1       3.410  28.084  52.516  1.00  0.00     0.001 A 
HETATM   28  C   UNL     1       4.126  28.958  51.701  1.00  0.00     0.000 A 
HETATM   29  C   UNL     1       4.972  29.906  52.273  1.00  0.00     0.001 A 
HETATM   30  C   UNL     1       5.103  29.984  53.659  1.00  0.00     0.008 A 
ENDBRANCH   6  25
BRANCH   5  31
HETATM   31  C   UNL     1       6.691  27.741  55.738  1.00  0.00     0.255 C 
HETATM   32  N   UNL     1       6.458  26.442  56.114  1.00  0.00    -0.321 N 
HETATM   33  H   UNL     1       5.831  26.260  56.890  1.00  0.00     0.169 HD
HETATM   34  O   UNL     1       7.495  28.147  54.906  1.00  0.00    -0.268 OA
BRANCH  32  35
HETATM   35  C   UNL     1       7.058  25.278  55.579  1.00  0.00     0.068 A 
HETATM   36  C   UNL     1       6.421  24.672  54.475  1.00  0.00     0.095 A 
HETATM   37  C   UNL     1       6.970  23.517  53.906  1.00  0.00     0.039 A 
HETATM   38  C   UNL     1       8.140  22.962  54.428  1.00  0.00     0.003 A 
HETATM   39  C   UNL     1       8.769  23.558  55.516  1.00  0.00     0.002 A 
HETATM   40  C   UNL     1       8.232  24.714  56.087  1.00  0.00     0.032 A 
BRANCH  36  41
HETATM   41  O   UNL     1       5.273  25.295  54.040  1.00  0.00    -0.354 OA
HETATM   42  C   UNL     1       4.739  24.853  52.797  1.00  0.00     0.210 C 
ENDBRANCH  36  41
ENDBRANCH  32  35
ENDBRANCH   5  31
TORSDOF 9
ENDMDL
