MODEL 1
REMARK VINA RESULT:      -9.5      0.000      0.000
REMARK  5 active torsions:
REMARK  status: ('A' for Active; 'I' for Inactive)
REMARK    1  A    between atoms: O_2  and  C_3 
REMARK    2  A    between atoms: C_4  and  N_5 
REMARK       I    between atoms: N_5  and  C_6 
REMARK    3  A    between atoms: C_6  and  C_7 
REMARK    4  A    between atoms: C_7  and  N_8 
REMARK    5  A    between atoms: N_8  and  C_9 
ROOT
HETATM    1  C   UNL     1       6.228  26.415  56.453  1.00  0.00     0.195 C 
ENDROOT
BRANCH   1   2
HETATM    2  C   UNL     1       7.379  27.060  57.239  1.00  0.00     0.235 C 
HETATM    3  N   UNL     1       7.643  28.353  56.835  1.00  0.00    -0.324 N 
HETATM    4  H   UNL     1       7.046  28.716  56.093  1.00  0.00     0.169 HD
HETATM    5  O   UNL     1       7.931  26.456  58.154  1.00  0.00    -0.272 OA
BRANCH   3   6
HETATM    6  C   UNL     1       8.691  29.203  57.242  1.00  0.00     0.068 A 
HETATM    7  C   UNL     1       8.367  30.265  58.108  1.00  0.00     0.095 A 
HETATM    8  C   UNL     1       9.346  31.190  58.483  1.00  0.00     0.039 A 
HETATM    9  C   UNL     1      10.656  31.042  58.028  1.00  0.00     0.003 A 
HETATM   10  C   UNL     1      10.987  29.973  57.197  1.00  0.00     0.002 A 
HETATM   11  C   UNL     1      10.009  29.056  56.806  1.00  0.00     0.032 A 
BRANCH   7  12
HETATM   12  O   UNL     1       7.059  30.352  58.527  1.00  0.00    -0.354 OA
HETATM   13  C   UNL     1       6.639  31.683  58.819  1.00  0.00     0.210 C 
ENDBRANCH   7  12
ENDBRANCH   3   6
ENDBRANCH   1   2
BRANCH   1  14
HETATM   14  N   UNL     1       6.527  26.252  55.016  1.00  0.00    -0.284 NA
HETATM   15  H   UNL     1       5.763  26.603  54.440  1.00  0.00     0.128 HD
BRANCH  14  16
HETATM   16  C   UNL     1       6.930  24.983  54.556  1.00  0.00     0.009 A 
HETATM   17  C   UNL     1       7.107  23.870  55.389  1.00  0.00     0.035 A 
HETATM   18  C   UNL     1       7.588  22.639  54.901  1.00  0.00    -0.024 A 
HETATM   19  C   UNL     1       7.925  22.519  53.537  1.00  0.00    -0.026 A 
HETATM   20  C   UNL     1       7.744  21.528  55.747  1.00  0.00     0.012 A 
HETATM   21  C   UNL     1       7.790  23.638  52.706  1.00  0.00     0.014 A 
HETATM   22  C   UNL     1       8.400  21.289  53.052  1.00  0.00     0.012 A 
HETATM   23  C   UNL     1       7.317  24.854  53.216  1.00  0.00     0.024 A 
HETATM   24  C   UNL     1       8.544  20.193  53.904  1.00  0.00     0.001 A 
HETATM   25  C   UNL     1       8.219  20.314  55.251  1.00  0.00     0.001 A 
ENDBRANCH  14  16
ENDBRANCH   1  14
TORSDOF 5
ENDMDL
MODEL 2
REMARK VINA RESULT:      -9.2      1.044      2.019
REMARK  5 active torsions:
REMARK  status: ('A' for Active; 'I' for Inactive)
REMARK    1  A    between atoms: O_2  and  C_3 
REMARK    2  A    between atoms: C_4  and  N_5 
REMARK       I    between atoms: N_5  and  C_6 
REMARK    3  A    between atoms: C_6  and  C_7 
REMARK    4  A    between atoms: C_7  and  N_8 
REMARK    5  A    between atoms: N_8  and  C_9 
ROOT
HETATM    1  C   UNL     1       6.487  27.171  56.135  1.00  0.00     0.195 C 
ENDROOT
BRANCH   1   2
HETATM    2  C   UNL     1       7.205  27.886  57.288  1.00  0.00     0.235 C 
HETATM    3  N   UNL     1       7.125  29.261  57.198  1.00  0.00    -0.324 N 
HETATM    4  H   UNL     1       6.598  29.622  56.402  1.00  0.00     0.169 HD
HETATM    5  O   UNL     1       7.731  27.246  58.195  1.00  0.00    -0.272 OA
BRANCH   3   6
HETATM    6  C   UNL     1       7.755  30.232  58.000  1.00  0.00     0.068 A 
HETATM    7  C   UNL     1       9.147  30.385  57.862  1.00  0.00     0.095 A 
HETATM    8  C   UNL     1       9.843  31.276  58.686  1.00  0.00     0.039 A 
HETATM    9  C   UNL     1       9.151  32.041  59.625  1.00  0.00     0.003 A 
HETATM   10  C   UNL     1       7.768  31.916  59.742  1.00  0.00     0.002 A 
HETATM   11  C   UNL     1       7.072  31.016  58.931  1.00  0.00     0.032 A 
BRANCH   7  12
HETATM   12  O   UNL     1       9.770  29.606  56.914  1.00  0.00    -0.354 OA
HETATM   13  C   UNL     1      11.194  29.644  56.986  1.00  0.00     0.210 C 
ENDBRANCH   7  12
ENDBRANCH   3   6
ENDBRANCH   1   2
BRANCH   1  14
HETATM   14  N   UNL     1       7.369  26.902  54.981  1.00  0.00    -0.284 NA
HETATM   15  H   UNL     1       7.165  27.534  54.208  1.00  0.00     0.128 HD
BRANCH  14  16
HETATM   16  C   UNL     1       7.466  25.580  54.506  1.00  0.00     0.009 A 
HETATM   17  C   UNL     1       7.476  24.451  55.336  1.00  0.00     0.035 A 
HETATM   18  C   UNL     1       7.655  23.149  54.827  1.00  0.00    -0.024 A 
HETATM   19  C   UNL     1       7.851  22.969  53.442  1.00  0.00    -0.026 A 
HETATM   20  C   UNL     1       7.646  22.026  55.670  1.00  0.00     0.012 A 
HETATM   21  C   UNL     1       7.884  24.096  52.611  1.00  0.00     0.014 A 
HETATM   22  C   UNL     1       8.025  21.670  52.936  1.00  0.00     0.012 A 
HETATM   23  C   UNL     1       7.712  25.380  53.142  1.00  0.00     0.024 A 
HETATM   24  C   UNL     1       8.008  20.563  53.786  1.00  0.00     0.001 A 
HETATM   25  C   UNL     1       7.821  20.742  55.154  1.00  0.00     0.001 A 
ENDBRANCH  14  16
ENDBRANCH   1  14
TORSDOF 5
ENDMDL
MODEL 3
REMARK VINA RESULT:      -9.1      1.298      1.397
REMARK  5 active torsions:
REMARK  status: ('A' for Active; 'I' for Inactive)
REMARK    1  A    between atoms: O_2  and  C_3 
REMARK    2  A    between atoms: C_4  and  N_5 
REMARK       I    between atoms: N_5  and  C_6 
REMARK    3  A    between atoms: C_6  and  C_7 
REMARK    4  A    between atoms: C_7  and  N_8 
REMARK    5  A    between atoms: N_8  and  C_9 
ROOT
HETATM    1  C   UNL     1       6.825  26.810  54.964  1.00  0.00     0.195 C 
ENDROOT
BRANCH   1   2
HETATM    2  C   UNL     1       7.833  27.946  55.189  1.00  0.00     0.235 C 
HETATM    3  N   UNL     1       8.155  28.121  56.519  1.00  0.00    -0.324 N 
HETATM    4  H   UNL     1       7.705  27.478  57.171  1.00  0.00     0.169 HD
HETATM    5  O   UNL     1       8.306  28.563  54.238  1.00  0.00    -0.272 OA
BRANCH   3   6
HETATM    6  C   UNL     1       8.944  29.129  57.106  1.00  0.00     0.068 A 
HETATM    7  C   UNL     1       8.293  30.066  57.930  1.00  0.00     0.095 A 
HETATM    8  C   UNL     1       9.007  31.137  58.478  1.00  0.00     0.039 A 
HETATM    9  C   UNL     1      10.375  31.259  58.236  1.00  0.00     0.003 A 
HETATM   10  C   UNL     1      11.029  30.314  57.448  1.00  0.00     0.002 A 
HETATM   11  C   UNL     1      10.317  29.252  56.886  1.00  0.00     0.032 A 
BRANCH   7  12
HETATM   12  O   UNL     1       6.944  29.887  58.135  1.00  0.00    -0.354 OA
HETATM   13  C   UNL     1       6.202  31.104  58.157  1.00  0.00     0.210 C 
ENDBRANCH   7  12
ENDBRANCH   3   6
ENDBRANCH   1   2
BRANCH   1  14
HETATM   14  N   UNL     1       7.117  26.004  53.762  1.00  0.00    -0.284 NA
HETATM   15  H   UNL     1       6.401  26.138  53.048  1.00  0.00     0.128 HD
BRANCH  14  16
HETATM   16  C   UNL     1       7.382  24.631  53.923  1.00  0.00     0.009 A 
HETATM   17  C   UNL     1       7.656  24.029  55.159  1.00  0.00     0.035 A 
HETATM   18  C   UNL     1       7.995  22.666  55.269  1.00  0.00    -0.024 A 
HETATM   19  C   UNL     1       8.085  21.879  54.102  1.00  0.00    -0.026 A 
HETATM   20  C   UNL     1       8.250  22.074  56.517  1.00  0.00     0.012 A 
HETATM   21  C   UNL     1       7.853  22.483  52.860  1.00  0.00     0.014 A 
HETATM   22  C   UNL     1       8.419  20.519  54.214  1.00  0.00     0.012 A 
HETATM   23  C   UNL     1       7.526  23.842  52.776  1.00  0.00     0.024 A 
HETATM   24  C   UNL     1       8.664  19.944  55.462  1.00  0.00     0.001 A 
HETATM   25  C   UNL     1       8.582  20.723  56.613  1.00  0.00     0.001 A 
ENDBRANCH  14  16
ENDBRANCH   1  14
TORSDOF 5
ENDMDL
MODEL 4
REMARK VINA RESULT:      -9.1      4.957      7.602
REMARK  5 active torsions:
REMARK  status: ('A' for Active; 'I' for Inactive)
REMARK    1  A    between atoms: O_2  and  C_3 
REMARK    2  A    between atoms: C_4  and  N_5 
REMARK       I    between atoms: N_5  and  C_6 
REMARK    3  A    between atoms: C_6  and  C_7 
REMARK    4  A    between atoms: C_7  and  N_8 
REMARK    5  A    between atoms: N_8  and  C_9 
ROOT
HETATM    1  C   UNL     1       6.541  26.204  51.839  1.00  0.00     0.195 C 
ENDROOT
BRANCH   1   2
HETATM    2  C   UNL     1       5.283  25.852  51.032  1.00  0.00     0.235 C 
HETATM    3  N   UNL     1       5.145  26.621  49.895  1.00  0.00    -0.324 N 
HETATM    4  H   UNL     1       5.886  27.302  49.727  1.00  0.00     0.169 HD
HETATM    5  O   UNL     1       4.545  24.937  51.386  1.00  0.00    -0.272 OA
BRANCH   3   6
HETATM    6  C   UNL     1       4.068  26.661  48.987  1.00  0.00     0.068 A 
HETATM    7  C   UNL     1       3.133  27.703  49.134  1.00  0.00     0.095 A 
HETATM    8  C   UNL     1       2.000  27.752  48.316  1.00  0.00     0.039 A 
HETATM    9  C   UNL     1       1.811  26.785  47.328  1.00  0.00     0.003 A 
HETATM   10  C   UNL     1       2.751  25.771  47.158  1.00  0.00     0.002 A 
HETATM   11  C   UNL     1       3.877  25.710  47.984  1.00  0.00     0.032 A 
BRANCH   7  12
HETATM   12  O   UNL     1       3.379  28.629  50.122  1.00  0.00    -0.354 OA
HETATM   13  C   UNL     1       3.647  29.938  49.626  1.00  0.00     0.210 C 
ENDBRANCH   7  12
ENDBRANCH   3   6
ENDBRANCH   1   2
BRANCH   1  14
HETATM   14  N   UNL     1       7.596  25.174  51.747  1.00  0.00    -0.284 NA
HETATM   15  H   UNL     1       7.485  24.609  50.906  1.00  0.00     0.128 HD
BRANCH  14  16
HETATM   16  C   UNL     1       7.815  24.339  52.860  1.00  0.00     0.009 A 
HETATM   17  C   UNL     1       8.014  22.954  52.770  1.00  0.00     0.035 A 
HETATM   18  C   UNL     1       8.152  22.142  53.912  1.00  0.00    -0.024 A 
HETATM   19  C   UNL     1       8.066  22.728  55.192  1.00  0.00    -0.026 A 
HETATM   20  C   UNL     1       8.368  20.758  53.805  1.00  0.00     0.012 A 
HETATM   21  C   UNL     1       7.826  24.104  55.291  1.00  0.00     0.014 A 
HETATM   22  C   UNL     1       8.207  21.917  56.331  1.00  0.00     0.012 A 
HETATM   23  C   UNL     1       7.685  24.889  54.140  1.00  0.00     0.024 A 
HETATM   24  C   UNL     1       8.428  20.544  56.207  1.00  0.00     0.001 A 
HETATM   25  C   UNL     1       8.505  19.965  54.944  1.00  0.00     0.001 A 
ENDBRANCH  14  16
ENDBRANCH   1  14
TORSDOF 5
ENDMDL
MODEL 5
REMARK VINA RESULT:      -9.0      1.119      1.744
REMARK  5 active torsions:
REMARK  status: ('A' for Active; 'I' for Inactive)
REMARK    1  A    between atoms: O_2  and  C_3 
REMARK    2  A    between atoms: C_4  and  N_5 
REMARK       I    between atoms: N_5  and  C_6 
REMARK    3  A    between atoms: C_6  and  C_7 
REMARK    4  A    between atoms: C_7  and  N_8 
REMARK    5  A    between atoms: N_8  and  C_9 
ROOT
HETATM    1  C   UNL     1       6.169  26.823  55.880  1.00  0.00     0.195 C 
ENDROOT
BRANCH   1   2
HETATM    2  C   UNL     1       7.199  27.960  55.826  1.00  0.00     0.235 C 
HETATM    3  N   UNL     1       7.939  28.067  56.986  1.00  0.00    -0.324 N 
HETATM    4  H   UNL     1       7.724  27.384  57.712  1.00  0.00     0.169 HD
HETATM    5  O   UNL     1       7.338  28.635  54.809  1.00  0.00    -0.272 OA
BRANCH   3   6
HETATM    6  C   UNL     1       8.880  29.054  57.339  1.00  0.00     0.068 A 
HETATM    7  C   UNL     1       8.436  30.115  58.151  1.00  0.00     0.095 A 
HETATM    8  C   UNL     1       9.301  31.166  58.470  1.00  0.00     0.039 A 
HETATM    9  C   UNL     1      10.618  31.149  58.012  1.00  0.00     0.003 A 
HETATM   10  C   UNL     1      11.070  30.084  57.236  1.00  0.00     0.002 A 
HETATM   11  C   UNL     1      10.205  29.039  56.901  1.00  0.00     0.032 A 
BRANCH   7  12
HETATM   12  O   UNL     1       7.127  30.070  58.576  1.00  0.00    -0.354 OA
HETATM   13  C   UNL     1       6.324  31.134  58.067  1.00  0.00     0.210 C 
ENDBRANCH   7  12
ENDBRANCH   3   6
ENDBRANCH   1   2
BRANCH   1  14
HETATM   14  N   UNL     1       6.234  25.926  54.708  1.00  0.00    -0.284 NA
HETATM   15  H   UNL     1       5.311  25.789  54.299  1.00  0.00     0.128 HD
BRANCH  14  16
HETATM   16  C   UNL     1       6.883  24.685  54.850  1.00  0.00     0.009 A 
HETATM   17  C   UNL     1       7.088  23.785  53.794  1.00  0.00     0.035 A 
HETATM   18  C   UNL     1       7.672  22.519  53.992  1.00  0.00    -0.024 A 
HETATM   19  C   UNL     1       8.045  22.125  55.294  1.00  0.00    -0.026 A 
HETATM   20  C   UNL     1       7.885  21.636  52.921  1.00  0.00     0.012 A 
HETATM   21  C   UNL     1       7.807  23.001  56.360  1.00  0.00     0.014 A 
HETATM   22  C   UNL     1       8.631  20.863  55.489  1.00  0.00     0.012 A 
HETATM   23  C   UNL     1       7.218  24.252  56.139  1.00  0.00     0.024 A 
HETATM   24  C   UNL     1       8.842  19.999  54.413  1.00  0.00     0.001 A 
HETATM   25  C   UNL     1       8.466  20.385  53.130  1.00  0.00     0.001 A 
ENDBRANCH  14  16
ENDBRANCH   1  14
TORSDOF 5
ENDMDL
MODEL 6
REMARK VINA RESULT:      -8.7      2.234      7.729
REMARK  5 active torsions:
REMARK  status: ('A' for Active; 'I' for Inactive)
REMARK    1  A    between atoms: O_2  and  C_3 
REMARK    2  A    between atoms: C_4  and  N_5 
REMARK       I    between atoms: N_5  and  C_6 
REMARK    3  A    between atoms: C_6  and  C_7 
REMARK    4  A    between atoms: C_7  and  N_8 
REMARK    5  A    between atoms: N_8  and  C_9 
ROOT
HETATM    1  C   UNL     1       7.012  26.450  53.132  1.00  0.00     0.195 C 
ENDROOT
BRANCH   1   2
HETATM    2  C   UNL     1       6.841  25.015  53.650  1.00  0.00     0.235 C 
HETATM    3  N   UNL     1       8.004  24.276  53.574  1.00  0.00    -0.324 N 
HETATM    4  H   UNL     1       8.818  24.769  53.206  1.00  0.00     0.169 HD
HETATM    5  O   UNL     1       5.770  24.639  54.119  1.00  0.00    -0.272 OA
BRANCH   3   6
HETATM    6  C   UNL     1       8.195  22.907  53.844  1.00  0.00     0.068 A 
HETATM    7  C   UNL     1       8.847  22.565  55.043  1.00  0.00     0.095 A 
HETATM    8  C   UNL     1       9.138  21.228  55.330  1.00  0.00     0.039 A 
HETATM    9  C   UNL     1       8.748  20.224  54.442  1.00  0.00     0.003 A 
HETATM   10  C   UNL     1       8.073  20.556  53.270  1.00  0.00     0.002 A 
HETATM   11  C   UNL     1       7.795  21.893  52.972  1.00  0.00     0.032 A 
BRANCH   7  12
HETATM   12  O   UNL     1       9.200  23.600  55.879  1.00  0.00    -0.354 OA
HETATM   13  C   UNL     1       8.454  23.634  57.094  1.00  0.00     0.210 C 
ENDBRANCH   7  12
ENDBRANCH   3   6
ENDBRANCH   1   2
BRANCH   1  14
HETATM   14  N   UNL     1       6.223  27.439  53.893  1.00  0.00    -0.284 NA
HETATM   15  H   UNL     1       5.780  28.113  53.270  1.00  0.00     0.128 HD
BRANCH  14  16
HETATM   16  C   UNL     1       6.843  28.111  54.964  1.00  0.00     0.009 A 
HETATM   17  C   UNL     1       8.165  28.578  54.932  1.00  0.00     0.035 A 
HETATM   18  C   UNL     1       8.775  29.175  56.052  1.00  0.00    -0.024 A 
HETATM   19  C   UNL     1       8.048  29.292  57.256  1.00  0.00    -0.026 A 
HETATM   20  C   UNL     1      10.094  29.653  55.999  1.00  0.00     0.012 A 
HETATM   21  C   UNL     1       6.742  28.791  57.308  1.00  0.00     0.014 A 
HETATM   22  C   UNL     1       8.657  29.892  58.371  1.00  0.00     0.012 A 
HETATM   23  C   UNL     1       6.160  28.194  56.183  1.00  0.00     0.024 A 
HETATM   24  C   UNL     1       9.968  30.367  58.300  1.00  0.00     0.001 A 
HETATM   25  C   UNL     1      10.686  30.245  57.114  1.00  0.00     0.001 A 
ENDBRANCH  14  16
ENDBRANCH   1  14
TORSDOF 5
ENDMDL
MODEL 7
REMARK VINA RESULT:      -8.6      1.515      2.703
REMARK  5 active torsions:
REMARK  status: ('A' for Active; 'I' for Inactive)
REMARK    1  A    between atoms: O_2  and  C_3 
REMARK    2  A    between atoms: C_4  and  N_5 
REMARK       I    between atoms: N_5  and  C_6 
REMARK    3  A    between atoms: C_6  and  C_7 
REMARK    4  A    between atoms: C_7  and  N_8 
REMARK    5  A    between atoms: N_8  and  C_9 
ROOT
HETATM    1  C   UNL     1       6.906  27.287  53.859  1.00  0.00     0.195 C 
ENDROOT
BRANCH   1   2
HETATM    2  C   UNL     1       6.499  28.034  55.136  1.00  0.00     0.235 C 
HETATM    3  N   UNL     1       7.413  29.000  55.506  1.00  0.00    -0.324 N 
HETATM    4  H   UNL     1       8.219  29.105  54.890  1.00  0.00     0.169 HD
HETATM    5  O   UNL     1       5.434  27.789  55.696  1.00  0.00    -0.272 OA
BRANCH   3   6
HETATM    6  C   UNL     1       7.432  29.791  56.671  1.00  0.00     0.068 A 
HETATM    7  C   UNL     1       8.606  29.778  57.447  1.00  0.00     0.095 A 
HETATM    8  C   UNL     1       8.658  30.478  58.656  1.00  0.00     0.039 A 
HETATM    9  C   UNL     1       7.557  31.222  59.079  1.00  0.00     0.003 A 
HETATM   10  C   UNL     1       6.404  31.265  58.297  1.00  0.00     0.002 A 
HETATM   11  C   UNL     1       6.342  30.553  57.096  1.00  0.00     0.032 A 
BRANCH   7  12
HETATM   12  O   UNL     1       9.659  29.030  56.972  1.00  0.00    -0.354 OA
HETATM   13  C   UNL     1      10.916  29.700  57.045  1.00  0.00     0.210 C 
ENDBRANCH   7  12
ENDBRANCH   3   6
ENDBRANCH   1   2
BRANCH   1  14
HETATM   14  N   UNL     1       6.144  26.040  53.647  1.00  0.00    -0.284 NA
HETATM   15  H   UNL     1       5.196  26.123  54.014  1.00  0.00     0.128 HD
BRANCH  14  16
HETATM   16  C   UNL     1       6.716  24.825  54.070  1.00  0.00     0.009 A 
HETATM   17  C   UNL     1       7.119  23.806  53.196  1.00  0.00     0.035 A 
HETATM   18  C   UNL     1       7.614  22.573  53.661  1.00  0.00    -0.024 A 
HETATM   19  C   UNL     1       7.690  22.337  55.050  1.00  0.00    -0.026 A 
HETATM   20  C   UNL     1       8.030  21.568  52.772  1.00  0.00     0.012 A 
HETATM   21  C   UNL     1       7.251  23.334  55.930  1.00  0.00     0.014 A 
HETATM   22  C   UNL     1       8.188  21.108  55.513  1.00  0.00     0.012 A 
HETATM   23  C   UNL     1       6.755  24.550  55.442  1.00  0.00     0.024 A 
HETATM   24  C   UNL     1       8.603  20.122  54.616  1.00  0.00     0.001 A 
HETATM   25  C   UNL     1       8.521  20.352  53.246  1.00  0.00     0.001 A 
ENDBRANCH  14  16
ENDBRANCH   1  14
TORSDOF 5
ENDMDL
MODEL 8
REMARK VINA RESULT:      -8.5      2.602      4.712
REMARK  5 active torsions:
REMARK  status: ('A' for Active; 'I' for Inactive)
REMARK    1  A    between atoms: O_2  and  C_3 
REMARK    2  A    between atoms: C_4  and  N_5 
REMARK       I    between atoms: N_5  and  C_6 
REMARK    3  A    between atoms: C_6  and  C_7 
REMARK    4  A    between atoms: C_7  and  N_8 
REMARK    5  A    between atoms: N_8  and  C_9 
ROOT
HETATM    1  C   UNL     1       8.976  30.154  58.011  1.00  0.00     0.195 C 
ENDROOT
BRANCH   1   2
HETATM    2  C   UNL     1       8.920  31.244  59.090  1.00  0.00     0.235 C 
HETATM    3  N   UNL     1       8.100  30.907  60.148  1.00  0.00    -0.324 N 
HETATM    4  H   UNL     1       7.655  29.992  60.089  1.00  0.00     0.169 HD
HETATM    5  O   UNL     1       9.598  32.263  58.991  1.00  0.00    -0.272 OA
BRANCH   3   6
HETATM    6  C   UNL     1       7.718  31.698  61.249  1.00  0.00     0.068 A 
HETATM    7  C   UNL     1       6.550  32.474  61.118  1.00  0.00     0.095 A 
HETATM    8  C   UNL     1       6.162  33.340  62.145  1.00  0.00     0.039 A 
HETATM    9  C   UNL     1       6.914  33.412  63.318  1.00  0.00     0.003 A 
HETATM   10  C   UNL     1       8.052  32.622  63.464  1.00  0.00     0.002 A 
HETATM   11  C   UNL     1       8.452  31.766  62.434  1.00  0.00     0.032 A 
BRANCH   7  12
HETATM   12  O   UNL     1       5.849  32.353  59.940  1.00  0.00    -0.354 OA
HETATM   13  C   UNL     1       4.615  33.066  59.932  1.00  0.00     0.210 C 
ENDBRANCH   7  12
ENDBRANCH   3   6
ENDBRANCH   1   2
BRANCH   1  14
HETATM   14  N   UNL     1       8.195  28.950  58.360  1.00  0.00    -0.284 NA
HETATM   15  H   UNL     1       8.616  28.455  59.145  1.00  0.00     0.128 HD
BRANCH  14  16
HETATM   16  C   UNL     1       7.873  28.040  57.336  1.00  0.00     0.009 A 
HETATM   17  C   UNL     1       7.774  26.654  57.525  1.00  0.00     0.035 A 
HETATM   18  C   UNL     1       7.527  25.768  56.458  1.00  0.00    -0.024 A 
HETATM   19  C   UNL     1       7.396  26.280  55.150  1.00  0.00    -0.026 A 
HETATM   20  C   UNL     1       7.414  24.384  56.668  1.00  0.00     0.012 A 
HETATM   21  C   UNL     1       7.535  27.658  54.946  1.00  0.00     0.014 A 
HETATM   22  C   UNL     1       7.147  25.395  54.088  1.00  0.00     0.012 A 
HETATM   23  C   UNL     1       7.788  28.518  56.023  1.00  0.00     0.024 A 
HETATM   24  C   UNL     1       7.031  24.022  54.313  1.00  0.00     0.001 A 
HETATM   25  C   UNL     1       7.168  23.517  55.603  1.00  0.00     0.001 A 
ENDBRANCH  14  16
ENDBRANCH   1  14
TORSDOF 5
ENDMDL
MODEL 9
REMARK VINA RESULT:      -8.4      1.998      3.647
REMARK  5 active torsions:
REMARK  status: ('A' for Active; 'I' for Inactive)
REMARK    1  A    between atoms: O_2  and  C_3 
REMARK    2  A    between atoms: C_4  and  N_5 
REMARK       I    between atoms: N_5  and  C_6 
REMARK    3  A    between atoms: C_6  and  C_7 
REMARK    4  A    between atoms: C_7  and  N_8 
REMARK    5  A    between atoms: N_8  and  C_9 
ROOT
HETATM    1  C   UNL     1       8.477  28.785  57.112  1.00  0.00     0.195 C 
ENDROOT
BRANCH   1   2
HETATM    2  C   UNL     1       8.833  29.889  58.118  1.00  0.00     0.235 C 
HETATM    3  N   UNL     1       7.990  29.911  59.210  1.00  0.00    -0.324 N 
HETATM    4  H   UNL     1       7.261  29.198  59.221  1.00  0.00     0.169 HD
HETATM    5  O   UNL     1       9.810  30.612  57.939  1.00  0.00    -0.272 OA
BRANCH   3   6
HETATM    6  C   UNL     1       7.940  30.845  60.263  1.00  0.00     0.068 A 
HETATM    7  C   UNL     1       6.860  31.748  60.279  1.00  0.00     0.095 A 
HETATM    8  C   UNL     1       6.796  32.752  61.251  1.00  0.00     0.039 A 
HETATM    9  C   UNL     1       7.786  32.837  62.230  1.00  0.00     0.003 A 
HETATM   10  C   UNL     1       8.839  31.925  62.237  1.00  0.00     0.002 A 
HETATM   11  C   UNL     1       8.915  30.931  61.258  1.00  0.00     0.032 A 
BRANCH   7  12
HETATM   12  O   UNL     1       5.913  31.607  59.290  1.00  0.00    -0.354 OA
HETATM   13  C   UNL     1       5.606  32.824  58.613  1.00  0.00     0.210 C 
ENDBRANCH   7  12
ENDBRANCH   3   6
ENDBRANCH   1   2
BRANCH   1  14
HETATM   14  N   UNL     1       8.074  27.520  57.759  1.00  0.00    -0.284 NA
HETATM   15  H   UNL     1       8.562  27.389  58.644  1.00  0.00     0.128 HD
BRANCH  14  16
HETATM   16  C   UNL     1       8.128  26.334  57.001  1.00  0.00     0.009 A 
HETATM   17  C   UNL     1       7.619  26.214  55.701  1.00  0.00     0.035 A 
HETATM   18  C   UNL     1       7.622  24.989  55.006  1.00  0.00    -0.024 A 
HETATM   19  C   UNL     1       8.131  23.835  55.639  1.00  0.00    -0.026 A 
HETATM   20  C   UNL     1       7.123  24.889  53.697  1.00  0.00     0.012 A 
HETATM   21  C   UNL     1       8.603  23.938  56.953  1.00  0.00     0.014 A 
HETATM   22  C   UNL     1       8.136  22.615  54.943  1.00  0.00     0.012 A 
HETATM   23  C   UNL     1       8.583  25.166  57.626  1.00  0.00     0.024 A 
HETATM   24  C   UNL     1       7.642  22.533  53.640  1.00  0.00     0.001 A 
HETATM   25  C   UNL     1       7.134  23.670  53.018  1.00  0.00     0.001 A 
ENDBRANCH  14  16
ENDBRANCH   1  14
TORSDOF 5
ENDMDL
MODEL 10
REMARK VINA RESULT:      -8.4      4.287      6.472
REMARK  5 active torsions:
REMARK  status: ('A' for Active; 'I' for Inactive)
REMARK    1  A    between atoms: O_2  and  C_3 
REMARK    2  A    between atoms: C_4  and  N_5 
REMARK       I    between atoms: N_5  and  C_6 
REMARK    3  A    between atoms: C_6  and  C_7 
REMARK    4  A    between atoms: C_7  and  N_8 
REMARK    5  A    between atoms: N_8  and  C_9 
ROOT
HETATM    1  C   UNL     1       6.395  26.828  53.608  1.00  0.00     0.195 C 
ENDROOT
BRANCH   1   2
HETATM    2  C   UNL     1       5.283  27.085  52.581  1.00  0.00     0.235 C 
HETATM    3  N   UNL     1       5.717  26.949  51.278  1.00  0.00    -0.324 N 
HETATM    4  H   UNL     1       6.696  26.687  51.162  1.00  0.00     0.169 HD
HETATM    5  O   UNL     1       4.136  27.329  52.945  1.00  0.00    -0.272 OA
BRANCH   3   6
HETATM    6  C   UNL     1       5.016  27.221  50.087  1.00  0.00     0.068 A 
HETATM    7  C   UNL     1       4.957  28.561  49.659  1.00  0.00     0.095 A 
HETATM    8  C   UNL     1       4.209  28.906  48.528  1.00  0.00     0.039 A 
HETATM    9  C   UNL     1       3.549  27.916  47.801  1.00  0.00     0.003 A 
HETATM   10  C   UNL     1       3.632  26.584  48.203  1.00  0.00     0.002 A 
HETATM   11  C   UNL     1       4.365  26.237  49.341  1.00  0.00     0.032 A 
BRANCH   7  12
HETATM   12  O   UNL     1       5.635  29.489  50.416  1.00  0.00    -0.354 OA
HETATM   13  C   UNL     1       5.931  30.694  49.714  1.00  0.00     0.210 C 
ENDBRANCH   7  12
ENDBRANCH   3   6
ENDBRANCH   1   2
BRANCH   1  14
HETATM   14  N   UNL     1       6.066  25.749  54.562  1.00  0.00    -0.284 NA
HETATM   15  H   UNL     1       6.220  26.050  55.524  1.00  0.00     0.128 HD
BRANCH  14  16
HETATM   16  C   UNL     1       6.637  24.478  54.360  1.00  0.00     0.009 A 
HETATM   17  C   UNL     1       6.988  23.605  55.399  1.00  0.00     0.035 A 
HETATM   18  C   UNL     1       7.630  22.375  55.158  1.00  0.00    -0.024 A 
HETATM   19  C   UNL     1       7.953  22.010  53.835  1.00  0.00    -0.026 A 
HETATM   20  C   UNL     1       7.960  21.504  56.210  1.00  0.00     0.012 A 
HETATM   21  C   UNL     1       7.643  22.895  52.795  1.00  0.00     0.014 A 
HETATM   22  C   UNL     1       8.590  20.781  53.596  1.00  0.00     0.012 A 
HETATM   23  C   UNL     1       7.011  24.117  53.060  1.00  0.00     0.024 A 
HETATM   24  C   UNL     1       8.906  19.923  54.652  1.00  0.00     0.001 A 
HETATM   25  C   UNL     1       8.593  20.287  55.958  1.00  0.00     0.001 A 
ENDBRANCH  14  16
ENDBRANCH   1  14
TORSDOF 5
ENDMDL
