MODEL 1
REMARK VINA RESULT:     -11.1      0.000      0.000
REMARK  5 active torsions:
REMARK  status: ('A' for Active; 'I' for Inactive)
REMARK    1  A    between atoms: C_2  and  N_3 
REMARK    2  A    between atoms: C_10  and  C_11 
REMARK    3  A    between atoms: C_11  and  C_12 
REMARK    4  A    between atoms: C_12  and  C_13 
REMARK       I    between atoms: C_13  and  N_14 
REMARK    5  A    between atoms: N_14  and  C_15 
ROOT
HETATM    1  C   UNL     1       8.874  30.055  58.398  1.00  0.00     0.222 C 
HETATM    2  N   UNL     1       7.777  29.258  58.661  1.00  0.00    -0.327 N 
HETATM    3  O   UNL     1       9.451  30.126  57.315  1.00  0.00    -0.273 OA
HETATM    4  H   UNL     1       7.345  29.341  59.568  1.00  0.00     0.169 HD
ENDROOT
BRANCH   2   5
HETATM    5  C   UNL     1       7.146  28.341  57.792  1.00  0.00     0.035 A 
HETATM    6  C   UNL     1       7.670  27.101  57.426  1.00  0.00     0.049 A 
HETATM    7  C   UNL     1       6.993  26.252  56.520  1.00  0.00     0.061 A 
HETATM    8  C   UNL     1       5.768  26.659  55.972  1.00  0.00     0.050 A 
HETATM    9  C   UNL     1       7.584  24.899  56.343  1.00  0.00     0.256 C 
HETATM   10  N   UNL     1       5.006  25.963  55.021  1.00  0.00    -0.324 N 
HETATM   11  C   UNL     1       5.214  27.876  56.397  1.00  0.00     0.033 A 
HETATM   12  C   UNL     1       5.433  25.117  54.035  1.00  0.00     0.245 C 
HETATM   13  H   UNL     1       4.040  26.239  54.881  1.00  0.00     0.169 HD
HETATM   14  O   UNL     1       4.612  24.754  53.190  1.00  0.00    -0.271 OA
HETATM   15  C   UNL     1       6.929  24.843  53.911  1.00  0.00     0.180 C 
HETATM   16  N   UNL     1       7.448  24.257  55.136  1.00  0.00    -0.334 N 
HETATM   17  C   UNL     1       7.243  23.804  52.827  1.00  0.00     0.037 C 
HETATM   18  C   UNL     1       8.115  22.993  54.879  1.00  0.00     0.127 C 
HETATM   19  C   UNL     1       8.431  23.041  53.395  1.00  0.00     0.022 C 
HETATM   20  C   UNL     1       5.900  28.712  57.282  1.00  0.00     0.032 A 
HETATM   21  O   UNL     1       8.180  24.386  57.287  1.00  0.00    -0.267 OA
ENDBRANCH   2   5
BRANCH   1  22
HETATM   22  C   UNL     1       9.344  30.952  59.538  1.00  0.00     0.108 C 
BRANCH  22  23
HETATM   23  C   UNL     1       8.607  30.830  60.867  1.00  0.00     0.050 C 
BRANCH  23  24
HETATM   24  C   UNL     1       7.514  31.831  61.094  1.00  0.00    -0.030 A 
HETATM   25  C   UNL     1       7.319  32.582  62.300  1.00  0.00    -0.002 A 
HETATM   26  C   UNL     1       6.213  33.419  62.114  1.00  0.00     0.045 A 
HETATM   27  C   UNL     1       7.999  32.620  63.537  1.00  0.00     0.014 A 
HETATM   28  N   UNL     1       5.748  33.187  60.834  1.00  0.00    -0.352 N 
HETATM   29  C   UNL     1       5.770  34.289  63.126  1.00  0.00     0.030 A 
HETATM   30  C   UNL     1       6.523  32.230  60.223  1.00  0.00     0.099 A 
HETATM   31  C   UNL     1       6.462  34.306  64.340  1.00  0.00     0.002 A 
HETATM   32  C   UNL     1       7.563  33.483  64.546  1.00  0.00     0.001 A 
BRANCH  28  33
HETATM   33  C   UNL     1       4.611  33.858  60.200  1.00  0.00     0.081 C 
HETATM   34  C   UNL     1       3.278  33.253  60.643  1.00  0.00     0.032 C 
HETATM   35  C   UNL     1       4.743  33.867  58.676  1.00  0.00     0.032 C 
ENDBRANCH  28  33
ENDBRANCH  23  24
ENDBRANCH  22  23
ENDBRANCH   1  22
TORSDOF 5
ENDMDL
MODEL 2
REMARK VINA RESULT:     -11.1      6.528     11.493
REMARK  5 active torsions:
REMARK  status: ('A' for Active; 'I' for Inactive)
REMARK    1  A    between atoms: C_2  and  N_3 
REMARK    2  A    between atoms: C_10  and  C_11 
REMARK    3  A    between atoms: C_11  and  C_12 
REMARK    4  A    between atoms: C_12  and  C_13 
REMARK       I    between atoms: C_13  and  N_14 
REMARK    5  A    between atoms: N_14  and  C_15 
ROOT
HETATM    1  C   UNL     1       5.499  26.359  51.157  1.00  0.00     0.222 C 
HETATM    2  N   UNL     1       5.570  26.610  49.802  1.00  0.00    -0.327 N 
HETATM    3  O   UNL     1       4.460  26.182  51.789  1.00  0.00    -0.273 OA
HETATM    4  H   UNL     1       6.485  26.665  49.382  1.00  0.00     0.169 HD
ENDROOT
BRANCH   2   5
HETATM    5  C   UNL     1       4.498  26.775  48.895  1.00  0.00     0.035 A 
HETATM    6  C   UNL     1       4.103  27.994  48.344  1.00  0.00     0.049 A 
HETATM    7  C   UNL     1       2.994  28.082  47.471  1.00  0.00     0.061 A 
HETATM    8  C   UNL     1       2.272  26.925  47.147  1.00  0.00     0.050 A 
HETATM    9  C   UNL     1       2.782  29.409  46.834  1.00  0.00     0.256 C 
HETATM   10  N   UNL     1       1.120  26.854  46.347  1.00  0.00    -0.324 N 
HETATM   11  C   UNL     1       2.718  25.693  47.650  1.00  0.00     0.033 A 
HETATM   12  C   UNL     1       0.145  27.796  46.166  1.00  0.00     0.245 C 
HETATM   13  H   UNL     1       0.831  25.947  45.997  1.00  0.00     0.169 HD
HETATM   14  O   UNL     1      -0.876  27.460  45.563  1.00  0.00    -0.271 OA
HETATM   15  C   UNL     1       0.279  29.129  46.897  1.00  0.00     0.180 C 
HETATM   16  N   UNL     1       1.507  29.805  46.512  1.00  0.00    -0.334 N 
HETATM   17  C   UNL     1      -0.836  30.114  46.519  1.00  0.00     0.037 C 
HETATM   18  C   UNL     1       1.241  31.141  46.006  1.00  0.00     0.127 C 
HETATM   19  C   UNL     1      -0.141  31.468  46.545  1.00  0.00     0.022 C 
HETATM   20  C   UNL     1       3.806  25.621  48.524  1.00  0.00     0.032 A 
HETATM   21  O   UNL     1       3.759  30.121  46.610  1.00  0.00    -0.267 OA
ENDBRANCH   2   5
BRANCH   1  22
HETATM   22  C   UNL     1       6.832  26.233  51.890  1.00  0.00     0.108 C 
BRANCH  22  23
HETATM   23  C   UNL     1       7.450  24.842  51.972  1.00  0.00     0.050 C 
BRANCH  23  24
HETATM   24  C   UNL     1       7.528  24.251  53.348  1.00  0.00    -0.030 A 
HETATM   25  C   UNL     1       7.745  22.864  53.641  1.00  0.00    -0.002 A 
HETATM   26  C   UNL     1       7.774  22.716  55.032  1.00  0.00     0.045 A 
HETATM   27  C   UNL     1       7.925  21.721  52.832  1.00  0.00     0.014 A 
HETATM   28  N   UNL     1       7.580  23.972  55.572  1.00  0.00    -0.352 N 
HETATM   29  C   UNL     1       7.975  21.461  55.634  1.00  0.00     0.030 A 
HETATM   30  C   UNL     1       7.427  24.894  54.564  1.00  0.00     0.099 A 
HETATM   31  C   UNL     1       8.150  20.347  54.809  1.00  0.00     0.002 A 
HETATM   32  C   UNL     1       8.126  20.471  53.425  1.00  0.00     0.001 A 
BRANCH  28  33
HETATM   33  C   UNL     1       7.554  24.298  57.000  1.00  0.00     0.081 C 
HETATM   34  C   UNL     1       6.646  25.494  57.290  1.00  0.00     0.032 C 
HETATM   35  C   UNL     1       8.964  24.516  57.553  1.00  0.00     0.032 C 
ENDBRANCH  28  33
ENDBRANCH  23  24
ENDBRANCH  22  23
ENDBRANCH   1  22
TORSDOF 5
ENDMDL
MODEL 3
REMARK VINA RESULT:     -10.7      0.815      2.489
REMARK  5 active torsions:
REMARK  status: ('A' for Active; 'I' for Inactive)
REMARK    1  A    between atoms: C_2  and  N_3 
REMARK    2  A    between atoms: C_10  and  C_11 
REMARK    3  A    between atoms: C_11  and  C_12 
REMARK    4  A    between atoms: C_12  and  C_13 
REMARK       I    between atoms: C_13  and  N_14 
REMARK    5  A    between atoms: N_14  and  C_15 
ROOT
HETATM    1  C   UNL     1       8.753  29.823  58.366  1.00  0.00     0.222 C 
HETATM    2  N   UNL     1       7.714  28.947  58.606  1.00  0.00    -0.327 N 
HETATM    3  O   UNL     1       9.254  30.039  57.265  1.00  0.00    -0.273 OA
HETATM    4  H   UNL     1       7.339  28.909  59.542  1.00  0.00     0.169 HD
ENDROOT
BRANCH   2   5
HETATM    5  C   UNL     1       7.069  28.094  57.682  1.00  0.00     0.035 A 
HETATM    6  C   UNL     1       7.508  26.815  57.339  1.00  0.00     0.049 A 
HETATM    7  C   UNL     1       6.826  26.036  56.375  1.00  0.00     0.061 A 
HETATM    8  C   UNL     1       5.686  26.554  55.746  1.00  0.00     0.050 A 
HETATM    9  C   UNL     1       7.307  24.637  56.224  1.00  0.00     0.256 C 
HETATM   10  N   UNL     1       4.936  25.935  54.733  1.00  0.00    -0.324 N 
HETATM   11  C   UNL     1       5.212  27.812  56.145  1.00  0.00     0.033 A 
HETATM   12  C   UNL     1       5.358  25.061  53.770  1.00  0.00     0.245 C 
HETATM   13  H   UNL     1       4.012  26.297  54.528  1.00  0.00     0.169 HD
HETATM   14  O   UNL     1       4.572  24.778  52.863  1.00  0.00    -0.271 OA
HETATM   15  C   UNL     1       6.830  24.656  53.751  1.00  0.00     0.180 C 
HETATM   16  N   UNL     1       7.203  24.018  55.002  1.00  0.00    -0.334 N 
HETATM   17  C   UNL     1       7.129  23.599  52.678  1.00  0.00     0.037 C 
HETATM   18  C   UNL     1       7.773  22.700  54.778  1.00  0.00     0.127 C 
HETATM   19  C   UNL     1       8.201  22.730  53.321  1.00  0.00     0.022 C 
HETATM   20  C   UNL     1       5.902  28.578  57.089  1.00  0.00     0.032 A 
HETATM   21  O   UNL     1       7.785  24.067  57.203  1.00  0.00    -0.267 OA
ENDBRANCH   2   5
BRANCH   1  22
HETATM   22  C   UNL     1       9.256  30.618  59.568  1.00  0.00     0.108 C 
BRANCH  22  23
HETATM   23  C   UNL     1       8.899  32.099  59.618  1.00  0.00     0.050 C 
BRANCH  23  24
HETATM   24  C   UNL     1       7.759  32.457  60.524  1.00  0.00    -0.030 A 
HETATM   25  C   UNL     1       6.369  32.347  60.187  1.00  0.00    -0.002 A 
HETATM   26  C   UNL     1       5.622  32.756  61.297  1.00  0.00     0.045 A 
HETATM   27  C   UNL     1       5.686  31.926  59.025  1.00  0.00     0.014 A 
HETATM   28  N   UNL     1       6.526  33.106  62.281  1.00  0.00    -0.352 N 
HETATM   29  C   UNL     1       4.216  32.757  61.277  1.00  0.00     0.030 A 
HETATM   30  C   UNL     1       7.809  32.933  61.818  1.00  0.00     0.099 A 
HETATM   31  C   UNL     1       3.566  32.335  60.114  1.00  0.00     0.002 A 
HETATM   32  C   UNL     1       4.289  31.925  59.000  1.00  0.00     0.001 A 
BRANCH  28  33
HETATM   33  C   UNL     1       6.190  33.577  63.626  1.00  0.00     0.081 C 
HETATM   34  C   UNL     1       5.857  35.070  63.635  1.00  0.00     0.032 C 
HETATM   35  C   UNL     1       7.295  33.243  64.631  1.00  0.00     0.032 C 
ENDBRANCH  28  33
ENDBRANCH  23  24
ENDBRANCH  22  23
ENDBRANCH   1  22
TORSDOF 5
ENDMDL
MODEL 4
REMARK VINA RESULT:     -10.4      6.784     11.290
REMARK  5 active torsions:
REMARK  status: ('A' for Active; 'I' for Inactive)
REMARK    1  A    between atoms: C_2  and  N_3 
REMARK    2  A    between atoms: C_10  and  C_11 
REMARK    3  A    between atoms: C_11  and  C_12 
REMARK    4  A    between atoms: C_12  and  C_13 
REMARK       I    between atoms: C_13  and  N_14 
REMARK    5  A    between atoms: N_14  and  C_15 
ROOT
HETATM    1  C   UNL     1       5.204  26.784  51.455  1.00  0.00     0.222 C 
HETATM    2  N   UNL     1       5.267  26.345  50.148  1.00  0.00    -0.327 N 
HETATM    3  O   UNL     1       4.239  27.351  51.964  1.00  0.00    -0.273 OA
HETATM    4  H   UNL     1       6.086  25.827  49.866  1.00  0.00     0.169 HD
ENDROOT
BRANCH   2   5
HETATM    5  C   UNL     1       4.297  26.505  49.133  1.00  0.00     0.035 A 
HETATM    6  C   UNL     1       3.919  27.728  48.580  1.00  0.00     0.049 A 
HETATM    7  C   UNL     1       2.911  27.809  47.591  1.00  0.00     0.061 A 
HETATM    8  C   UNL     1       2.274  26.640  47.153  1.00  0.00     0.050 A 
HETATM    9  C   UNL     1       2.721  29.150  46.976  1.00  0.00     0.256 C 
HETATM   10  N   UNL     1       1.221  26.559  46.228  1.00  0.00    -0.324 N 
HETATM   11  C   UNL     1       2.707  25.408  47.664  1.00  0.00     0.033 A 
HETATM   12  C   UNL     1       0.237  27.472  45.969  1.00  0.00     0.245 C 
HETATM   13  H   UNL     1       1.007  25.655  45.820  1.00  0.00     0.169 HD
HETATM   14  O   UNL     1      -0.698  27.123  45.245  1.00  0.00    -0.271 OA
HETATM   15  C   UNL     1       0.239  28.783  46.751  1.00  0.00     0.180 C 
HETATM   16  N   UNL     1       1.475  29.514  46.526  1.00  0.00    -0.334 N 
HETATM   17  C   UNL     1      -0.864  29.742  46.282  1.00  0.00     0.037 C 
HETATM   18  C   UNL     1       1.216  30.856  46.035  1.00  0.00     0.127 C 
HETATM   19  C   UNL     1      -0.228  31.117  46.427  1.00  0.00     0.022 C 
HETATM   20  C   UNL     1       3.694  25.342  48.651  1.00  0.00     0.032 A 
HETATM   21  O   UNL     1       3.689  29.902  46.885  1.00  0.00    -0.267 OA
ENDBRANCH   2   5
BRANCH   1  22
HETATM   22  C   UNL     1       6.413  26.470  52.331  1.00  0.00     0.108 C 
BRANCH  22  23
HETATM   23  C   UNL     1       7.281  25.287  51.919  1.00  0.00     0.050 C 
BRANCH  23  24
HETATM   24  C   UNL     1       7.680  24.361  53.029  1.00  0.00    -0.030 A 
HETATM   25  C   UNL     1       7.789  24.727  54.411  1.00  0.00    -0.002 A 
HETATM   26  C   UNL     1       8.165  23.587  55.131  1.00  0.00     0.045 A 
HETATM   27  C   UNL     1       7.592  25.938  55.110  1.00  0.00     0.014 A 
HETATM   28  N   UNL     1       8.282  22.558  54.217  1.00  0.00    -0.352 N 
HETATM   29  C   UNL     1       8.350  23.625  56.524  1.00  0.00     0.030 A 
HETATM   30  C   UNL     1       7.998  23.021  52.954  1.00  0.00     0.099 A 
HETATM   31  C   UNL     1       8.148  24.837  57.190  1.00  0.00     0.002 A 
HETATM   32  C   UNL     1       7.774  25.981  56.495  1.00  0.00     0.001 A 
BRANCH  28  33
HETATM   33  C   UNL     1       8.640  21.172  54.527  1.00  0.00     0.081 C 
HETATM   34  C   UNL     1       8.767  20.324  53.260  1.00  0.00     0.032 C 
HETATM   35  C   UNL     1       7.661  20.548  55.523  1.00  0.00     0.032 C 
ENDBRANCH  28  33
ENDBRANCH  23  24
ENDBRANCH  22  23
ENDBRANCH   1  22
TORSDOF 5
ENDMDL
MODEL 5
REMARK VINA RESULT:     -10.3      2.135      9.668
REMARK  5 active torsions:
REMARK  status: ('A' for Active; 'I' for Inactive)
REMARK    1  A    between atoms: C_2  and  N_3 
REMARK    2  A    between atoms: C_10  and  C_11 
REMARK    3  A    between atoms: C_11  and  C_12 
REMARK    4  A    between atoms: C_12  and  C_13 
REMARK       I    between atoms: C_13  and  N_14 
REMARK    5  A    between atoms: N_14  and  C_15 
ROOT
HETATM    1  C   UNL     1       5.281  27.756  54.485  1.00  0.00     0.222 C 
HETATM    2  N   UNL     1       5.247  27.831  55.862  1.00  0.00    -0.327 N 
HETATM    3  O   UNL     1       5.507  28.700  53.731  1.00  0.00    -0.273 OA
HETATM    4  H   UNL     1       5.124  26.971  56.376  1.00  0.00     0.169 HD
ENDROOT
BRANCH   2   5
HETATM    5  C   UNL     1       5.396  28.980  56.670  1.00  0.00     0.035 A 
HETATM    6  C   UNL     1       6.591  29.388  57.262  1.00  0.00     0.049 A 
HETATM    7  C   UNL     1       6.650  30.533  58.090  1.00  0.00     0.061 A 
HETATM    8  C   UNL     1       5.488  31.280  58.325  1.00  0.00     0.050 A 
HETATM    9  C   UNL     1       8.013  30.942  58.524  1.00  0.00     0.256 C 
HETATM   10  N   UNL     1       5.369  32.400  59.163  1.00  0.00    -0.324 N 
HETATM   11  C   UNL     1       4.305  30.904  57.671  1.00  0.00     0.033 A 
HETATM   12  C   UNL     1       6.071  32.698  60.298  1.00  0.00     0.245 C 
HETATM   13  H   UNL     1       4.548  32.988  59.069  1.00  0.00     0.169 HD
HETATM   14  O   UNL     1       5.682  33.644  60.985  1.00  0.00    -0.271 OA
HETATM   15  C   UNL     1       7.153  31.725  60.759  1.00  0.00     0.180 C 
HETATM   16  N   UNL     1       8.174  31.569  59.736  1.00  0.00    -0.334 N 
HETATM   17  C   UNL     1       7.916  32.242  61.986  1.00  0.00     0.037 C 
HETATM   18  C   UNL     1       9.496  31.871  60.255  1.00  0.00     0.127 C 
HETATM   19  C   UNL     1       9.336  31.744  61.760  1.00  0.00     0.022 C 
HETATM   20  C   UNL     1       4.256  29.762  56.868  1.00  0.00     0.032 A 
HETATM   21  O   UNL     1       8.965  30.708  57.783  1.00  0.00    -0.267 OA
ENDBRANCH   2   5
BRANCH   1  22
HETATM   22  C   UNL     1       5.084  26.368  53.880  1.00  0.00     0.108 C 
BRANCH  22  23
HETATM   23  C   UNL     1       6.274  25.752  53.153  1.00  0.00     0.050 C 
BRANCH  23  24
HETATM   24  C   UNL     1       6.989  24.662  53.894  1.00  0.00    -0.030 A 
HETATM   25  C   UNL     1       7.597  24.802  55.185  1.00  0.00    -0.002 A 
HETATM   26  C   UNL     1       8.142  23.563  55.542  1.00  0.00     0.045 A 
HETATM   27  C   UNL     1       7.723  25.884  56.083  1.00  0.00     0.014 A 
HETATM   28  N   UNL     1       7.875  22.695  54.502  1.00  0.00    -0.352 N 
HETATM   29  C   UNL     1       8.807  23.378  56.767  1.00  0.00     0.030 A 
HETATM   30  C   UNL     1       7.189  23.353  53.509  1.00  0.00     0.099 A 
HETATM   31  C   UNL     1       8.917  24.466  57.637  1.00  0.00     0.002 A 
HETATM   32  C   UNL     1       8.384  25.705  57.302  1.00  0.00     0.001 A 
BRANCH  28  33
HETATM   33  C   UNL     1       8.246  21.278  54.450  1.00  0.00     0.081 C 
HETATM   34  C   UNL     1       7.922  20.659  53.090  1.00  0.00     0.032 C 
HETATM   35  C   UNL     1       7.606  20.488  55.593  1.00  0.00     0.032 C 
ENDBRANCH  28  33
ENDBRANCH  23  24
ENDBRANCH  22  23
ENDBRANCH   1  22
TORSDOF 5
ENDMDL
MODEL 6
REMARK VINA RESULT:     -10.2      2.115      3.583
REMARK  5 active torsions:
REMARK  status: ('A' for Active; 'I' for Inactive)
REMARK    1  A    between atoms: C_2  and  N_3 
REMARK    2  A    between atoms: C_10  and  C_11 
REMARK    3  A    between atoms: C_11  and  C_12 
REMARK    4  A    between atoms: C_12  and  C_13 
REMARK       I    between atoms: C_13  and  N_14 
REMARK    5  A    between atoms: N_14  and  C_15 
ROOT
HETATM    1  C   UNL     1       4.008  31.592  57.095  1.00  0.00     0.222 C 
HETATM    2  N   UNL     1       4.784  31.097  56.067  1.00  0.00    -0.327 N 
HETATM    3  O   UNL     1       3.090  30.984  57.643  1.00  0.00    -0.273 OA
HETATM    4  H   UNL     1       5.556  31.663  55.748  1.00  0.00     0.169 HD
ENDROOT
BRANCH   2   5
HETATM    5  C   UNL     1       4.655  29.856  55.404  1.00  0.00     0.035 A 
HETATM    6  C   UNL     1       5.251  28.666  55.821  1.00  0.00     0.049 A 
HETATM    7  C   UNL     1       5.103  27.469  55.081  1.00  0.00     0.061 A 
HETATM    8  C   UNL     1       4.344  27.472  53.903  1.00  0.00     0.050 A 
HETATM    9  C   UNL     1       5.656  26.246  55.722  1.00  0.00     0.256 C 
HETATM   10  N   UNL     1       4.151  26.388  53.031  1.00  0.00    -0.324 N 
HETATM   11  C   UNL     1       3.691  28.655  53.528  1.00  0.00     0.033 A 
HETATM   12  C   UNL     1       4.993  25.345  52.764  1.00  0.00     0.245 C 
HETATM   13  H   UNL     1       3.401  26.445  52.351  1.00  0.00     0.169 HD
HETATM   14  O   UNL     1       4.706  24.597  51.827  1.00  0.00    -0.271 OA
HETATM   15  C   UNL     1       6.333  25.288  53.492  1.00  0.00     0.180 C 
HETATM   16  N   UNL     1       6.134  25.230  54.931  1.00  0.00    -0.334 N 
HETATM   17  C   UNL     1       7.121  24.013  53.162  1.00  0.00     0.037 C 
HETATM   18  C   UNL     1       6.796  24.075  55.512  1.00  0.00     0.127 C 
HETATM   19  C   UNL     1       7.828  23.681  54.469  1.00  0.00     0.022 C 
HETATM   20  C   UNL     1       3.857  29.834  54.259  1.00  0.00     0.032 A 
HETATM   21  O   UNL     1       5.670  26.175  56.949  1.00  0.00    -0.267 OA
ENDBRANCH   2   5
BRANCH   1  22
HETATM   22  C   UNL     1       4.380  32.978  57.615  1.00  0.00     0.108 C 
BRANCH  22  23
HETATM   23  C   UNL     1       4.717  33.095  59.097  1.00  0.00     0.050 C 
BRANCH  23  24
HETATM   24  C   UNL     1       6.036  32.511  59.507  1.00  0.00    -0.030 A 
HETATM   25  C   UNL     1       6.619  32.623  60.813  1.00  0.00    -0.002 A 
HETATM   26  C   UNL     1       7.836  31.932  60.803  1.00  0.00     0.045 A 
HETATM   27  C   UNL     1       6.206  33.254  62.006  1.00  0.00     0.014 A 
HETATM   28  N   UNL     1       7.991  31.414  59.532  1.00  0.00    -0.352 N 
HETATM   29  C   UNL     1       8.648  31.855  61.948  1.00  0.00     0.030 A 
HETATM   30  C   UNL     1       6.916  31.765  58.751  1.00  0.00     0.099 A 
HETATM   31  C   UNL     1       8.214  32.489  63.116  1.00  0.00     0.002 A 
HETATM   32  C   UNL     1       7.009  33.181  63.148  1.00  0.00     0.001 A 
BRANCH  28  33
HETATM   33  C   UNL     1       9.117  30.599  59.068  1.00  0.00     0.081 C 
HETATM   34  C   UNL     1      10.204  31.456  58.417  1.00  0.00     0.032 C 
HETATM   35  C   UNL     1       8.653  29.478  58.137  1.00  0.00     0.032 C 
ENDBRANCH  28  33
ENDBRANCH  23  24
ENDBRANCH  22  23
ENDBRANCH   1  22
TORSDOF 5
ENDMDL
MODEL 7
REMARK VINA RESULT:      -9.9      1.749      3.090
REMARK  5 active torsions:
REMARK  status: ('A' for Active; 'I' for Inactive)
REMARK    1  A    between atoms: C_2  and  N_3 
REMARK    2  A    between atoms: C_10  and  C_11 
REMARK    3  A    between atoms: C_11  and  C_12 
REMARK    4  A    between atoms: C_12  and  C_13 
REMARK       I    between atoms: C_13  and  N_14 
REMARK    5  A    between atoms: N_14  and  C_15 
ROOT
HETATM    1  C   UNL     1       8.992  31.364  59.743  1.00  0.00     0.222 C 
HETATM    2  N   UNL     1       8.054  30.361  59.603  1.00  0.00    -0.327 N 
HETATM    3  O   UNL     1       9.461  32.027  58.819  1.00  0.00    -0.273 OA
HETATM    4  H   UNL     1       7.691  29.938  60.444  1.00  0.00     0.169 HD
ENDROOT
BRANCH   2   5
HETATM    5  C   UNL     1       7.499  29.856  58.406  1.00  0.00     0.035 A 
HETATM    6  C   UNL     1       7.547  28.521  58.008  1.00  0.00     0.049 A 
HETATM    7  C   UNL     1       6.999  28.099  56.774  1.00  0.00     0.061 A 
HETATM    8  C   UNL     1       6.392  29.038  55.928  1.00  0.00     0.050 A 
HETATM    9  C   UNL     1       6.978  26.629  56.549  1.00  0.00     0.256 C 
HETATM   10  N   UNL     1       5.856  28.791  54.654  1.00  0.00    -0.324 N 
HETATM   11  C   UNL     1       6.285  30.366  56.366  1.00  0.00     0.033 A 
HETATM   12  C   UNL     1       6.239  27.858  53.731  1.00  0.00     0.245 C 
HETATM   13  H   UNL     1       5.242  29.488  54.246  1.00  0.00     0.169 HD
HETATM   14  O   UNL     1       5.754  27.933  52.600  1.00  0.00    -0.271 OA
HETATM   15  C   UNL     1       7.391  26.921  54.081  1.00  0.00     0.180 C 
HETATM   16  N   UNL     1       7.078  26.142  55.268  1.00  0.00    -0.334 N 
HETATM   17  C   UNL     1       7.639  25.870  52.990  1.00  0.00     0.037 C 
HETATM   18  C   UNL     1       7.188  24.717  55.014  1.00  0.00     0.127 C 
HETATM   19  C   UNL     1       8.058  24.634  53.771  1.00  0.00     0.022 C 
HETATM   20  C   UNL     1       6.844  30.773  57.581  1.00  0.00     0.032 A 
HETATM   21  O   UNL     1       6.871  25.883  57.520  1.00  0.00    -0.267 OA
ENDBRANCH   2   5
BRANCH   1  22
HETATM   22  C   UNL     1       9.415  31.698  61.171  1.00  0.00     0.108 C 
BRANCH  22  23
HETATM   23  C   UNL     1       8.516  31.197  62.295  1.00  0.00     0.050 C 
BRANCH  23  24
HETATM   24  C   UNL     1       7.540  32.198  62.837  1.00  0.00    -0.030 A 
HETATM   25  C   UNL     1       6.503  32.834  62.079  1.00  0.00    -0.002 A 
HETATM   26  C   UNL     1       5.797  33.682  62.940  1.00  0.00     0.045 A 
HETATM   27  C   UNL     1       6.103  32.752  60.728  1.00  0.00     0.014 A 
HETATM   28  N   UNL     1       6.385  33.568  64.185  1.00  0.00    -0.352 N 
HETATM   29  C   UNL     1       4.707  34.448  62.489  1.00  0.00     0.030 A 
HETATM   30  C   UNL     1       7.435  32.683  64.124  1.00  0.00     0.099 A 
HETATM   31  C   UNL     1       4.333  34.348  61.146  1.00  0.00     0.002 A 
HETATM   32  C   UNL     1       5.021  33.512  60.273  1.00  0.00     0.001 A 
BRANCH  28  33
HETATM   33  C   UNL     1       5.961  34.263  65.402  1.00  0.00     0.081 C 
HETATM   34  C   UNL     1       6.987  34.112  66.526  1.00  0.00     0.032 C 
HETATM   35  C   UNL     1       4.568  33.815  65.849  1.00  0.00     0.032 C 
ENDBRANCH  28  33
ENDBRANCH  23  24
ENDBRANCH  22  23
ENDBRANCH   1  22
TORSDOF 5
ENDMDL
MODEL 8
REMARK VINA RESULT:      -9.9      2.389     10.453
REMARK  5 active torsions:
REMARK  status: ('A' for Active; 'I' for Inactive)
REMARK    1  A    between atoms: C_2  and  N_3 
REMARK    2  A    between atoms: C_10  and  C_11 
REMARK    3  A    between atoms: C_11  and  C_12 
REMARK    4  A    between atoms: C_12  and  C_13 
REMARK       I    between atoms: C_13  and  N_14 
REMARK    5  A    between atoms: N_14  and  C_15 
ROOT
HETATM    1  C   UNL     1       7.314  28.411  57.674  1.00  0.00     0.222 C 
HETATM    2  N   UNL     1       7.842  29.617  58.090  1.00  0.00    -0.327 N 
HETATM    3  O   UNL     1       6.120  28.121  57.685  1.00  0.00    -0.273 OA
HETATM    4  H   UNL     1       8.832  29.765  57.964  1.00  0.00     0.169 HD
ENDROOT
BRANCH   2   5
HETATM    5  C   UNL     1       7.154  30.713  58.657  1.00  0.00     0.035 A 
HETATM    6  C   UNL     1       7.338  31.181  59.957  1.00  0.00     0.049 A 
HETATM    7  C   UNL     1       6.582  32.264  60.465  1.00  0.00     0.061 A 
HETATM    8  C   UNL     1       5.626  32.885  59.649  1.00  0.00     0.050 A 
HETATM    9  C   UNL     1       6.990  32.760  61.806  1.00  0.00     0.256 C 
HETATM   10  N   UNL     1       4.760  33.926  60.019  1.00  0.00    -0.324 N 
HETATM   11  C   UNL     1       5.496  32.454  58.321  1.00  0.00     0.033 A 
HETATM   12  C   UNL     1       4.231  34.202  61.250  1.00  0.00     0.245 C 
HETATM   13  H   UNL     1       4.287  34.443  59.287  1.00  0.00     0.169 HD
HETATM   14  O   UNL     1       3.346  35.057  61.319  1.00  0.00    -0.271 OA
HETATM   15  C   UNL     1       4.607  33.298  62.421  1.00  0.00     0.180 C 
HETATM   16  N   UNL     1       6.045  33.309  62.638  1.00  0.00    -0.334 N 
HETATM   17  C   UNL     1       4.016  33.790  63.749  1.00  0.00     0.037 C 
HETATM   18  C   UNL     1       6.374  33.689  64.000  1.00  0.00     0.127 C 
HETATM   19  C   UNL     1       5.089  33.439  64.770  1.00  0.00     0.022 C 
HETATM   20  C   UNL     1       6.238  31.373  57.836  1.00  0.00     0.032 A 
HETATM   21  O   UNL     1       8.170  32.667  62.137  1.00  0.00    -0.267 OA
ENDBRANCH   2   5
BRANCH   1  22
HETATM   22  C   UNL     1       8.307  27.403  57.101  1.00  0.00     0.108 C 
BRANCH  22  23
HETATM   23  C   UNL     1       7.853  25.950  57.025  1.00  0.00     0.050 C 
BRANCH  23  24
HETATM   24  C   UNL     1       7.580  25.430  55.645  1.00  0.00    -0.030 A 
HETATM   25  C   UNL     1       8.067  24.188  55.119  1.00  0.00    -0.002 A 
HETATM   26  C   UNL     1       7.581  24.053  53.813  1.00  0.00     0.045 A 
HETATM   27  C   UNL     1       8.879  23.163  55.652  1.00  0.00     0.014 A 
HETATM   28  N   UNL     1       6.822  25.176  53.551  1.00  0.00    -0.352 N 
HETATM   29  C   UNL     1       7.886  22.926  53.028  1.00  0.00     0.030 A 
HETATM   30  C   UNL     1       6.824  26.007  54.646  1.00  0.00     0.099 A 
HETATM   31  C   UNL     1       8.692  21.927  53.581  1.00  0.00     0.002 A 
HETATM   32  C   UNL     1       9.185  22.042  54.876  1.00  0.00     0.001 A 
BRANCH  28  33
HETATM   33  C   UNL     1       6.103  25.454  52.305  1.00  0.00     0.081 C 
HETATM   34  C   UNL     1       5.963  26.957  52.057  1.00  0.00     0.032 C 
HETATM   35  C   UNL     1       4.745  24.751  52.272  1.00  0.00     0.032 C 
ENDBRANCH  28  33
ENDBRANCH  23  24
ENDBRANCH  22  23
ENDBRANCH   1  22
TORSDOF 5
ENDMDL
MODEL 9
REMARK VINA RESULT:      -9.8      1.841      2.323
REMARK  5 active torsions:
REMARK  status: ('A' for Active; 'I' for Inactive)
REMARK    1  A    between atoms: C_2  and  N_3 
REMARK    2  A    between atoms: C_10  and  C_11 
REMARK    3  A    between atoms: C_11  and  C_12 
REMARK    4  A    between atoms: C_12  and  C_13 
REMARK       I    between atoms: C_13  and  N_14 
REMARK    5  A    between atoms: N_14  and  C_15 
ROOT
HETATM    1  C   UNL     1       5.099  31.252  57.770  1.00  0.00     0.222 C 
HETATM    2  N   UNL     1       5.944  30.473  57.005  1.00  0.00    -0.327 N 
HETATM    3  O   UNL     1       3.903  31.032  57.946  1.00  0.00    -0.273 OA
HETATM    4  H   UNL     1       6.924  30.713  56.996  1.00  0.00     0.169 HD
ENDROOT
BRANCH   2   5
HETATM    5  C   UNL     1       5.613  29.334  56.238  1.00  0.00     0.035 A 
HETATM    6  C   UNL     1       6.123  28.053  56.454  1.00  0.00     0.049 A 
HETATM    7  C   UNL     1       5.771  26.969  55.616  1.00  0.00     0.061 A 
HETATM    8  C   UNL     1       4.891  27.178  54.545  1.00  0.00     0.050 A 
HETATM    9  C   UNL     1       6.259  25.634  56.055  1.00  0.00     0.256 C 
HETATM   10  N   UNL     1       4.491  26.225  53.595  1.00  0.00    -0.324 N 
HETATM   11  C   UNL     1       4.329  28.451  54.376  1.00  0.00     0.033 A 
HETATM   12  C   UNL     1       5.185  25.146  53.121  1.00  0.00     0.245 C 
HETATM   13  H   UNL     1       3.682  26.429  53.019  1.00  0.00     0.169 HD
HETATM   14  O   UNL     1       4.720  24.542  52.152  1.00  0.00    -0.271 OA
HETATM   15  C   UNL     1       6.583  24.882  53.672  1.00  0.00     0.180 C 
HETATM   16  N   UNL     1       6.538  24.676  55.110  1.00  0.00    -0.334 N 
HETATM   17  C   UNL     1       7.192  23.587  53.119  1.00  0.00     0.037 C 
HETATM   18  C   UNL     1       7.135  23.406  55.484  1.00  0.00     0.127 C 
HETATM   19  C   UNL     1       7.999  23.042  54.289  1.00  0.00     0.022 C 
HETATM   20  C   UNL     1       4.697  29.518  55.201  1.00  0.00     0.032 A 
HETATM   21  O   UNL     1       6.400  25.421  57.257  1.00  0.00    -0.267 OA
ENDBRANCH   2   5
BRANCH   1  22
HETATM   22  C   UNL     1       5.740  32.434  58.492  1.00  0.00     0.108 C 
BRANCH  22  23
HETATM   23  C   UNL     1       6.355  32.160  59.860  1.00  0.00     0.050 C 
BRANCH  23  24
HETATM   24  C   UNL     1       5.781  32.954  60.996  1.00  0.00    -0.030 A 
HETATM   25  C   UNL     1       6.399  33.125  62.278  1.00  0.00    -0.002 A 
HETATM   26  C   UNL     1       5.567  33.943  63.052  1.00  0.00     0.045 A 
HETATM   27  C   UNL     1       7.604  32.654  62.843  1.00  0.00     0.014 A 
HETATM   28  N   UNL     1       4.476  34.260  62.267  1.00  0.00    -0.352 N 
HETATM   29  C   UNL     1       5.906  34.300  64.369  1.00  0.00     0.030 A 
HETATM   30  C   UNL     1       4.599  33.663  61.035  1.00  0.00     0.099 A 
HETATM   31  C   UNL     1       7.104  33.819  64.903  1.00  0.00     0.002 A 
HETATM   32  C   UNL     1       7.945  33.006  64.152  1.00  0.00     0.001 A 
BRANCH  28  33
HETATM   33  C   UNL     1       3.353  35.114  62.662  1.00  0.00     0.081 C 
HETATM   34  C   UNL     1       2.059  34.312  62.810  1.00  0.00     0.032 C 
HETATM   35  C   UNL     1       3.178  36.291  61.701  1.00  0.00     0.032 C 
ENDBRANCH  28  33
ENDBRANCH  23  24
ENDBRANCH  22  23
ENDBRANCH   1  22
TORSDOF 5
ENDMDL
MODEL 10
REMARK VINA RESULT:      -9.6      4.235      6.558
REMARK  5 active torsions:
REMARK  status: ('A' for Active; 'I' for Inactive)
REMARK    1  A    between atoms: C_2  and  N_3 
REMARK    2  A    between atoms: C_10  and  C_11 
REMARK    3  A    between atoms: C_11  and  C_12 
REMARK    4  A    between atoms: C_12  and  C_13 
REMARK       I    between atoms: C_13  and  N_14 
REMARK    5  A    between atoms: N_14  and  C_15 
ROOT
HETATM    1  C   UNL     1       6.466  27.246  55.665  1.00  0.00     0.222 C 
HETATM    2  N   UNL     1       5.544  27.747  54.768  1.00  0.00    -0.327 N 
HETATM    3  O   UNL     1       7.412  26.518  55.372  1.00  0.00    -0.273 OA
HETATM    4  H   UNL     1       4.854  28.395  55.118  1.00  0.00     0.169 HD
ENDROOT
BRANCH   2   5
HETATM    5  C   UNL     1       5.456  27.489  53.382  1.00  0.00     0.035 A 
HETATM    6  C   UNL     1       5.429  28.469  52.390  1.00  0.00     0.049 A 
HETATM    7  C   UNL     1       5.302  28.130  51.022  1.00  0.00     0.061 A 
HETATM    8  C   UNL     1       5.200  26.783  50.649  1.00  0.00     0.050 A 
HETATM    9  C   UNL     1       5.447  29.259  50.065  1.00  0.00     0.256 C 
HETATM   10  N   UNL     1       5.011  26.289  49.348  1.00  0.00    -0.324 N 
HETATM   11  C   UNL     1       5.297  25.801  51.645  1.00  0.00     0.033 A 
HETATM   12  C   UNL     1       4.360  26.873  48.297  1.00  0.00     0.245 C 
HETATM   13  H   UNL     1       5.188  25.305  49.176  1.00  0.00     0.169 HD
HETATM   14  O   UNL     1       4.152  26.187  47.294  1.00  0.00    -0.271 OA
HETATM   15  C   UNL     1       3.746  28.256  48.501  1.00  0.00     0.180 C 
HETATM   16  N   UNL     1       4.767  29.222  48.872  1.00  0.00    -0.334 N 
HETATM   17  C   UNL     1       3.138  28.819  47.209  1.00  0.00     0.037 C 
HETATM   18  C   UNL     1       4.780  30.356  47.965  1.00  0.00     0.127 C 
HETATM   19  C   UNL     1       3.413  30.313  47.306  1.00  0.00     0.022 C 
HETATM   20  C   UNL     1       5.408  26.149  52.994  1.00  0.00     0.032 A 
HETATM   21  O   UNL     1       6.176  30.201  50.367  1.00  0.00    -0.267 OA
ENDBRANCH   2   5
BRANCH   1  22
HETATM   22  C   UNL     1       6.312  27.698  57.114  1.00  0.00     0.108 C 
BRANCH  22  23
HETATM   23  C   UNL     1       6.005  29.172  57.352  1.00  0.00     0.050 C 
BRANCH  23  24
HETATM   24  C   UNL     1       7.096  29.961  58.012  1.00  0.00    -0.030 A 
HETATM   25  C   UNL     1       8.472  29.965  57.608  1.00  0.00    -0.002 A 
HETATM   26  C   UNL     1       9.168  30.836  58.455  1.00  0.00     0.045 A 
HETATM   27  C   UNL     1       9.182  29.301  56.585  1.00  0.00     0.014 A 
HETATM   28  N   UNL     1       8.246  31.347  59.347  1.00  0.00    -0.352 N 
HETATM   29  C   UNL     1      10.548  31.059  58.308  1.00  0.00     0.030 A 
HETATM   30  C   UNL     1       7.003  30.819  59.087  1.00  0.00     0.099 A 
HETATM   31  C   UNL     1      11.226  30.387  57.286  1.00  0.00     0.002 A 
HETATM   32  C   UNL     1      10.555  29.518  56.434  1.00  0.00     0.001 A 
BRANCH  28  33
HETATM   33  C   UNL     1       8.525  32.317  60.408  1.00  0.00     0.081 C 
HETATM   34  C   UNL     1       9.487  31.750  61.454  1.00  0.00     0.032 C 
HETATM   35  C   UNL     1       7.237  32.832  61.052  1.00  0.00     0.032 C 
ENDBRANCH  28  33
ENDBRANCH  23  24
ENDBRANCH  22  23
ENDBRANCH   1  22
TORSDOF 5
ENDMDL
