MODEL 1
REMARK VINA RESULT:     -10.4      0.000      0.000
REMARK  5 active torsions:
REMARK  status: ('A' for Active; 'I' for Inactive)
REMARK    1  A    between atoms: C_9  and  N_10 
REMARK       I    between atoms: N_10  and  C_11 
REMARK    2  A    between atoms: C_11  and  C_12 
REMARK    3  A    between atoms: C_14  and  O_15 
REMARK    4  A    between atoms: O_15  and  C_16 
REMARK    5  A    between atoms: C_16  and  C_17 
ROOT
HETATM    1  C   UNL     1       6.819  25.707  55.882  1.00  0.00    -0.013 A 
HETATM    2  C   UNL     1       7.165  24.528  55.192  1.00  0.00     0.053 A 
HETATM    3  C   UNL     1       8.130  23.604  55.722  1.00  0.00     0.100 C 
HETATM    4  N   UNL     1       8.897  22.849  56.159  1.00  0.00    -0.191 NA
HETATM    5  C   UNL     1       6.559  24.231  53.962  1.00  0.00     0.023 A 
HETATM    6  C   UNL     1       5.613  25.098  53.415  1.00  0.00     0.002 A 
HETATM    7  C   UNL     1       5.269  26.266  54.089  1.00  0.00     0.001 A 
HETATM    8  C   UNL     1       5.867  26.571  55.313  1.00  0.00     0.011 A 
ENDROOT
BRANCH   1   9
HETATM    9  C   UNL     1       7.448  26.063  57.211  1.00  0.00     0.216 C 
BRANCH   9  10
HETATM   10  O   UNL     1       7.082  27.402  57.532  1.00  0.00    -0.347 OA
BRANCH  10  11
HETATM   11  C   UNL     1       8.083  28.333  57.560  1.00  0.00     0.070 A 
HETATM   12  C   UNL     1       7.902  29.356  58.494  1.00  0.00     0.053 A 
HETATM   13  C   UNL     1       8.855  30.372  58.636  1.00  0.00     0.035 A 
HETATM   14  C   UNL     1      10.015  30.342  57.852  1.00  0.00     0.017 A 
HETATM   15  C   UNL     1      10.198  29.321  56.919  1.00  0.00     0.004 A 
HETATM   16  C   UNL     1       9.234  28.319  56.772  1.00  0.00     0.037 A 
BRANCH  13  17
HETATM   17  C   UNL     1       8.629  31.421  59.671  1.00  0.00     0.256 C 
HETATM   18  N   UNL     1       7.872  31.027  60.764  1.00  0.00    -0.323 N 
HETATM   19  H   UNL     1       7.651  30.042  60.837  1.00  0.00     0.169 HD
HETATM   20  O   UNL     1       9.114  32.533  59.497  1.00  0.00    -0.267 OA
BRANCH  18  21
HETATM   21  C   UNL     1       7.393  31.850  61.805  1.00  0.00     0.035 A 
HETATM   22  C   UNL     1       6.091  32.356  61.850  1.00  0.00     0.039 A 
HETATM   23  C   UNL     1       5.701  33.115  62.942  1.00  0.00    -0.022 A 
HETATM   24  C   UNL     1       4.362  33.711  63.204  1.00  0.00     0.274 C 
HETATM   25  C   UNL     1       6.577  33.376  63.996  1.00  0.00    -0.025 A 
HETATM   26  N   UNL     1       4.563  34.579  64.441  1.00  0.00    -0.067 N 
HETATM   27  C   UNL     1       3.408  34.587  65.377  1.00  0.00     0.270 C 
HETATM   28  H   UNL     1       4.711  35.532  64.090  1.00  0.00     0.280 HD
HETATM   29  C   UNL     1       5.887  34.151  65.065  1.00  0.00     0.273 C 
HETATM   30  C   UNL     1       7.874  32.894  63.971  1.00  0.00     0.012 A 
HETATM   31  C   UNL     1       8.278  32.134  62.865  1.00  0.00     0.030 A 
ENDBRANCH  18  21
ENDBRANCH  13  17
ENDBRANCH  10  11
ENDBRANCH   9  10
ENDBRANCH   1   9
TORSDOF 5
ENDMDL
MODEL 2
REMARK VINA RESULT:      -9.9      2.630      5.453
REMARK  5 active torsions:
REMARK  status: ('A' for Active; 'I' for Inactive)
REMARK    1  A    between atoms: C_9  and  N_10 
REMARK       I    between atoms: N_10  and  C_11 
REMARK    2  A    between atoms: C_11  and  C_12 
REMARK    3  A    between atoms: C_14  and  O_15 
REMARK    4  A    between atoms: O_15  and  C_16 
REMARK    5  A    between atoms: C_16  and  C_17 
ROOT
HETATM    1  C   UNL     1       7.898  22.927  53.813  1.00  0.00    -0.013 A 
HETATM    2  C   UNL     1       7.921  22.661  55.197  1.00  0.00     0.053 A 
HETATM    3  C   UNL     1       7.821  23.719  56.166  1.00  0.00     0.100 C 
HETATM    4  N   UNL     1       7.723  24.572  56.948  1.00  0.00    -0.191 NA
HETATM    5  C   UNL     1       8.036  21.341  55.656  1.00  0.00     0.023 A 
HETATM    6  C   UNL     1       8.129  20.284  54.750  1.00  0.00     0.002 A 
HETATM    7  C   UNL     1       8.111  20.539  53.382  1.00  0.00     0.001 A 
HETATM    8  C   UNL     1       7.998  21.849  52.914  1.00  0.00     0.011 A 
ENDROOT
BRANCH   1   9
HETATM    9  C   UNL     1       7.773  24.335  53.277  1.00  0.00     0.216 C 
BRANCH   9  10
HETATM   10  O   UNL     1       6.455  24.500  52.761  1.00  0.00    -0.347 OA
BRANCH  10  11
HETATM   11  C   UNL     1       5.836  25.694  53.001  1.00  0.00     0.070 A 
HETATM   12  C   UNL     1       6.141  26.273  54.236  1.00  0.00     0.053 A 
HETATM   13  C   UNL     1       5.583  27.502  54.608  1.00  0.00     0.035 A 
HETATM   14  C   UNL     1       4.733  28.170  53.718  1.00  0.00     0.017 A 
HETATM   15  C   UNL     1       4.428  27.595  52.484  1.00  0.00     0.004 A 
HETATM   16  C   UNL     1       4.976  26.360  52.126  1.00  0.00     0.037 A 
BRANCH  13  17
HETATM   17  C   UNL     1       5.969  28.089  55.923  1.00  0.00     0.256 C 
HETATM   18  N   UNL     1       6.863  29.148  55.864  1.00  0.00    -0.323 N 
HETATM   19  H   UNL     1       7.074  29.518  54.946  1.00  0.00     0.169 HD
HETATM   20  O   UNL     1       5.485  27.614  56.943  1.00  0.00    -0.267 OA
BRANCH  18  21
HETATM   21  C   UNL     1       7.497  29.784  56.953  1.00  0.00     0.035 A 
HETATM   22  C   UNL     1       6.811  30.536  57.911  1.00  0.00     0.039 A 
HETATM   23  C   UNL     1       7.520  31.080  58.971  1.00  0.00    -0.022 A 
HETATM   24  C   UNL     1       6.982  31.873  60.111  1.00  0.00     0.274 C 
HETATM   25  C   UNL     1       8.894  30.885  59.104  1.00  0.00    -0.025 A 
HETATM   26  N   UNL     1       8.221  32.357  60.859  1.00  0.00    -0.067 N 
HETATM   27  C   UNL     1       8.066  32.394  62.337  1.00  0.00     0.270 C 
HETATM   28  H   UNL     1       8.394  33.311  60.520  1.00  0.00     0.280 HD
HETATM   29  C   UNL     1       9.389  31.515  60.360  1.00  0.00     0.273 C 
HETATM   30  C   UNL     1       9.597  30.151  58.164  1.00  0.00     0.012 A 
HETATM   31  C   UNL     1       8.889  29.607  57.083  1.00  0.00     0.030 A 
ENDBRANCH  18  21
ENDBRANCH  13  17
ENDBRANCH  10  11
ENDBRANCH   9  10
ENDBRANCH   1   9
TORSDOF 5
ENDMDL
MODEL 3
REMARK VINA RESULT:      -9.8      1.433      2.061
REMARK  5 active torsions:
REMARK  status: ('A' for Active; 'I' for Inactive)
REMARK    1  A    between atoms: C_9  and  N_10 
REMARK       I    between atoms: N_10  and  C_11 
REMARK    2  A    between atoms: C_11  and  C_12 
REMARK    3  A    between atoms: C_14  and  O_15 
REMARK    4  A    between atoms: O_15  and  C_16 
REMARK    5  A    between atoms: C_16  and  C_17 
ROOT
HETATM    1  C   UNL     1       7.535  25.698  56.581  1.00  0.00    -0.013 A 
HETATM    2  C   UNL     1       6.795  25.277  55.459  1.00  0.00     0.053 A 
HETATM    3  C   UNL     1       5.807  26.125  54.849  1.00  0.00     0.100 C 
HETATM    4  N   UNL     1       5.021  26.817  54.348  1.00  0.00    -0.191 NA
HETATM    5  C   UNL     1       7.020  24.007  54.906  1.00  0.00     0.023 A 
HETATM    6  C   UNL     1       7.974  23.155  55.462  1.00  0.00     0.002 A 
HETATM    7  C   UNL     1       8.706  23.562  56.573  1.00  0.00     0.001 A 
HETATM    8  C   UNL     1       8.489  24.824  57.131  1.00  0.00     0.011 A 
ENDROOT
BRANCH   1   9
HETATM    9  C   UNL     1       7.324  27.059  57.206  1.00  0.00     0.216 C 
BRANCH   9  10
HETATM   10  O   UNL     1       7.890  28.039  56.339  1.00  0.00    -0.347 OA
BRANCH  10  11
HETATM   11  C   UNL     1       8.715  28.970  56.904  1.00  0.00     0.070 A 
HETATM   12  C   UNL     1       8.353  29.364  58.195  1.00  0.00     0.053 A 
HETATM   13  C   UNL     1       9.116  30.307  58.896  1.00  0.00     0.035 A 
HETATM   14  C   UNL     1      10.269  30.836  58.304  1.00  0.00     0.017 A 
HETATM   15  C   UNL     1      10.633  30.443  57.016  1.00  0.00     0.004 A 
HETATM   16  C   UNL     1       9.857  29.515  56.316  1.00  0.00     0.037 A 
BRANCH  13  17
HETATM   17  C   UNL     1       8.704  30.665  60.283  1.00  0.00     0.256 C 
HETATM   18  N   UNL     1       7.829  31.735  60.388  1.00  0.00    -0.323 N 
HETATM   19  H   UNL     1       7.441  32.096  59.526  1.00  0.00     0.169 HD
HETATM   20  O   UNL     1       9.150  30.008  61.216  1.00  0.00    -0.267 OA
BRANCH  18  21
HETATM   21  C   UNL     1       7.400  32.366  61.576  1.00  0.00     0.035 A 
HETATM   22  C   UNL     1       6.144  32.962  61.721  1.00  0.00     0.039 A 
HETATM   23  C   UNL     1       5.797  33.512  62.945  1.00  0.00    -0.022 A 
HETATM   24  C   UNL     1       4.508  34.153  63.321  1.00  0.00     0.274 C 
HETATM   25  C   UNL     1       6.671  33.475  64.032  1.00  0.00    -0.025 A 
HETATM   26  N   UNL     1       4.757  34.730  64.711  1.00  0.00    -0.067 N 
HETATM   27  C   UNL     1       3.588  34.644  65.626  1.00  0.00     0.270 C 
HETATM   28  H   UNL     1       4.990  35.718  64.563  1.00  0.00     0.280 HD
HETATM   29  C   UNL     1       6.027  34.071  65.236  1.00  0.00     0.273 C 
HETATM   30  C   UNL     1       7.924  32.899  63.911  1.00  0.00     0.012 A 
HETATM   31  C   UNL     1       8.285  32.350  62.673  1.00  0.00     0.030 A 
ENDBRANCH  18  21
ENDBRANCH  13  17
ENDBRANCH  10  11
ENDBRANCH   9  10
ENDBRANCH   1   9
TORSDOF 5
ENDMDL
MODEL 4
REMARK VINA RESULT:      -9.8      1.970     10.263
REMARK  5 active torsions:
REMARK  status: ('A' for Active; 'I' for Inactive)
REMARK    1  A    between atoms: C_9  and  N_10 
REMARK       I    between atoms: N_10  and  C_11 
REMARK    2  A    between atoms: C_11  and  C_12 
REMARK    3  A    between atoms: C_14  and  O_15 
REMARK    4  A    between atoms: O_15  and  C_16 
REMARK    5  A    between atoms: C_16  and  C_17 
ROOT
HETATM    1  C   UNL     1       6.888  32.412  63.245  1.00  0.00    -0.013 A 
HETATM    2  C   UNL     1       5.514  32.633  63.464  1.00  0.00     0.053 A 
HETATM    3  C   UNL     1       4.513  32.030  62.628  1.00  0.00     0.100 C 
HETATM    4  N   UNL     1       3.704  31.528  61.962  1.00  0.00    -0.191 NA
HETATM    5  C   UNL     1       5.096  33.454  64.523  1.00  0.00     0.023 A 
HETATM    6  C   UNL     1       6.035  34.054  65.363  1.00  0.00     0.002 A 
HETATM    7  C   UNL     1       7.393  33.843  65.149  1.00  0.00     0.001 A 
HETATM    8  C   UNL     1       7.820  33.029  64.098  1.00  0.00     0.011 A 
ENDROOT
BRANCH   1   9
HETATM    9  C   UNL     1       7.380  31.534  62.115  1.00  0.00     0.216 C 
BRANCH   9  10
HETATM   10  O   UNL     1       7.566  32.353  60.964  1.00  0.00    -0.347 OA
BRANCH  10  11
HETATM   11  C   UNL     1       7.015  31.916  59.792  1.00  0.00     0.070 A 
HETATM   12  C   UNL     1       7.620  30.780  59.249  1.00  0.00     0.053 A 
HETATM   13  C   UNL     1       7.150  30.220  58.055  1.00  0.00     0.035 A 
HETATM   14  C   UNL     1       6.042  30.789  57.417  1.00  0.00     0.017 A 
HETATM   15  C   UNL     1       5.435  31.923  57.957  1.00  0.00     0.004 A 
HETATM   16  C   UNL     1       5.920  32.486  59.141  1.00  0.00     0.037 A 
BRANCH  13  17
HETATM   17  C   UNL     1       7.813  28.987  57.539  1.00  0.00     0.256 C 
HETATM   18  N   UNL     1       7.019  28.169  56.750  1.00  0.00    -0.323 N 
HETATM   19  H   UNL     1       6.113  28.531  56.481  1.00  0.00     0.169 HD
HETATM   20  O   UNL     1       8.985  28.783  57.834  1.00  0.00    -0.267 OA
BRANCH  18  21
HETATM   21  C   UNL     1       7.347  26.887  56.259  1.00  0.00     0.035 A 
HETATM   22  C   UNL     1       7.751  25.829  57.077  1.00  0.00     0.039 A 
HETATM   23  C   UNL     1       8.002  24.592  56.502  1.00  0.00    -0.022 A 
HETATM   24  C   UNL     1       8.401  23.335  57.191  1.00  0.00     0.274 C 
HETATM   25  C   UNL     1       7.853  24.384  55.131  1.00  0.00    -0.025 A 
HETATM   26  N   UNL     1       8.715  22.361  56.060  1.00  0.00    -0.067 N 
HETATM   27  C   UNL     1       8.314  20.956  56.333  1.00  0.00     0.270 C 
HETATM   28  H   UNL     1       9.734  22.396  55.938  1.00  0.00     0.280 HD
HETATM   29  C   UNL     1       8.119  22.958  54.790  1.00  0.00     0.273 C 
HETATM   30  C   UNL     1       7.463  25.419  54.298  1.00  0.00     0.012 A 
HETATM   31  C   UNL     1       7.217  26.674  54.871  1.00  0.00     0.030 A 
ENDBRANCH  18  21
ENDBRANCH  13  17
ENDBRANCH  10  11
ENDBRANCH   9  10
ENDBRANCH   1   9
TORSDOF 5
ENDMDL
MODEL 5
REMARK VINA RESULT:      -9.7      6.148      9.940
REMARK  5 active torsions:
REMARK  status: ('A' for Active; 'I' for Inactive)
REMARK    1  A    between atoms: C_9  and  N_10 
REMARK       I    between atoms: N_10  and  C_11 
REMARK    2  A    between atoms: C_11  and  C_12 
REMARK    3  A    between atoms: C_14  and  O_15 
REMARK    4  A    between atoms: O_15  and  C_16 
REMARK    5  A    between atoms: C_16  and  C_17 
ROOT
HETATM    1  C   UNL     1       7.568  22.513  55.076  1.00  0.00    -0.013 A 
HETATM    2  C   UNL     1       7.970  22.482  53.726  1.00  0.00     0.053 A 
HETATM    3  C   UNL     1       7.793  23.618  52.863  1.00  0.00     0.100 C 
HETATM    4  N   UNL     1       7.665  24.541  52.171  1.00  0.00    -0.191 NA
HETATM    5  C   UNL     1       8.564  21.326  53.197  1.00  0.00     0.023 A 
HETATM    6  C   UNL     1       8.761  20.203  54.002  1.00  0.00     0.002 A 
HETATM    7  C   UNL     1       8.363  20.225  55.335  1.00  0.00     0.001 A 
HETATM    8  C   UNL     1       7.769  21.370  55.870  1.00  0.00     0.011 A 
ENDROOT
BRANCH   1   9
HETATM    9  C   UNL     1       6.925  23.740  55.684  1.00  0.00     0.216 C 
BRANCH   9  10
HETATM   10  O   UNL     1       7.949  24.525  56.288  1.00  0.00    -0.347 OA
BRANCH  10  11
HETATM   11  C   UNL     1       7.805  25.883  56.238  1.00  0.00     0.070 A 
HETATM   12  C   UNL     1       7.044  26.351  55.163  1.00  0.00     0.053 A 
HETATM   13  C   UNL     1       6.809  27.720  54.995  1.00  0.00     0.035 A 
HETATM   14  C   UNL     1       7.318  28.627  55.933  1.00  0.00     0.017 A 
HETATM   15  C   UNL     1       8.077  28.163  57.008  1.00  0.00     0.004 A 
HETATM   16  C   UNL     1       8.322  26.795  57.160  1.00  0.00     0.037 A 
BRANCH  13  17
HETATM   17  C   UNL     1       5.962  28.161  53.850  1.00  0.00     0.256 C 
HETATM   18  N   UNL     1       6.147  27.463  52.667  1.00  0.00    -0.323 N 
HETATM   19  H   UNL     1       6.732  26.638  52.708  1.00  0.00     0.169 HD
HETATM   20  O   UNL     1       5.176  29.086  54.022  1.00  0.00    -0.267 OA
BRANCH  18  21
HETATM   21  C   UNL     1       5.587  27.764  51.407  1.00  0.00     0.035 A 
HETATM   22  C   UNL     1       5.588  29.046  50.850  1.00  0.00     0.039 A 
HETATM   23  C   UNL     1       5.057  29.230  49.583  1.00  0.00    -0.022 A 
HETATM   24  C   UNL     1       4.995  30.493  48.798  1.00  0.00     0.274 C 
HETATM   25  C   UNL     1       4.532  28.163  48.853  1.00  0.00    -0.025 A 
HETATM   26  N   UNL     1       4.152  30.143  47.575  1.00  0.00    -0.067 N 
HETATM   27  C   UNL     1       4.593  30.806  46.319  1.00  0.00     0.270 C 
HETATM   28  H   UNL     1       3.199  30.454  47.797  1.00  0.00     0.280 HD
HETATM   29  C   UNL     1       4.093  28.622  47.505  1.00  0.00     0.273 C 
HETATM   30  C   UNL     1       4.511  26.886  49.386  1.00  0.00     0.012 A 
HETATM   31  C   UNL     1       5.037  26.695  50.671  1.00  0.00     0.030 A 
ENDBRANCH  18  21
ENDBRANCH  13  17
ENDBRANCH  10  11
ENDBRANCH   9  10
ENDBRANCH   1   9
TORSDOF 5
ENDMDL
MODEL 6
REMARK VINA RESULT:      -9.6      2.597      9.953
REMARK  5 active torsions:
REMARK  status: ('A' for Active; 'I' for Inactive)
REMARK    1  A    between atoms: C_9  and  N_10 
REMARK       I    between atoms: N_10  and  C_11 
REMARK    2  A    between atoms: C_11  and  C_12 
REMARK    3  A    between atoms: C_14  and  O_15 
REMARK    4  A    between atoms: O_15  and  C_16 
REMARK    5  A    between atoms: C_16  and  C_17 
ROOT
HETATM    1  C   UNL     1       7.115  32.245  60.595  1.00  0.00    -0.013 A 
HETATM    2  C   UNL     1       7.151  31.897  61.960  1.00  0.00     0.053 A 
HETATM    3  C   UNL     1       5.950  31.815  62.746  1.00  0.00     0.100 C 
HETATM    4  N   UNL     1       4.978  31.733  63.376  1.00  0.00    -0.191 NA
HETATM    5  C   UNL     1       8.377  31.614  62.581  1.00  0.00     0.023 A 
HETATM    6  C   UNL     1       9.566  31.675  61.853  1.00  0.00     0.002 A 
HETATM    7  C   UNL     1       9.539  32.022  60.506  1.00  0.00     0.001 A 
HETATM    8  C   UNL     1       8.324  32.307  59.880  1.00  0.00     0.011 A 
ENDROOT
BRANCH   1   9
HETATM    9  C   UNL     1       5.814  32.557  59.889  1.00  0.00     0.216 C 
BRANCH   9  10
HETATM   10  O   UNL     1       6.049  32.512  58.485  1.00  0.00    -0.347 OA
BRANCH  10  11
HETATM   11  C   UNL     1       5.241  31.696  57.743  1.00  0.00     0.070 A 
HETATM   12  C   UNL     1       5.880  30.581  57.196  1.00  0.00     0.053 A 
HETATM   13  C   UNL     1       5.169  29.656  56.421  1.00  0.00     0.035 A 
HETATM   14  C   UNL     1       3.796  29.839  56.219  1.00  0.00     0.017 A 
HETATM   15  C   UNL     1       3.155  30.952  56.765  1.00  0.00     0.004 A 
HETATM   16  C   UNL     1       3.875  31.879  57.523  1.00  0.00     0.037 A 
BRANCH  13  17
HETATM   17  C   UNL     1       5.894  28.466  55.891  1.00  0.00     0.256 C 
HETATM   18  N   UNL     1       5.926  27.363  56.730  1.00  0.00    -0.323 N 
HETATM   19  H   UNL     1       5.352  27.405  57.563  1.00  0.00     0.169 HD
HETATM   20  O   UNL     1       6.400  28.535  54.776  1.00  0.00    -0.267 OA
BRANCH  18  21
HETATM   21  C   UNL     1       6.658  26.172  56.538  1.00  0.00     0.035 A 
HETATM   22  C   UNL     1       6.411  25.276  55.494  1.00  0.00     0.039 A 
HETATM   23  C   UNL     1       7.220  24.158  55.362  1.00  0.00    -0.022 A 
HETATM   24  C   UNL     1       7.154  23.108  54.309  1.00  0.00     0.274 C 
HETATM   25  C   UNL     1       8.275  23.916  56.242  1.00  0.00    -0.025 A 
HETATM   26  N   UNL     1       8.148  22.044  54.764  1.00  0.00    -0.067 N 
HETATM   27  C   UNL     1       8.901  21.397  53.658  1.00  0.00     0.270 C 
HETATM   28  H   UNL     1       7.589  21.331  55.246  1.00  0.00     0.280 HD
HETATM   29  C   UNL     1       9.019  22.690  55.836  1.00  0.00     0.273 C 
HETATM   30  C   UNL     1       8.534  24.783  57.289  1.00  0.00     0.012 A 
HETATM   31  C   UNL     1       7.714  25.910  57.435  1.00  0.00     0.030 A 
ENDBRANCH  18  21
ENDBRANCH  13  17
ENDBRANCH  10  11
ENDBRANCH   9  10
ENDBRANCH   1   9
TORSDOF 5
ENDMDL
MODEL 7
REMARK VINA RESULT:      -9.4      2.125      3.499
REMARK  5 active torsions:
REMARK  status: ('A' for Active; 'I' for Inactive)
REMARK    1  A    between atoms: C_9  and  N_10 
REMARK       I    between atoms: N_10  and  C_11 
REMARK    2  A    between atoms: C_11  and  C_12 
REMARK    3  A    between atoms: C_14  and  O_15 
REMARK    4  A    between atoms: O_15  and  C_16 
REMARK    5  A    between atoms: C_16  and  C_17 
ROOT
HETATM    1  C   UNL     1       7.649  22.842  55.484  1.00  0.00    -0.013 A 
HETATM    2  C   UNL     1       8.055  22.563  54.164  1.00  0.00     0.053 A 
HETATM    3  C   UNL     1       7.794  23.480  53.088  1.00  0.00     0.100 C 
HETATM    4  N   UNL     1       7.598  24.229  52.223  1.00  0.00    -0.191 NA
HETATM    5  C   UNL     1       8.736  21.370  53.877  1.00  0.00     0.023 A 
HETATM    6  C   UNL     1       9.015  20.455  54.892  1.00  0.00     0.002 A 
HETATM    7  C   UNL     1       8.614  20.723  56.198  1.00  0.00     0.001 A 
HETATM    8  C   UNL     1       7.935  21.906  56.494  1.00  0.00     0.011 A 
ENDROOT
BRANCH   1   9
HETATM    9  C   UNL     1       6.914  24.116  55.836  1.00  0.00     0.216 C 
BRANCH   9  10
HETATM   10  O   UNL     1       7.876  25.091  56.228  1.00  0.00    -0.347 OA
BRANCH  10  11
HETATM   11  C   UNL     1       7.657  26.380  55.829  1.00  0.00     0.070 A 
HETATM   12  C   UNL     1       7.390  27.276  56.867  1.00  0.00     0.053 A 
HETATM   13  C   UNL     1       7.155  28.630  56.601  1.00  0.00     0.035 A 
HETATM   14  C   UNL     1       7.218  29.094  55.282  1.00  0.00     0.017 A 
HETATM   15  C   UNL     1       7.485  28.202  54.243  1.00  0.00     0.004 A 
HETATM   16  C   UNL     1       7.702  26.848  54.514  1.00  0.00     0.037 A 
BRANCH  13  17
HETATM   17  C   UNL     1       6.909  29.548  57.750  1.00  0.00     0.256 C 
HETATM   18  N   UNL     1       8.033  29.906  58.479  1.00  0.00    -0.323 N 
HETATM   19  H   UNL     1       8.930  29.631  58.102  1.00  0.00     0.169 HD
HETATM   20  O   UNL     1       5.762  29.920  57.970  1.00  0.00    -0.267 OA
BRANCH  18  21
HETATM   21  C   UNL     1       8.063  30.637  59.686  1.00  0.00     0.035 A 
HETATM   22  C   UNL     1       7.074  31.553  60.058  1.00  0.00     0.039 A 
HETATM   23  C   UNL     1       7.170  32.184  61.288  1.00  0.00    -0.022 A 
HETATM   24  C   UNL     1       6.214  33.154  61.889  1.00  0.00     0.274 C 
HETATM   25  C   UNL     1       8.225  31.917  62.162  1.00  0.00    -0.025 A 
HETATM   26  N   UNL     1       6.912  33.649  63.151  1.00  0.00    -0.067 N 
HETATM   27  C   UNL     1       6.000  33.890  64.300  1.00  0.00     0.270 C 
HETATM   28  H   UNL     1       7.358  34.536  62.891  1.00  0.00     0.280 HD
HETATM   29  C   UNL     1       8.049  32.674  63.434  1.00  0.00     0.273 C 
HETATM   30  C   UNL     1       9.221  31.022  61.813  1.00  0.00     0.012 A 
HETATM   31  C   UNL     1       9.136  30.388  60.566  1.00  0.00     0.030 A 
ENDBRANCH  18  21
ENDBRANCH  13  17
ENDBRANCH  10  11
ENDBRANCH   9  10
ENDBRANCH   1   9
TORSDOF 5
ENDMDL
MODEL 8
REMARK VINA RESULT:      -9.4      3.534     10.316
REMARK  5 active torsions:
REMARK  status: ('A' for Active; 'I' for Inactive)
REMARK    1  A    between atoms: C_9  and  N_10 
REMARK       I    between atoms: N_10  and  C_11 
REMARK    2  A    between atoms: C_11  and  C_12 
REMARK    3  A    between atoms: C_14  and  O_15 
REMARK    4  A    between atoms: O_15  and  C_16 
REMARK    5  A    between atoms: C_16  and  C_17 
ROOT
HETATM    1  C   UNL     1       7.659  30.862  58.457  1.00  0.00    -0.013 A 
HETATM    2  C   UNL     1       9.067  30.847  58.520  1.00  0.00     0.053 A 
HETATM    3  C   UNL     1       9.853  30.103  57.574  1.00  0.00     0.100 C 
HETATM    4  N   UNL     1      10.488  29.516  56.799  1.00  0.00    -0.191 NA
HETATM    5  C   UNL     1       9.732  31.574  59.519  1.00  0.00     0.023 A 
HETATM    6  C   UNL     1       9.007  32.314  60.454  1.00  0.00     0.002 A 
HETATM    7  C   UNL     1       7.617  32.331  60.399  1.00  0.00     0.001 A 
HETATM    8  C   UNL     1       6.946  31.610  59.410  1.00  0.00     0.011 A 
ENDROOT
BRANCH   1   9
HETATM    9  C   UNL     1       6.904  30.094  57.395  1.00  0.00     0.216 C 
BRANCH   9  10
HETATM   10  O   UNL     1       5.883  30.940  56.875  1.00  0.00    -0.347 OA
BRANCH  10  11
HETATM   11  C   UNL     1       5.167  30.471  55.809  1.00  0.00     0.070 A 
HETATM   12  C   UNL     1       5.495  29.173  55.411  1.00  0.00     0.053 A 
HETATM   13  C   UNL     1       4.833  28.564  54.338  1.00  0.00     0.035 A 
HETATM   14  C   UNL     1       3.810  29.257  53.678  1.00  0.00     0.017 A 
HETATM   15  C   UNL     1       3.480  30.553  54.074  1.00  0.00     0.004 A 
HETATM   16  C   UNL     1       4.157  31.160  55.136  1.00  0.00     0.037 A 
BRANCH  13  17
HETATM   17  C   UNL     1       5.199  27.165  53.977  1.00  0.00     0.256 C 
HETATM   18  N   UNL     1       6.367  26.687  54.551  1.00  0.00    -0.323 N 
HETATM   19  H   UNL     1       6.799  27.265  55.260  1.00  0.00     0.169 HD
HETATM   20  O   UNL     1       4.464  26.542  53.220  1.00  0.00    -0.267 OA
BRANCH  18  21
HETATM   21  C   UNL     1       7.012  25.464  54.268  1.00  0.00     0.035 A 
HETATM   22  C   UNL     1       7.299  24.501  55.241  1.00  0.00     0.039 A 
HETATM   23  C   UNL     1       7.890  23.309  54.853  1.00  0.00    -0.022 A 
HETATM   24  C   UNL     1       8.240  22.146  55.715  1.00  0.00     0.274 C 
HETATM   25  C   UNL     1       8.195  23.049  53.517  1.00  0.00    -0.025 A 
HETATM   26  N   UNL     1       9.021  21.210  54.797  1.00  0.00    -0.067 N 
HETATM   27  C   UNL     1       8.765  19.766  55.037  1.00  0.00     0.270 C 
HETATM   28  H   UNL     1      10.012  21.406  54.981  1.00  0.00     0.280 HD
HETATM   29  C   UNL     1       8.757  21.677  53.370  1.00  0.00     0.273 C 
HETATM   30  C   UNL     1       7.930  23.990  52.537  1.00  0.00     0.012 A 
HETATM   31  C   UNL     1       7.341  25.202  52.923  1.00  0.00     0.030 A 
ENDBRANCH  18  21
ENDBRANCH  13  17
ENDBRANCH  10  11
ENDBRANCH   9  10
ENDBRANCH   1   9
TORSDOF 5
ENDMDL
MODEL 9
REMARK VINA RESULT:      -9.4      7.987     12.137
REMARK  5 active torsions:
REMARK  status: ('A' for Active; 'I' for Inactive)
REMARK    1  A    between atoms: C_9  and  N_10 
REMARK       I    between atoms: N_10  and  C_11 
REMARK    2  A    between atoms: C_11  and  C_12 
REMARK    3  A    between atoms: C_14  and  O_15 
REMARK    4  A    between atoms: O_15  and  C_16 
REMARK    5  A    between atoms: C_16  and  C_17 
ROOT
HETATM    1  C   UNL     1       7.993  22.791  53.942  1.00  0.00    -0.013 A 
HETATM    2  C   UNL     1       7.962  22.840  55.350  1.00  0.00     0.053 A 
HETATM    3  C   UNL     1       7.940  24.092  56.057  1.00  0.00     0.100 C 
HETATM    4  N   UNL     1       7.905  25.103  56.628  1.00  0.00    -0.191 NA
HETATM    5  C   UNL     1       7.945  21.650  56.093  1.00  0.00     0.023 A 
HETATM    6  C   UNL     1       7.959  20.414  55.446  1.00  0.00     0.002 A 
HETATM    7  C   UNL     1       7.993  20.358  54.057  1.00  0.00     0.001 A 
HETATM    8  C   UNL     1       8.011  21.536  53.308  1.00  0.00     0.011 A 
ENDROOT
BRANCH   1   9
HETATM    9  C   UNL     1       8.011  24.050  53.104  1.00  0.00     0.216 C 
BRANCH   9  10
HETATM   10  O   UNL     1       6.667  24.367  52.750  1.00  0.00    -0.347 OA
BRANCH  10  11
HETATM   11  C   UNL     1       6.361  25.689  52.585  1.00  0.00     0.070 A 
HETATM   12  C   UNL     1       5.720  25.995  51.382  1.00  0.00     0.053 A 
HETATM   13  C   UNL     1       5.341  27.310  51.086  1.00  0.00     0.035 A 
HETATM   14  C   UNL     1       5.582  28.323  52.023  1.00  0.00     0.017 A 
HETATM   15  C   UNL     1       6.221  28.020  53.226  1.00  0.00     0.004 A 
HETATM   16  C   UNL     1       6.611  26.708  53.506  1.00  0.00     0.037 A 
BRANCH  13  17
HETATM   17  C   UNL     1       4.630  27.574  49.803  1.00  0.00     0.256 C 
HETATM   18  N   UNL     1       3.253  27.702  49.898  1.00  0.00    -0.323 N 
HETATM   19  H   UNL     1       2.860  27.739  50.830  1.00  0.00     0.169 HD
HETATM   20  O   UNL     1       5.290  27.662  48.773  1.00  0.00    -0.267 OA
BRANCH  18  21
HETATM   21  C   UNL     1       2.335  27.809  48.832  1.00  0.00     0.035 A 
HETATM   22  C   UNL     1       1.639  28.983  48.530  1.00  0.00     0.039 A 
HETATM   23  C   UNL     1       0.796  29.000  47.429  1.00  0.00    -0.022 A 
HETATM   24  C   UNL     1      -0.000  30.147  46.913  1.00  0.00     0.274 C 
HETATM   25  C   UNL     1       0.637  27.877  46.617  1.00  0.00    -0.025 A 
HETATM   26  N   UNL     1      -0.867  29.547  45.811  1.00  0.00    -0.067 N 
HETATM   27  C   UNL     1      -1.077  30.441  44.642  1.00  0.00     0.270 C 
HETATM   28  H   UNL     1      -1.776  29.354  46.248  1.00  0.00     0.280 HD
HETATM   29  C   UNL     1      -0.266  28.187  45.473  1.00  0.00     0.273 C 
HETATM   30  C   UNL     1       1.308  26.700  46.901  1.00  0.00     0.012 A 
HETATM   31  C   UNL     1       2.154  26.672  48.018  1.00  0.00     0.030 A 
ENDBRANCH  18  21
ENDBRANCH  13  17
ENDBRANCH  10  11
ENDBRANCH   9  10
ENDBRANCH   1   9
TORSDOF 5
ENDMDL
MODEL 10
REMARK VINA RESULT:      -9.3      3.733      6.598
REMARK  5 active torsions:
REMARK  status: ('A' for Active; 'I' for Inactive)
REMARK    1  A    between atoms: C_9  and  N_10 
REMARK       I    between atoms: N_10  and  C_11 
REMARK    2  A    between atoms: C_11  and  C_12 
REMARK    3  A    between atoms: C_14  and  O_15 
REMARK    4  A    between atoms: O_15  and  C_16 
REMARK    5  A    between atoms: C_16  and  C_17 
ROOT
HETATM    1  C   UNL     1       5.114  27.453  50.104  1.00  0.00    -0.013 A 
HETATM    2  C   UNL     1       5.243  28.590  49.282  1.00  0.00     0.053 A 
HETATM    3  C   UNL     1       5.813  29.814  49.778  1.00  0.00     0.100 C 
HETATM    4  N   UNL     1       6.288  30.796  50.174  1.00  0.00    -0.191 NA
HETATM    5  C   UNL     1       4.817  28.543  47.946  1.00  0.00     0.023 A 
HETATM    6  C   UNL     1       4.264  27.373  47.423  1.00  0.00     0.002 A 
HETATM    7  C   UNL     1       4.130  26.248  48.229  1.00  0.00     0.001 A 
HETATM    8  C   UNL     1       4.550  26.285  49.560  1.00  0.00     0.011 A 
ENDROOT
BRANCH   1   9
HETATM    9  C   UNL     1       5.562  27.462  51.548  1.00  0.00     0.216 C 
BRANCH   9  10
HETATM   10  O   UNL     1       5.101  26.262  52.164  1.00  0.00    -0.347 OA
BRANCH  10  11
HETATM   11  C   UNL     1       5.972  25.614  52.995  1.00  0.00     0.070 A 
HETATM   12  C   UNL     1       6.389  26.360  54.101  1.00  0.00     0.053 A 
HETATM   13  C   UNL     1       7.274  25.815  55.038  1.00  0.00     0.035 A 
HETATM   14  C   UNL     1       7.721  24.497  54.879  1.00  0.00     0.017 A 
HETATM   15  C   UNL     1       7.305  23.750  53.777  1.00  0.00     0.004 A 
HETATM   16  C   UNL     1       6.434  24.307  52.836  1.00  0.00     0.037 A 
BRANCH  13  17
HETATM   17  C   UNL     1       7.660  26.642  56.217  1.00  0.00     0.256 C 
HETATM   18  N   UNL     1       7.767  28.004  55.981  1.00  0.00    -0.323 N 
HETATM   19  H   UNL     1       7.450  28.339  55.080  1.00  0.00     0.169 HD
HETATM   20  O   UNL     1       7.850  26.082  57.291  1.00  0.00    -0.267 OA
BRANCH  18  21
HETATM   21  C   UNL     1       8.250  28.984  56.874  1.00  0.00     0.035 A 
HETATM   22  C   UNL     1       7.459  29.593  57.852  1.00  0.00     0.039 A 
HETATM   23  C   UNL     1       8.041  30.509  58.715  1.00  0.00    -0.022 A 
HETATM   24  C   UNL     1       7.393  31.236  59.840  1.00  0.00     0.274 C 
HETATM   25  C   UNL     1       9.397  30.827  58.630  1.00  0.00    -0.025 A 
HETATM   26  N   UNL     1       8.449  32.231  60.312  1.00  0.00    -0.067 N 
HETATM   27  C   UNL     1       8.473  32.445  61.783  1.00  0.00     0.270 C 
HETATM   28  H   UNL     1       8.217  33.119  59.852  1.00  0.00     0.280 HD
HETATM   29  C   UNL     1       9.775  31.780  59.712  1.00  0.00     0.273 C 
HETATM   30  C   UNL     1      10.199  30.244  57.665  1.00  0.00     0.012 A 
HETATM   31  C   UNL     1       9.615  29.325  56.783  1.00  0.00     0.030 A 
ENDBRANCH  18  21
ENDBRANCH  13  17
ENDBRANCH  10  11
ENDBRANCH   9  10
ENDBRANCH   1   9
TORSDOF 5
ENDMDL
