MODEL 1
REMARK VINA RESULT:     -11.5      0.000      0.000
REMARK  5 active torsions:
REMARK  status: ('A' for Active; 'I' for Inactive)
REMARK    1  A    between atoms: C_4  and  C_5 
REMARK    2  A    between atoms: C_5  and  N_6 
REMARK       I    between atoms: N_6  and  C_7 
REMARK    3  A    between atoms: C_7  and  C_8 
REMARK    4  A    between atoms: C_20  and  N_21 
REMARK       I    between atoms: N_21  and  C_22 
REMARK    5  A    between atoms: C_22  and  C_23 
ROOT
HETATM    1  C   UNL     1       7.832  29.412  57.587  1.00  0.00     0.079 A 
HETATM    2  C   UNL     1       6.706  30.052  57.232  1.00  0.00     0.131 A 
HETATM    3  N   UNL     1       5.864  29.486  56.267  1.00  0.00    -0.259 N 
HETATM    4  C   UNL     1       4.814  30.401  56.034  1.00  0.00     0.071 A 
HETATM    5  C   UNL     1       5.062  31.518  56.867  1.00  0.00     0.061 A 
HETATM    6  C   UNL     1       4.196  32.587  56.898  1.00  0.00     0.032 A 
HETATM    7  C   UNL     1       3.090  32.548  56.041  1.00  0.00     0.002 A 
HETATM    8  C   UNL     1       2.863  31.444  55.192  1.00  0.00     0.002 A 
HETATM    9  C   UNL     1       3.732  30.348  55.182  1.00  0.00     0.032 A 
HETATM   10  N   UNL     1       6.180  31.257  57.674  1.00  0.00    -0.339 N 
HETATM   11  C   UNL     1       6.070  28.271  55.653  1.00  0.00     0.281 A 
HETATM   12  O   UNL     1       5.345  27.736  54.813  1.00  0.00    -0.265 OA
HETATM   13  C   UNL     1       7.338  27.549  56.076  1.00  0.00     0.105 A 
HETATM   14  C   UNL     1       8.155  28.141  56.962  1.00  0.00     0.056 A 
HETATM   15  H   UNL     1       6.821  31.983  57.979  1.00  0.00     0.167 HD
ENDROOT
BRANCH   1  16
HETATM   16  C   UNL     1       8.710  30.021  58.626  1.00  0.00     0.255 C 
HETATM   17  N   UNL     1       8.119  30.108  59.861  1.00  0.00    -0.353 N 
HETATM   18  H   UNL     1       7.162  29.806  59.990  1.00  0.00     0.163 HD
HETATM   19  O   UNL     1       9.840  30.422  58.371  1.00  0.00    -0.268 OA
BRANCH  17  20
HETATM   20  C   UNL     1       8.829  30.590  61.020  1.00  0.00     0.161 C 
BRANCH  20  21
HETATM   21  C   UNL     1       8.065  31.710  61.673  1.00  0.00    -0.041 A 
HETATM   22  C   UNL     1       8.316  32.059  63.011  1.00  0.00     0.009 A 
HETATM   23  C   UNL     1       7.572  33.062  63.634  1.00  0.00     0.001 A 
HETATM   24  C   UNL     1       6.575  33.731  62.926  1.00  0.00     0.000 A 
HETATM   25  C   UNL     1       6.319  33.397  61.598  1.00  0.00     0.001 A 
HETATM   26  C   UNL     1       7.057  32.388  60.975  1.00  0.00     0.009 A 
ENDBRANCH  20  21
ENDBRANCH  17  20
ENDBRANCH   1  16
BRANCH  13  27
HETATM   27  N   UNL     1       7.537  26.311  55.488  1.00  0.00    -0.318 N 
HETATM   28  C   UNL     1       7.232  25.068  56.005  1.00  0.00     0.256 C 
HETATM   29  O   UNL     1       6.734  24.863  57.108  1.00  0.00    -0.267 OA
HETATM   30  H   UNL     1       7.855  26.381  54.523  1.00  0.00     0.169 HD
BRANCH  28  31
HETATM   31  C   UNL     1       7.487  23.900  55.111  1.00  0.00     0.032 A 
HETATM   32  C   UNL     1       7.570  22.584  55.589  1.00  0.00     0.020 A 
HETATM   33  C   UNL     1       7.823  21.535  54.698  1.00  0.00     0.043 A 
HETATM   34  C   UNL     1       7.980  21.802  53.342  1.00  0.00     0.116 A 
HETATM   35  F   UNL     1       8.222  20.793  52.495  1.00  0.00    -0.206 F 
HETATM   36  C   UNL     1       7.882  23.098  52.851  1.00  0.00     0.043 A 
HETATM   37  C   UNL     1       7.632  24.148  53.736  1.00  0.00     0.020 A 
ENDBRANCH  28  31
ENDBRANCH  13  27
TORSDOF 5
ENDMDL
MODEL 2
REMARK VINA RESULT:     -11.3      3.763      7.311
REMARK  5 active torsions:
REMARK  status: ('A' for Active; 'I' for Inactive)
REMARK    1  A    between atoms: C_4  and  C_5 
REMARK    2  A    between atoms: C_5  and  N_6 
REMARK       I    between atoms: N_6  and  C_7 
REMARK    3  A    between atoms: C_7  and  C_8 
REMARK    4  A    between atoms: C_20  and  N_21 
REMARK       I    between atoms: N_21  and  C_22 
REMARK    5  A    between atoms: C_22  and  C_23 
ROOT
HETATM    1  C   UNL     1       7.456  25.733  55.811  1.00  0.00     0.079 A 
HETATM    2  C   UNL     1       7.775  24.430  55.778  1.00  0.00     0.131 A 
HETATM    3  N   UNL     1       7.647  23.716  54.581  1.00  0.00    -0.259 N 
HETATM    4  C   UNL     1       7.968  22.368  54.856  1.00  0.00     0.071 A 
HETATM    5  C   UNL     1       8.272  22.301  56.237  1.00  0.00     0.061 A 
HETATM    6  C   UNL     1       8.656  21.117  56.823  1.00  0.00     0.032 A 
HETATM    7  C   UNL     1       8.688  19.976  56.014  1.00  0.00     0.002 A 
HETATM    8  C   UNL     1       8.357  20.043  54.643  1.00  0.00     0.002 A 
HETATM    9  C   UNL     1       7.992  21.254  54.046  1.00  0.00     0.032 A 
HETATM   10  N   UNL     1       8.243  23.594  56.783  1.00  0.00    -0.339 N 
HETATM   11  C   UNL     1       7.247  24.254  53.379  1.00  0.00     0.281 A 
HETATM   12  O   UNL     1       7.138  23.662  52.304  1.00  0.00    -0.265 OA
HETATM   13  C   UNL     1       6.906  25.735  53.424  1.00  0.00     0.105 A 
HETATM   14  C   UNL     1       6.984  26.381  54.599  1.00  0.00     0.056 A 
HETATM   15  H   UNL     1       7.962  23.782  57.739  1.00  0.00     0.167 HD
ENDROOT
BRANCH   1  16
HETATM   16  C   UNL     1       7.612  26.482  57.090  1.00  0.00     0.255 C 
HETATM   17  N   UNL     1       7.348  27.823  56.975  1.00  0.00    -0.353 N 
HETATM   18  H   UNL     1       7.111  28.221  56.076  1.00  0.00     0.163 HD
HETATM   19  O   UNL     1       7.967  25.934  58.127  1.00  0.00    -0.268 OA
BRANCH  17  20
HETATM   20  C   UNL     1       7.361  28.709  58.114  1.00  0.00     0.161 C 
BRANCH  20  21
HETATM   21  C   UNL     1       8.545  29.636  58.043  1.00  0.00    -0.041 A 
HETATM   22  C   UNL     1       9.624  29.349  57.190  1.00  0.00     0.009 A 
HETATM   23  C   UNL     1      10.745  30.179  57.162  1.00  0.00     0.001 A 
HETATM   24  C   UNL     1      10.799  31.306  57.979  1.00  0.00     0.000 A 
HETATM   25  C   UNL     1       9.733  31.603  58.828  1.00  0.00     0.001 A 
HETATM   26  C   UNL     1       8.613  30.769  58.863  1.00  0.00     0.009 A 
ENDBRANCH  20  21
ENDBRANCH  17  20
ENDBRANCH   1  16
BRANCH  13  27
HETATM   27  N   UNL     1       6.533  26.292  52.212  1.00  0.00    -0.318 N 
HETATM   28  C   UNL     1       5.309  26.827  51.867  1.00  0.00     0.256 C 
HETATM   29  O   UNL     1       4.327  26.881  52.602  1.00  0.00    -0.267 OA
HETATM   30  H   UNL     1       7.314  26.385  51.566  1.00  0.00     0.169 HD
BRANCH  28  31
HETATM   31  C   UNL     1       5.213  27.432  50.505  1.00  0.00     0.032 A 
HETATM   32  C   UNL     1       4.798  26.705  49.380  1.00  0.00     0.020 A 
HETATM   33  C   UNL     1       4.742  27.329  48.130  1.00  0.00     0.043 A 
HETATM   34  C   UNL     1       5.086  28.672  48.010  1.00  0.00     0.116 A 
HETATM   35  F   UNL     1       5.030  29.263  46.810  1.00  0.00    -0.206 F 
HETATM   36  C   UNL     1       5.482  29.410  49.119  1.00  0.00     0.043 A 
HETATM   37  C   UNL     1       5.542  28.791  50.369  1.00  0.00     0.020 A 
ENDBRANCH  28  31
ENDBRANCH  13  27
TORSDOF 5
ENDMDL
MODEL 3
REMARK VINA RESULT:     -11.1      4.081      9.651
REMARK  5 active torsions:
REMARK  status: ('A' for Active; 'I' for Inactive)
REMARK    1  A    between atoms: C_4  and  C_5 
REMARK    2  A    between atoms: C_5  and  N_6 
REMARK       I    between atoms: N_6  and  C_7 
REMARK    3  A    between atoms: C_7  and  C_8 
REMARK    4  A    between atoms: C_20  and  N_21 
REMARK       I    between atoms: N_21  and  C_22 
REMARK    5  A    between atoms: C_22  and  C_23 
ROOT
HETATM    1  C   UNL     1       5.776  28.413  54.762  1.00  0.00     0.079 A 
HETATM    2  C   UNL     1       6.211  27.146  54.677  1.00  0.00     0.131 A 
HETATM    3  N   UNL     1       6.987  26.610  55.711  1.00  0.00    -0.259 N 
HETATM    4  C   UNL     1       7.368  25.307  55.322  1.00  0.00     0.071 A 
HETATM    5  C   UNL     1       6.814  25.093  54.038  1.00  0.00     0.061 A 
HETATM    6  C   UNL     1       6.979  23.894  53.383  1.00  0.00     0.032 A 
HETATM    7  C   UNL     1       7.754  22.915  54.015  1.00  0.00     0.002 A 
HETATM    8  C   UNL     1       8.328  23.143  55.284  1.00  0.00     0.002 A 
HETATM    9  C   UNL     1       8.135  24.354  55.957  1.00  0.00     0.032 A 
HETATM   10  N   UNL     1       6.021  26.196  53.683  1.00  0.00    -0.339 N 
HETATM   11  C   UNL     1       7.327  27.273  56.870  1.00  0.00     0.281 A 
HETATM   12  O   UNL     1       7.994  26.829  57.806  1.00  0.00    -0.265 OA
HETATM   13  C   UNL     1       6.814  28.700  56.962  1.00  0.00     0.105 A 
HETATM   14  C   UNL     1       6.119  29.206  55.930  1.00  0.00     0.056 A 
HETATM   15  H   UNL     1       5.914  26.512  52.725  1.00  0.00     0.167 HD
ENDROOT
BRANCH   1  16
HETATM   16  C   UNL     1       4.939  28.964  53.659  1.00  0.00     0.255 C 
HETATM   17  N   UNL     1       5.658  29.298  52.539  1.00  0.00    -0.353 N 
HETATM   18  H   UNL     1       6.665  29.196  52.531  1.00  0.00     0.163 HD
HETATM   19  O   UNL     1       3.728  29.118  53.774  1.00  0.00    -0.268 OA
BRANCH  17  20
HETATM   20  C   UNL     1       5.025  29.770  51.332  1.00  0.00     0.161 C 
BRANCH  20  21
HETATM   21  C   UNL     1       5.019  28.687  50.287  1.00  0.00    -0.041 A 
HETATM   22  C   UNL     1       5.330  28.985  48.950  1.00  0.00     0.009 A 
HETATM   23  C   UNL     1       5.274  27.993  47.970  1.00  0.00     0.001 A 
HETATM   24  C   UNL     1       4.913  26.692  48.316  1.00  0.00     0.000 A 
HETATM   25  C   UNL     1       4.604  26.383  49.640  1.00  0.00     0.001 A 
HETATM   26  C   UNL     1       4.652  27.377  50.620  1.00  0.00     0.009 A 
ENDBRANCH  20  21
ENDBRANCH  17  20
ENDBRANCH   1  16
BRANCH  13  27
HETATM   27  N   UNL     1       7.124  29.364  58.138  1.00  0.00    -0.318 N 
HETATM   28  C   UNL     1       8.251  30.109  58.418  1.00  0.00     0.256 C 
HETATM   29  O   UNL     1       9.188  30.293  57.646  1.00  0.00    -0.267 OA
HETATM   30  H   UNL     1       6.357  29.354  58.808  1.00  0.00     0.169 HD
BRANCH  28  31
HETATM   31  C   UNL     1       8.285  30.780  59.751  1.00  0.00     0.032 A 
HETATM   32  C   UNL     1       9.319  30.577  60.677  1.00  0.00     0.020 A 
HETATM   33  C   UNL     1       9.284  31.228  61.914  1.00  0.00     0.043 A 
HETATM   34  C   UNL     1       8.228  32.082  62.216  1.00  0.00     0.116 A 
HETATM   35  F   UNL     1       8.201  32.702  63.403  1.00  0.00    -0.206 F 
HETATM   36  C   UNL     1       7.206  32.308  61.303  1.00  0.00     0.043 A 
HETATM   37  C   UNL     1       7.235  31.659  60.067  1.00  0.00     0.020 A 
ENDBRANCH  28  31
ENDBRANCH  13  27
TORSDOF 5
ENDMDL
MODEL 4
REMARK VINA RESULT:     -10.9      3.830      7.484
REMARK  5 active torsions:
REMARK  status: ('A' for Active; 'I' for Inactive)
REMARK    1  A    between atoms: C_4  and  C_5 
REMARK    2  A    between atoms: C_5  and  N_6 
REMARK       I    between atoms: N_6  and  C_7 
REMARK    3  A    between atoms: C_7  and  C_8 
REMARK    4  A    between atoms: C_20  and  N_21 
REMARK       I    between atoms: N_21  and  C_22 
REMARK    5  A    between atoms: C_22  and  C_23 
ROOT
HETATM    1  C   UNL     1       6.633  26.008  55.668  1.00  0.00     0.079 A 
HETATM    2  C   UNL     1       7.166  24.828  55.316  1.00  0.00     0.131 A 
HETATM    3  N   UNL     1       6.802  24.241  54.099  1.00  0.00    -0.259 N 
HETATM    4  C   UNL     1       7.442  22.983  54.027  1.00  0.00     0.071 A 
HETATM    5  C   UNL     1       8.175  22.838  55.229  1.00  0.00     0.061 A 
HETATM    6  C   UNL     1       8.943  21.720  55.462  1.00  0.00     0.032 A 
HETATM    7  C   UNL     1       8.932  20.714  54.489  1.00  0.00     0.002 A 
HETATM    8  C   UNL     1       8.177  20.852  53.304  1.00  0.00     0.002 A 
HETATM    9  C   UNL     1       7.419  22.002  53.060  1.00  0.00     0.032 A 
HETATM   10  N   UNL     1       8.077  24.020  55.981  1.00  0.00    -0.339 N 
HETATM   11  C   UNL     1       5.947  24.800  53.175  1.00  0.00     0.281 A 
HETATM   12  O   UNL     1       5.617  24.321  52.090  1.00  0.00    -0.265 OA
HETATM   13  C   UNL     1       5.364  26.144  53.578  1.00  0.00     0.105 A 
HETATM   14  C   UNL     1       5.687  26.657  54.776  1.00  0.00     0.056 A 
HETATM   15  H   UNL     1       8.084  24.029  56.995  1.00  0.00     0.167 HD
ENDROOT
BRANCH   1  16
HETATM   16  C   UNL     1       7.041  26.627  56.962  1.00  0.00     0.255 C 
HETATM   17  N   UNL     1       7.018  27.998  56.945  1.00  0.00    -0.353 N 
HETATM   18  H   UNL     1       6.775  28.493  56.097  1.00  0.00     0.163 HD
HETATM   19  O   UNL     1       7.385  25.953  57.927  1.00  0.00    -0.268 OA
BRANCH  17  20
HETATM   20  C   UNL     1       7.298  28.786  58.120  1.00  0.00     0.161 C 
BRANCH  20  21
HETATM   21  C   UNL     1       8.615  29.499  57.970  1.00  0.00    -0.041 A 
HETATM   22  C   UNL     1       8.856  30.703  58.653  1.00  0.00     0.009 A 
HETATM   23  C   UNL     1      10.056  31.392  58.475  1.00  0.00     0.001 A 
HETATM   24  C   UNL     1      11.029  30.885  57.617  1.00  0.00     0.000 A 
HETATM   25  C   UNL     1      10.804  29.690  56.935  1.00  0.00     0.001 A 
HETATM   26  C   UNL     1       9.600  29.002  57.107  1.00  0.00     0.009 A 
ENDBRANCH  20  21
ENDBRANCH  17  20
ENDBRANCH   1  16
BRANCH  13  27
HETATM   27  N   UNL     1       4.528  26.729  52.641  1.00  0.00    -0.318 N 
HETATM   28  C   UNL     1       4.760  27.863  51.889  1.00  0.00     0.256 C 
HETATM   29  O   UNL     1       5.772  28.556  51.947  1.00  0.00    -0.267 OA
HETATM   30  H   UNL     1       3.701  26.168  52.448  1.00  0.00     0.169 HD
BRANCH  28  31
HETATM   31  C   UNL     1       3.707  28.223  50.894  1.00  0.00     0.032 A 
HETATM   32  C   UNL     1       2.612  29.040  51.211  1.00  0.00     0.020 A 
HETATM   33  C   UNL     1       1.654  29.329  50.235  1.00  0.00     0.043 A 
HETATM   34  C   UNL     1       1.797  28.814  48.950  1.00  0.00     0.116 A 
HETATM   35  F   UNL     1       0.876  29.094  48.020  1.00  0.00    -0.206 F 
HETATM   36  C   UNL     1       2.885  28.018  48.616  1.00  0.00     0.043 A 
HETATM   37  C   UNL     1       3.844  27.724  49.587  1.00  0.00     0.020 A 
ENDBRANCH  28  31
ENDBRANCH  13  27
TORSDOF 5
ENDMDL
MODEL 5
REMARK VINA RESULT:     -10.8      4.102      8.959
REMARK  5 active torsions:
REMARK  status: ('A' for Active; 'I' for Inactive)
REMARK    1  A    between atoms: C_4  and  C_5 
REMARK    2  A    between atoms: C_5  and  N_6 
REMARK       I    between atoms: N_6  and  C_7 
REMARK    3  A    between atoms: C_7  and  C_8 
REMARK    4  A    between atoms: C_20  and  N_21 
REMARK       I    between atoms: N_21  and  C_22 
REMARK    5  A    between atoms: C_22  and  C_23 
ROOT
HETATM    1  C   UNL     1       6.765  26.277  52.744  1.00  0.00     0.079 A 
HETATM    2  C   UNL     1       5.906  26.708  51.806  1.00  0.00     0.131 A 
HETATM    3  N   UNL     1       5.196  27.897  52.013  1.00  0.00    -0.259 N 
HETATM    4  C   UNL     1       4.318  28.061  50.919  1.00  0.00     0.071 A 
HETATM    5  C   UNL     1       4.514  26.941  50.076  1.00  0.00     0.061 A 
HETATM    6  C   UNL     1       3.821  26.812  48.894  1.00  0.00     0.032 A 
HETATM    7  C   UNL     1       2.882  27.803  48.584  1.00  0.00     0.002 A 
HETATM    8  C   UNL     1       2.670  28.903  49.442  1.00  0.00     0.002 A 
HETATM    9  C   UNL     1       3.396  29.044  50.630  1.00  0.00     0.032 A 
HETATM   10  N   UNL     1       5.563  26.156  50.580  1.00  0.00    -0.339 N 
HETATM   11  C   UNL     1       5.331  28.718  53.111  1.00  0.00     0.281 A 
HETATM   12  O   UNL     1       4.736  29.776  53.319  1.00  0.00    -0.265 OA
HETATM   13  C   UNL     1       6.320  28.228  54.156  1.00  0.00     0.105 A 
HETATM   14  C   UNL     1       6.944  27.056  53.957  1.00  0.00     0.056 A 
HETATM   15  H   UNL     1       5.595  25.148  50.477  1.00  0.00     0.167 HD
ENDROOT
BRANCH   1  16
HETATM   16  C   UNL     1       7.523  25.017  52.502  1.00  0.00     0.255 C 
HETATM   17  N   UNL     1       7.024  23.938  53.186  1.00  0.00    -0.353 N 
HETATM   18  H   UNL     1       6.237  24.050  53.812  1.00  0.00     0.163 HD
HETATM   19  O   UNL     1       8.510  24.979  51.776  1.00  0.00    -0.268 OA
BRANCH  17  20
HETATM   20  C   UNL     1       7.564  22.609  53.025  1.00  0.00     0.161 C 
BRANCH  20  21
HETATM   21  C   UNL     1       7.919  22.023  54.365  1.00  0.00    -0.041 A 
HETATM   22  C   UNL     1       8.106  20.638  54.510  1.00  0.00     0.009 A 
HETATM   23  C   UNL     1       8.384  20.087  55.762  1.00  0.00     0.001 A 
HETATM   24  C   UNL     1       8.484  20.913  56.880  1.00  0.00     0.000 A 
HETATM   25  C   UNL     1       8.304  22.289  56.748  1.00  0.00     0.001 A 
HETATM   26  C   UNL     1       8.018  22.841  55.498  1.00  0.00     0.009 A 
ENDBRANCH  20  21
ENDBRANCH  17  20
ENDBRANCH   1  16
BRANCH  13  27
HETATM   27  N   UNL     1       6.485  29.063  55.248  1.00  0.00    -0.318 N 
HETATM   28  C   UNL     1       6.026  28.874  56.536  1.00  0.00     0.256 C 
HETATM   29  O   UNL     1       5.368  27.911  56.919  1.00  0.00    -0.267 OA
HETATM   30  H   UNL     1       7.107  29.845  55.054  1.00  0.00     0.169 HD
BRANCH  28  31
HETATM   31  C   UNL     1       6.421  29.909  57.537  1.00  0.00     0.032 A 
HETATM   32  C   UNL     1       5.681  31.082  57.747  1.00  0.00     0.020 A 
HETATM   33  C   UNL     1       6.113  32.018  58.692  1.00  0.00     0.043 A 
HETATM   34  C   UNL     1       7.269  31.776  59.428  1.00  0.00     0.116 A 
HETATM   35  F   UNL     1       7.677  32.676  60.331  1.00  0.00    -0.206 F 
HETATM   36  C   UNL     1       8.003  30.611  59.244  1.00  0.00     0.043 A 
HETATM   37  C   UNL     1       7.577  29.674  58.300  1.00  0.00     0.020 A 
ENDBRANCH  28  31
ENDBRANCH  13  27
TORSDOF 5
ENDMDL
MODEL 6
REMARK VINA RESULT:     -10.7      3.876      9.508
REMARK  5 active torsions:
REMARK  status: ('A' for Active; 'I' for Inactive)
REMARK    1  A    between atoms: C_4  and  C_5 
REMARK    2  A    between atoms: C_5  and  N_6 
REMARK       I    between atoms: N_6  and  C_7 
REMARK    3  A    between atoms: C_7  and  C_8 
REMARK    4  A    between atoms: C_20  and  N_21 
REMARK       I    between atoms: N_21  and  C_22 
REMARK    5  A    between atoms: C_22  and  C_23 
ROOT
HETATM    1  C   UNL     1       7.142  25.697  53.778  1.00  0.00     0.079 A 
HETATM    2  C   UNL     1       7.344  24.481  54.309  1.00  0.00     0.131 A 
HETATM    3  N   UNL     1       7.756  24.368  55.642  1.00  0.00    -0.259 N 
HETATM    4  C   UNL     1       7.969  22.996  55.904  1.00  0.00     0.071 A 
HETATM    5  C   UNL     1       7.688  22.309  54.699  1.00  0.00     0.061 A 
HETATM    6  C   UNL     1       7.773  20.938  54.627  1.00  0.00     0.032 A 
HETATM    7  C   UNL     1       8.193  20.255  55.775  1.00  0.00     0.002 A 
HETATM    8  C   UNL     1       8.499  20.948  56.966  1.00  0.00     0.002 A 
HETATM    9  C   UNL     1       8.386  22.340  57.042  1.00  0.00     0.032 A 
HETATM   10  N   UNL     1       7.212  23.221  53.743  1.00  0.00    -0.339 N 
HETATM   11  C   UNL     1       7.943  25.425  56.504  1.00  0.00     0.281 A 
HETATM   12  O   UNL     1       8.289  25.364  57.685  1.00  0.00    -0.265 OA
HETATM   13  C   UNL     1       7.693  26.796  55.896  1.00  0.00     0.105 A 
HETATM   14  C   UNL     1       7.353  26.876  54.600  1.00  0.00     0.056 A 
HETATM   15  H   UNL     1       7.383  23.115  52.749  1.00  0.00     0.167 HD
ENDROOT
BRANCH   1  16
HETATM   16  C   UNL     1       6.690  25.799  52.361  1.00  0.00     0.255 C 
HETATM   17  N   UNL     1       5.579  26.586  52.196  1.00  0.00    -0.353 N 
HETATM   18  H   UNL     1       5.126  27.004  52.999  1.00  0.00     0.163 HD
HETATM   19  O   UNL     1       7.259  25.207  51.451  1.00  0.00    -0.268 OA
BRANCH  17  20
HETATM   20  C   UNL     1       5.032  26.881  50.894  1.00  0.00     0.161 C 
BRANCH  20  21
HETATM   21  C   UNL     1       5.085  28.362  50.627  1.00  0.00    -0.041 A 
HETATM   22  C   UNL     1       5.527  28.846  49.385  1.00  0.00     0.009 A 
HETATM   23  C   UNL     1       5.626  30.218  49.154  1.00  0.00     0.001 A 
HETATM   24  C   UNL     1       5.280  31.121  50.158  1.00  0.00     0.000 A 
HETATM   25  C   UNL     1       4.838  30.652  51.393  1.00  0.00     0.001 A 
HETATM   26  C   UNL     1       4.745  29.279  51.630  1.00  0.00     0.009 A 
ENDBRANCH  20  21
ENDBRANCH  17  20
ENDBRANCH   1  16
BRANCH  13  27
HETATM   27  N   UNL     1       7.847  27.864  56.765  1.00  0.00    -0.318 N 
HETATM   28  C   UNL     1       8.645  28.979  56.604  1.00  0.00     0.256 C 
HETATM   29  O   UNL     1       9.372  29.195  55.639  1.00  0.00    -0.267 OA
HETATM   30  H   UNL     1       7.204  27.824  57.553  1.00  0.00     0.169 HD
BRANCH  28  31
HETATM   31  C   UNL     1       8.555  30.015  57.674  1.00  0.00     0.032 A 
HETATM   32  C   UNL     1       7.344  30.371  58.286  1.00  0.00     0.020 A 
HETATM   33  C   UNL     1       7.328  31.359  59.276  1.00  0.00     0.043 A 
HETATM   34  C   UNL     1       8.515  31.976  59.657  1.00  0.00     0.116 A 
HETATM   35  F   UNL     1       8.492  32.922  60.604  1.00  0.00    -0.206 F 
HETATM   36  C   UNL     1       9.725  31.622  59.074  1.00  0.00     0.043 A 
HETATM   37  C   UNL     1       9.747  30.638  58.084  1.00  0.00     0.020 A 
ENDBRANCH  28  31
ENDBRANCH  13  27
TORSDOF 5
ENDMDL
MODEL 7
REMARK VINA RESULT:     -10.4      4.268      7.420
REMARK  5 active torsions:
REMARK  status: ('A' for Active; 'I' for Inactive)
REMARK    1  A    between atoms: C_4  and  C_5 
REMARK    2  A    between atoms: C_5  and  N_6 
REMARK       I    between atoms: N_6  and  C_7 
REMARK    3  A    between atoms: C_7  and  C_8 
REMARK    4  A    between atoms: C_20  and  N_21 
REMARK       I    between atoms: N_21  and  C_22 
REMARK    5  A    between atoms: C_22  and  C_23 
ROOT
HETATM    1  C   UNL     1       5.846  26.887  55.076  1.00  0.00     0.079 A 
HETATM    2  C   UNL     1       6.629  25.808  54.921  1.00  0.00     0.131 A 
HETATM    3  N   UNL     1       6.581  25.087  53.722  1.00  0.00    -0.259 N 
HETATM    4  C   UNL     1       7.434  23.970  53.866  1.00  0.00     0.071 A 
HETATM    5  C   UNL     1       7.971  24.041  55.174  1.00  0.00     0.061 A 
HETATM    6  C   UNL     1       8.872  23.104  55.624  1.00  0.00     0.032 A 
HETATM    7  C   UNL     1       9.200  22.055  54.758  1.00  0.00     0.002 A 
HETATM    8  C   UNL     1       8.640  21.973  53.464  1.00  0.00     0.002 A 
HETATM    9  C   UNL     1       7.744  22.943  53.002  1.00  0.00     0.032 A 
HETATM   10  N   UNL     1       7.543  25.229  55.789  1.00  0.00    -0.339 N 
HETATM   11  C   UNL     1       5.808  25.416  52.631  1.00  0.00     0.281 A 
HETATM   12  O   UNL     1       5.752  24.815  51.557  1.00  0.00    -0.265 OA
HETATM   13  C   UNL     1       4.940  26.650  52.814  1.00  0.00     0.105 A 
HETATM   14  C   UNL     1       4.964  27.289  53.994  1.00  0.00     0.056 A 
HETATM   15  H   UNL     1       7.379  25.304  56.787  1.00  0.00     0.167 HD
ENDROOT
BRANCH   1  16
HETATM   16  C   UNL     1       5.918  27.652  56.354  1.00  0.00     0.255 C 
HETATM   17  N   UNL     1       6.574  28.852  56.238  1.00  0.00    -0.353 N 
HETATM   18  H   UNL     1       6.983  29.126  55.354  1.00  0.00     0.163 HD
HETATM   19  O   UNL     1       5.451  27.218  57.401  1.00  0.00    -0.268 OA
BRANCH  17  20
HETATM   20  C   UNL     1       6.680  29.779  57.338  1.00  0.00     0.161 C 
BRANCH  20  21
HETATM   21  C   UNL     1       8.112  30.202  57.530  1.00  0.00    -0.041 A 
HETATM   22  C   UNL     1       9.131  29.646  56.739  1.00  0.00     0.009 A 
HETATM   23  C   UNL     1      10.464  29.998  56.950  1.00  0.00     0.001 A 
HETATM   24  C   UNL     1      10.793  30.912  57.949  1.00  0.00     0.000 A 
HETATM   25  C   UNL     1       9.791  31.473  58.739  1.00  0.00     0.001 A 
HETATM   26  C   UNL     1       8.456  31.116  58.534  1.00  0.00     0.009 A 
ENDBRANCH  20  21
ENDBRANCH  17  20
ENDBRANCH   1  16
BRANCH  13  27
HETATM   27  N   UNL     1       4.182  27.007  51.710  1.00  0.00    -0.318 N 
HETATM   28  C   UNL     1       4.543  27.836  50.667  1.00  0.00     0.256 C 
HETATM   29  O   UNL     1       5.622  28.413  50.562  1.00  0.00    -0.267 OA
HETATM   30  H   UNL     1       3.303  26.497  51.656  1.00  0.00     0.169 HD
BRANCH  28  31
HETATM   31  C   UNL     1       3.547  27.983  49.566  1.00  0.00     0.032 A 
HETATM   32  C   UNL     1       2.551  28.972  49.570  1.00  0.00     0.020 A 
HETATM   33  C   UNL     1       1.641  29.047  48.511  1.00  0.00     0.043 A 
HETATM   34  C   UNL     1       1.734  28.149  47.453  1.00  0.00     0.116 A 
HETATM   35  F   UNL     1       0.859  28.227  46.443  1.00  0.00    -0.206 F 
HETATM   36  C   UNL     1       2.725  27.176  47.425  1.00  0.00     0.043 A 
HETATM   37  C   UNL     1       3.635  27.095  48.481  1.00  0.00     0.020 A 
ENDBRANCH  28  31
ENDBRANCH  13  27
TORSDOF 5
ENDMDL
MODEL 8
REMARK VINA RESULT:     -10.4      3.536      5.090
REMARK  5 active torsions:
REMARK  status: ('A' for Active; 'I' for Inactive)
REMARK    1  A    between atoms: C_4  and  C_5 
REMARK    2  A    between atoms: C_5  and  N_6 
REMARK       I    between atoms: N_6  and  C_7 
REMARK    3  A    between atoms: C_7  and  C_8 
REMARK    4  A    between atoms: C_20  and  N_21 
REMARK       I    between atoms: N_21  and  C_22 
REMARK    5  A    between atoms: C_22  and  C_23 
ROOT
HETATM    1  C   UNL     1       4.610  28.658  53.649  1.00  0.00     0.079 A 
HETATM    2  C   UNL     1       4.242  28.824  52.369  1.00  0.00     0.131 A 
HETATM    3  N   UNL     1       4.467  27.796  51.446  1.00  0.00    -0.259 N 
HETATM    4  C   UNL     1       4.062  28.270  50.178  1.00  0.00     0.071 A 
HETATM    5  C   UNL     1       3.610  29.597  50.371  1.00  0.00     0.061 A 
HETATM    6  C   UNL     1       3.115  30.338  49.323  1.00  0.00     0.032 A 
HETATM    7  C   UNL     1       3.122  29.748  48.054  1.00  0.00     0.002 A 
HETATM    8  C   UNL     1       3.601  28.434  47.862  1.00  0.00     0.002 A 
HETATM    9  C   UNL     1       4.079  27.675  48.935  1.00  0.00     0.032 A 
HETATM   10  N   UNL     1       3.634  29.902  51.742  1.00  0.00    -0.339 N 
HETATM   11  C   UNL     1       5.016  26.569  51.747  1.00  0.00     0.281 A 
HETATM   12  O   UNL     1       5.215  25.638  50.966  1.00  0.00    -0.265 OA
HETATM   13  C   UNL     1       5.413  26.388  53.203  1.00  0.00     0.105 A 
HETATM   14  C   UNL     1       5.236  27.411  54.054  1.00  0.00     0.056 A 
HETATM   15  H   UNL     1       3.819  30.835  52.094  1.00  0.00     0.167 HD
ENDROOT
BRANCH   1  16
HETATM   16  C   UNL     1       4.350  29.757  54.622  1.00  0.00     0.255 C 
HETATM   17  N   UNL     1       5.398  29.993  55.475  1.00  0.00    -0.353 N 
HETATM   18  H   UNL     1       6.232  29.421  55.429  1.00  0.00     0.163 HD
HETATM   19  O   UNL     1       3.283  30.360  54.655  1.00  0.00    -0.268 OA
BRANCH  17  20
HETATM   20  C   UNL     1       5.379  31.069  56.436  1.00  0.00     0.161 C 
BRANCH  20  21
HETATM   21  C   UNL     1       6.415  30.834  57.504  1.00  0.00    -0.041 A 
HETATM   22  C   UNL     1       7.245  29.703  57.454  1.00  0.00     0.009 A 
HETATM   23  C   UNL     1       8.170  29.457  58.470  1.00  0.00     0.001 A 
HETATM   24  C   UNL     1       8.278  30.341  59.542  1.00  0.00     0.000 A 
HETATM   25  C   UNL     1       7.461  31.468  59.601  1.00  0.00     0.001 A 
HETATM   26  C   UNL     1       6.530  31.712  58.589  1.00  0.00     0.009 A 
ENDBRANCH  20  21
ENDBRANCH  17  20
ENDBRANCH   1  16
BRANCH  13  27
HETATM   27  N   UNL     1       5.936  25.145  53.521  1.00  0.00    -0.318 N 
HETATM   28  C   UNL     1       7.229  24.698  53.336  1.00  0.00     0.256 C 
HETATM   29  O   UNL     1       8.138  25.351  52.832  1.00  0.00    -0.267 OA
HETATM   30  H   UNL     1       5.280  24.564  54.038  1.00  0.00     0.169 HD
BRANCH  28  31
HETATM   31  C   UNL     1       7.533  23.329  53.847  1.00  0.00     0.032 A 
HETATM   32  C   UNL     1       7.417  22.982  55.201  1.00  0.00     0.020 A 
HETATM   33  C   UNL     1       7.730  21.683  55.615  1.00  0.00     0.043 A 
HETATM   34  C   UNL     1       8.143  20.739  54.681  1.00  0.00     0.116 A 
HETATM   35  F   UNL     1       8.441  19.497  55.085  1.00  0.00    -0.206 F 
HETATM   36  C   UNL     1       8.246  21.062  53.334  1.00  0.00     0.043 A 
HETATM   37  C   UNL     1       7.937  22.358  52.915  1.00  0.00     0.020 A 
ENDBRANCH  28  31
ENDBRANCH  13  27
TORSDOF 5
ENDMDL
MODEL 9
REMARK VINA RESULT:     -10.2      3.808      8.739
REMARK  5 active torsions:
REMARK  status: ('A' for Active; 'I' for Inactive)
REMARK    1  A    between atoms: C_4  and  C_5 
REMARK    2  A    between atoms: C_5  and  N_6 
REMARK       I    between atoms: N_6  and  C_7 
REMARK    3  A    between atoms: C_7  and  C_8 
REMARK    4  A    between atoms: C_20  and  N_21 
REMARK       I    between atoms: N_21  and  C_22 
REMARK    5  A    between atoms: C_22  and  C_23 
ROOT
HETATM    1  C   UNL     1       5.394  27.118  52.962  1.00  0.00     0.079 A 
HETATM    2  C   UNL     1       4.622  27.920  52.211  1.00  0.00     0.131 A 
HETATM    3  N   UNL     1       4.238  29.172  52.706  1.00  0.00    -0.259 N 
HETATM    4  C   UNL     1       3.375  29.756  51.753  1.00  0.00     0.071 A 
HETATM    5  C   UNL     1       3.247  28.820  50.699  1.00  0.00     0.061 A 
HETATM    6  C   UNL     1       2.487  29.101  49.588  1.00  0.00     0.032 A 
HETATM    7  C   UNL     1       1.807  30.324  49.562  1.00  0.00     0.002 A 
HETATM    8  C   UNL     1       1.915  31.242  50.629  1.00  0.00     0.002 A 
HETATM    9  C   UNL     1       2.710  30.963  51.745  1.00  0.00     0.032 A 
HETATM   10  N   UNL     1       4.095  27.727  50.942  1.00  0.00    -0.339 N 
HETATM   11  C   UNL     1       4.625  29.694  53.920  1.00  0.00     0.281 A 
HETATM   12  O   UNL     1       4.320  30.796  54.381  1.00  0.00    -0.265 OA
HETATM   13  C   UNL     1       5.512  28.785  54.753  1.00  0.00     0.105 A 
HETATM   14  C   UNL     1       5.819  27.567  54.277  1.00  0.00     0.056 A 
HETATM   15  H   UNL     1       3.872  26.782  50.648  1.00  0.00     0.167 HD
ENDROOT
BRANCH   1  16
HETATM   16  C   UNL     1       5.806  25.794  52.415  1.00  0.00     0.255 C 
HETATM   17  N   UNL     1       7.146  25.538  52.552  1.00  0.00    -0.353 N 
HETATM   18  H   UNL     1       7.759  26.232  52.959  1.00  0.00     0.163 HD
HETATM   19  O   UNL     1       5.008  25.035  51.876  1.00  0.00    -0.268 OA
BRANCH  17  20
HETATM   20  C   UNL     1       7.731  24.278  52.162  1.00  0.00     0.161 C 
BRANCH  20  21
HETATM   21  C   UNL     1       7.724  23.317  53.321  1.00  0.00    -0.041 A 
HETATM   22  C   UNL     1       7.635  23.792  54.640  1.00  0.00     0.009 A 
HETATM   23  C   UNL     1       7.681  22.907  55.717  1.00  0.00     0.001 A 
HETATM   24  C   UNL     1       7.811  21.538  55.489  1.00  0.00     0.000 A 
HETATM   25  C   UNL     1       7.899  21.054  54.185  1.00  0.00     0.001 A 
HETATM   26  C   UNL     1       7.860  21.940  53.105  1.00  0.00     0.009 A 
ENDBRANCH  20  21
ENDBRANCH  17  20
ENDBRANCH   1  16
BRANCH  13  27
HETATM   27  N   UNL     1       5.932  29.315  55.962  1.00  0.00    -0.318 N 
HETATM   28  C   UNL     1       7.227  29.497  56.403  1.00  0.00     0.256 C 
HETATM   29  O   UNL     1       8.238  29.193  55.776  1.00  0.00    -0.267 OA
HETATM   30  H   UNL     1       5.163  29.691  56.513  1.00  0.00     0.169 HD
BRANCH  28  31
HETATM   31  C   UNL     1       7.385  30.167  57.728  1.00  0.00     0.032 A 
HETATM   32  C   UNL     1       8.418  29.847  58.621  1.00  0.00     0.020 A 
HETATM   33  C   UNL     1       8.503  30.505  59.852  1.00  0.00     0.043 A 
HETATM   34  C   UNL     1       7.568  31.483  60.180  1.00  0.00     0.116 A 
HETATM   35  F   UNL     1       7.655  32.109  61.360  1.00  0.00    -0.206 F 
HETATM   36  C   UNL     1       6.550  31.824  59.298  1.00  0.00     0.043 A 
HETATM   37  C   UNL     1       6.460  31.168  58.068  1.00  0.00     0.020 A 
ENDBRANCH  28  31
ENDBRANCH  13  27
TORSDOF 5
ENDMDL
MODEL 10
REMARK VINA RESULT:     -10.1      1.215      1.781
REMARK  5 active torsions:
REMARK  status: ('A' for Active; 'I' for Inactive)
REMARK    1  A    between atoms: C_4  and  C_5 
REMARK    2  A    between atoms: C_5  and  N_6 
REMARK       I    between atoms: N_6  and  C_7 
REMARK    3  A    between atoms: C_7  and  C_8 
REMARK    4  A    between atoms: C_20  and  N_21 
REMARK       I    between atoms: N_21  and  C_22 
REMARK    5  A    between atoms: C_22  and  C_23 
ROOT
HETATM    1  C   UNL     1       7.346  30.314  58.094  1.00  0.00     0.079 A 
HETATM    2  C   UNL     1       6.239  30.943  57.670  1.00  0.00     0.131 A 
HETATM    3  N   UNL     1       5.378  30.299  56.772  1.00  0.00    -0.259 N 
HETATM    4  C   UNL     1       4.355  31.214  56.438  1.00  0.00     0.071 A 
HETATM    5  C   UNL     1       4.638  32.408  57.143  1.00  0.00     0.061 A 
HETATM    6  C   UNL     1       3.804  33.499  57.055  1.00  0.00     0.032 A 
HETATM    7  C   UNL     1       2.695  33.398  56.206  1.00  0.00     0.002 A 
HETATM    8  C   UNL     1       2.433  32.214  55.484  1.00  0.00     0.002 A 
HETATM    9  C   UNL     1       3.270  31.099  55.597  1.00  0.00     0.032 A 
HETATM   10  N   UNL     1       5.750  32.205  57.975  1.00  0.00    -0.339 N 
HETATM   11  C   UNL     1       5.546  29.018  56.297  1.00  0.00     0.281 A 
HETATM   12  O   UNL     1       4.804  28.415  55.521  1.00  0.00    -0.265 OA
HETATM   13  C   UNL     1       6.794  28.310  56.799  1.00  0.00     0.105 A 
HETATM   14  C   UNL     1       7.630  28.972  57.614  1.00  0.00     0.056 A 
HETATM   15  H   UNL     1       6.412  32.941  58.198  1.00  0.00     0.167 HD
ENDROOT
BRANCH   1  16
HETATM   16  C   UNL     1       8.244  31.008  59.060  1.00  0.00     0.255 C 
HETATM   17  N   UNL     1       7.710  31.127  60.317  1.00  0.00    -0.353 N 
HETATM   18  H   UNL     1       6.774  30.791  60.507  1.00  0.00     0.163 HD
HETATM   19  O   UNL     1       9.342  31.444  58.731  1.00  0.00    -0.268 OA
BRANCH  17  20
HETATM   20  C   UNL     1       8.452  31.693  61.417  1.00  0.00     0.161 C 
BRANCH  20  21
HETATM   21  C   UNL     1       7.510  32.213  62.471  1.00  0.00    -0.041 A 
HETATM   22  C   UNL     1       6.129  32.272  62.225  1.00  0.00     0.009 A 
HETATM   23  C   UNL     1       5.261  32.802  63.181  1.00  0.00     0.001 A 
HETATM   24  C   UNL     1       5.762  33.273  64.392  1.00  0.00     0.000 A 
HETATM   25  C   UNL     1       7.131  33.218  64.649  1.00  0.00     0.001 A 
HETATM   26  C   UNL     1       8.002  32.695  63.691  1.00  0.00     0.009 A 
ENDBRANCH  20  21
ENDBRANCH  17  20
ENDBRANCH   1  16
BRANCH  13  27
HETATM   27  N   UNL     1       6.954  27.009  56.351  1.00  0.00    -0.318 N 
HETATM   28  C   UNL     1       7.904  26.088  56.745  1.00  0.00     0.256 C 
HETATM   29  O   UNL     1       8.789  26.294  57.571  1.00  0.00    -0.267 OA
HETATM   30  H   UNL     1       6.202  26.711  55.734  1.00  0.00     0.169 HD
BRANCH  28  31
HETATM   31  C   UNL     1       7.792  24.726  56.147  1.00  0.00     0.032 A 
HETATM   32  C   UNL     1       7.331  24.507  54.840  1.00  0.00     0.020 A 
HETATM   33  C   UNL     1       7.239  23.203  54.343  1.00  0.00     0.043 A 
HETATM   34  C   UNL     1       7.615  22.129  55.144  1.00  0.00     0.116 A 
HETATM   35  F   UNL     1       7.523  20.883  54.663  1.00  0.00    -0.206 F 
HETATM   36  C   UNL     1       8.090  22.330  56.434  1.00  0.00     0.043 A 
HETATM   37  C   UNL     1       8.182  23.630  56.936  1.00  0.00     0.020 A 
ENDBRANCH  28  31
ENDBRANCH  13  27
TORSDOF 5
ENDMDL
