MODEL 1
REMARK VINA RESULT:     -11.5      0.000      0.000
REMARK  6 active torsions:
REMARK  status: ('A' for Active; 'I' for Inactive)
REMARK    1  A    between atoms: O_2  and  C_3 
REMARK    2  A    between atoms: C_10  and  C_11 
REMARK    3  A    between atoms: C_11  and  C_12 
REMARK    4  A    between atoms: C_12  and  N_13 
REMARK       I    between atoms: N_13  and  C_14 
REMARK    5  A    between atoms: C_14  and  C_15 
REMARK    6  A    between atoms: C_21  and  C_22 
ROOT
HETATM    1  N   UNL     1       6.671  27.390  56.276  1.00  0.00    -0.357 N 
HETATM    2  C   UNL     1       7.526  27.361  57.359  1.00  0.00     0.251 C 
HETATM    3  O   UNL     1       7.593  26.420  58.142  1.00  0.00    -0.268 OA
HETATM    4  H   UNL     1       6.895  28.014  55.510  1.00  0.00     0.162 HD
ENDROOT
BRANCH   2   5
HETATM    5  C   UNL     1       8.412  28.546  57.549  1.00  0.00     0.033 A 
HETATM    6  C   UNL     1       8.112  29.390  58.646  1.00  0.00     0.033 A 
HETATM    7  C   UNL     1       8.952  30.502  58.698  1.00  0.00     0.033 A 
HETATM    8  C   UNL     1      10.031  30.797  57.784  1.00  0.00     0.097 A 
HETATM    9  C   UNL     1       8.935  31.524  59.614  1.00  0.00     0.124 A 
HETATM   10  N   UNL     1      10.624  31.940  58.161  1.00  0.00    -0.127 NA
HETATM   11  C   UNL     1      10.320  29.946  56.705  1.00  0.00     0.036 A 
HETATM   12  O   UNL     1       9.952  32.381  59.284  1.00  0.00    -0.211 OA
HETATM   13  C   UNL     1       9.469  28.819  56.615  1.00  0.00     0.019 A 
BRANCH   9  14
HETATM   14  C   UNL     1       8.149  31.919  60.778  1.00  0.00     0.001 A 
HETATM   15  C   UNL     1       6.802  32.291  60.660  1.00  0.00     0.014 A 
HETATM   16  C   UNL     1       6.059  32.663  61.786  1.00  0.00     0.001 A 
HETATM   17  C   UNL     1       6.655  32.678  63.044  1.00  0.00     0.000 A 
HETATM   18  C   UNL     1       7.995  32.325  63.179  1.00  0.00     0.001 A 
HETATM   19  C   UNL     1       8.734  31.949  62.054  1.00  0.00     0.014 A 
ENDBRANCH   9  14
ENDBRANCH   2   5
BRANCH   1  20
HETATM   20  C   UNL     1       5.851  26.233  55.954  1.00  0.00     0.127 C 
BRANCH  20  21
HETATM   21  C   UNL     1       5.446  26.185  54.479  1.00  0.00     0.060 C 
BRANCH  21  22
HETATM   22  C   UNL     1       6.376  25.362  53.641  1.00  0.00    -0.029 A 
HETATM   23  C   UNL     1       7.030  24.143  54.015  1.00  0.00     0.001 A 
HETATM   24  C   UNL     1       7.047  23.357  55.192  1.00  0.00     0.051 A 
HETATM   25  C   UNL     1       7.777  23.717  52.918  1.00  0.00     0.043 A 
HETATM   26  C   UNL     1       7.804  22.180  55.226  1.00  0.00     0.069 A 
HETATM   27  C   UNL     1       8.526  21.782  54.100  1.00  0.00     0.039 A 
HETATM   28  C   UNL     1       8.534  22.543  52.928  1.00  0.00     0.033 A 
HETATM   29  N   UNL     1       7.608  24.650  51.923  1.00  0.00    -0.365 N 
HETATM   30  H   UNL     1       8.044  24.604  51.012  1.00  0.00     0.165 HD
HETATM   31  C   UNL     1       6.765  25.643  52.345  1.00  0.00     0.096 A 
BRANCH  26  32
HETATM   32  O   UNL     1       7.905  21.330  56.295  1.00  0.00    -0.356 OA
HETATM   33  C   UNL     1       8.890  20.307  56.210  1.00  0.00     0.210 C 
ENDBRANCH  26  32
ENDBRANCH  21  22
ENDBRANCH  20  21
ENDBRANCH   1  20
TORSDOF 6
ENDMDL
MODEL 2
REMARK VINA RESULT:     -11.4      1.782      2.802
REMARK  6 active torsions:
REMARK  status: ('A' for Active; 'I' for Inactive)
REMARK    1  A    between atoms: O_2  and  C_3 
REMARK    2  A    between atoms: C_10  and  C_11 
REMARK    3  A    between atoms: C_11  and  C_12 
REMARK    4  A    between atoms: C_12  and  N_13 
REMARK       I    between atoms: N_13  and  C_14 
REMARK    5  A    between atoms: C_14  and  C_15 
REMARK    6  A    between atoms: C_21  and  C_22 
ROOT
HETATM    1  N   UNL     1       8.350  26.187  57.206  1.00  0.00    -0.357 N 
HETATM    2  C   UNL     1       7.659  27.356  57.448  1.00  0.00     0.251 C 
HETATM    3  O   UNL     1       6.436  27.415  57.523  1.00  0.00    -0.268 OA
HETATM    4  H   UNL     1       9.323  26.143  57.483  1.00  0.00     0.162 HD
ENDROOT
BRANCH   2   5
HETATM    5  C   UNL     1       8.473  28.592  57.639  1.00  0.00     0.033 A 
HETATM    6  C   UNL     1       8.130  29.409  58.744  1.00  0.00     0.033 A 
HETATM    7  C   UNL     1       8.902  30.570  58.797  1.00  0.00     0.033 A 
HETATM    8  C   UNL     1       9.954  30.936  57.877  1.00  0.00     0.097 A 
HETATM    9  C   UNL     1       8.831  31.584  59.719  1.00  0.00     0.124 A 
HETATM   10  N   UNL     1      10.480  32.110  58.256  1.00  0.00    -0.127 NA
HETATM   11  C   UNL     1      10.285  30.110  56.789  1.00  0.00     0.036 A 
HETATM   12  O   UNL     1       9.791  32.503  59.387  1.00  0.00    -0.211 OA
HETATM   13  C   UNL     1       9.504  28.934  56.699  1.00  0.00     0.019 A 
BRANCH   9  14
HETATM   14  C   UNL     1       8.031  31.923  60.892  1.00  0.00     0.001 A 
HETATM   15  C   UNL     1       6.661  32.204  60.788  1.00  0.00     0.014 A 
HETATM   16  C   UNL     1       5.906  32.524  61.921  1.00  0.00     0.001 A 
HETATM   17  C   UNL     1       6.512  32.577  63.173  1.00  0.00     0.000 A 
HETATM   18  C   UNL     1       7.874  32.315  63.294  1.00  0.00     0.001 A 
HETATM   19  C   UNL     1       8.626  31.990  62.162  1.00  0.00     0.014 A 
ENDBRANCH   9  14
ENDBRANCH   2   5
BRANCH   1  20
HETATM   20  C   UNL     1       7.644  24.918  57.116  1.00  0.00     0.127 C 
BRANCH  20  21
HETATM   21  C   UNL     1       8.470  23.741  57.638  1.00  0.00     0.060 C 
BRANCH  21  22
HETATM   22  C   UNL     1       8.321  22.504  56.806  1.00  0.00    -0.029 A 
HETATM   23  C   UNL     1       8.158  22.430  55.384  1.00  0.00     0.001 A 
HETATM   24  C   UNL     1       8.075  23.395  54.353  1.00  0.00     0.051 A 
HETATM   25  C   UNL     1       8.083  21.081  55.043  1.00  0.00     0.043 A 
HETATM   26  C   UNL     1       7.923  22.976  53.026  1.00  0.00     0.069 A 
HETATM   27  C   UNL     1       7.867  21.615  52.726  1.00  0.00     0.039 A 
HETATM   28  C   UNL     1       7.939  20.640  53.725  1.00  0.00     0.033 A 
HETATM   29  N   UNL     1       8.170  20.359  56.210  1.00  0.00    -0.365 N 
HETATM   30  H   UNL     1       8.133  19.351  56.266  1.00  0.00     0.165 HD
HETATM   31  C   UNL     1       8.317  21.204  57.277  1.00  0.00     0.096 A 
BRANCH  26  32
HETATM   32  O   UNL     1       7.832  23.802  51.937  1.00  0.00    -0.356 OA
HETATM   33  C   UNL     1       7.880  25.201  52.187  1.00  0.00     0.210 C 
ENDBRANCH  26  32
ENDBRANCH  21  22
ENDBRANCH  20  21
ENDBRANCH   1  20
TORSDOF 6
ENDMDL
MODEL 3
REMARK VINA RESULT:     -11.0      1.424      2.250
REMARK  6 active torsions:
REMARK  status: ('A' for Active; 'I' for Inactive)
REMARK    1  A    between atoms: O_2  and  C_3 
REMARK    2  A    between atoms: C_10  and  C_11 
REMARK    3  A    between atoms: C_11  and  C_12 
REMARK    4  A    between atoms: C_12  and  N_13 
REMARK       I    between atoms: N_13  and  C_14 
REMARK    5  A    between atoms: C_14  and  C_15 
REMARK    6  A    between atoms: C_21  and  C_22 
ROOT
HETATM    1  N   UNL     1       7.381  27.537  55.615  1.00  0.00    -0.357 N 
HETATM    2  C   UNL     1       7.143  28.202  56.800  1.00  0.00     0.251 C 
HETATM    3  O   UNL     1       6.136  28.035  57.479  1.00  0.00    -0.268 OA
HETATM    4  H   UNL     1       8.338  27.466  55.293  1.00  0.00     0.162 HD
ENDROOT
BRANCH   2   5
HETATM    5  C   UNL     1       8.195  29.157  57.258  1.00  0.00     0.033 A 
HETATM    6  C   UNL     1       7.919  29.877  58.447  1.00  0.00     0.033 A 
HETATM    7  C   UNL     1       8.929  30.789  58.753  1.00  0.00     0.033 A 
HETATM    8  C   UNL     1      10.143  31.001  57.999  1.00  0.00     0.097 A 
HETATM    9  C   UNL     1       8.983  31.653  59.818  1.00  0.00     0.124 A 
HETATM   10  N   UNL     1      10.878  31.943  58.607  1.00  0.00    -0.127 NA
HETATM   11  C   UNL     1      10.402  30.274  56.825  1.00  0.00     0.036 A 
HETATM   12  O   UNL     1      10.165  32.339  59.723  1.00  0.00    -0.211 OA
HETATM   13  C   UNL     1       9.385  29.355  56.478  1.00  0.00     0.019 A 
BRANCH   9  14
HETATM   14  C   UNL     1       8.146  32.020  60.956  1.00  0.00     0.001 A 
HETATM   15  C   UNL     1       6.813  32.418  60.786  1.00  0.00     0.014 A 
HETATM   16  C   UNL     1       6.021  32.763  61.887  1.00  0.00     0.001 A 
HETATM   17  C   UNL     1       6.555  32.724  63.172  1.00  0.00     0.000 A 
HETATM   18  C   UNL     1       7.882  32.345  63.359  1.00  0.00     0.001 A 
HETATM   19  C   UNL     1       8.670  31.996  62.259  1.00  0.00     0.014 A 
ENDBRANCH   9  14
ENDBRANCH   2   5
BRANCH   1  20
HETATM   20  C   UNL     1       6.462  26.509  55.150  1.00  0.00     0.127 C 
BRANCH  20  21
HETATM   21  C   UNL     1       7.181  25.277  54.595  1.00  0.00     0.060 C 
BRANCH  21  22
HETATM   22  C   UNL     1       7.573  24.297  55.659  1.00  0.00    -0.029 A 
HETATM   23  C   UNL     1       7.947  22.926  55.477  1.00  0.00     0.001 A 
HETATM   24  C   UNL     1       8.061  22.078  54.351  1.00  0.00     0.051 A 
HETATM   25  C   UNL     1       8.251  22.407  56.735  1.00  0.00     0.043 A 
HETATM   26  C   UNL     1       8.475  20.752  54.522  1.00  0.00     0.069 A 
HETATM   27  C   UNL     1       8.785  20.277  55.797  1.00  0.00     0.039 A 
HETATM   28  C   UNL     1       8.673  21.090  56.929  1.00  0.00     0.033 A 
HETATM   29  N   UNL     1       8.046  23.412  57.651  1.00  0.00    -0.365 N 
HETATM   30  H   UNL     1       8.179  23.316  58.648  1.00  0.00     0.165 HD
HETATM   31  C   UNL     1       7.641  24.555  57.015  1.00  0.00     0.096 A 
BRANCH  26  32
HETATM   32  O   UNL     1       8.629  19.830  53.521  1.00  0.00    -0.356 OA
HETATM   33  C   UNL     1       8.086  20.168  52.250  1.00  0.00     0.210 C 
ENDBRANCH  26  32
ENDBRANCH  21  22
ENDBRANCH  20  21
ENDBRANCH   1  20
TORSDOF 6
ENDMDL
MODEL 4
REMARK VINA RESULT:     -10.6      2.115     10.572
REMARK  6 active torsions:
REMARK  status: ('A' for Active; 'I' for Inactive)
REMARK    1  A    between atoms: O_2  and  C_3 
REMARK    2  A    between atoms: C_10  and  C_11 
REMARK    3  A    between atoms: C_11  and  C_12 
REMARK    4  A    between atoms: C_12  and  N_13 
REMARK       I    between atoms: N_13  and  C_14 
REMARK    5  A    between atoms: C_14  and  C_15 
REMARK    6  A    between atoms: C_21  and  C_22 
ROOT
HETATM    1  N   UNL     1       7.921  29.337  57.062  1.00  0.00    -0.357 N 
HETATM    2  C   UNL     1       7.617  27.994  57.153  1.00  0.00     0.251 C 
HETATM    3  O   UNL     1       7.933  27.292  58.107  1.00  0.00    -0.268 OA
HETATM    4  H   UNL     1       7.364  29.910  56.440  1.00  0.00     0.162 HD
ENDROOT
BRANCH   2   5
HETATM    5  C   UNL     1       6.851  27.399  56.018  1.00  0.00     0.033 A 
HETATM    6  C   UNL     1       7.161  26.059  55.681  1.00  0.00     0.033 A 
HETATM    7  C   UNL     1       6.442  25.619  54.569  1.00  0.00     0.033 A 
HETATM    8  C   UNL     1       5.468  26.385  53.827  1.00  0.00     0.097 A 
HETATM    9  C   UNL     1       6.503  24.388  53.965  1.00  0.00     0.124 A 
HETATM   10  N   UNL     1       4.974  25.625  52.838  1.00  0.00    -0.127 NA
HETATM   11  C   UNL     1       5.168  27.711  54.180  1.00  0.00     0.036 A 
HETATM   12  O   UNL     1       5.609  24.401  52.927  1.00  0.00    -0.211 OA
HETATM   13  C   UNL     1       5.898  28.192  55.292  1.00  0.00     0.019 A 
BRANCH   9  14
HETATM   14  C   UNL     1       7.242  23.140  54.126  1.00  0.00     0.001 A 
HETATM   15  C   UNL     1       7.765  22.451  53.023  1.00  0.00     0.014 A 
HETATM   16  C   UNL     1       8.476  21.258  53.193  1.00  0.00     0.001 A 
HETATM   17  C   UNL     1       8.666  20.733  54.468  1.00  0.00     0.000 A 
HETATM   18  C   UNL     1       8.143  21.396  55.575  1.00  0.00     0.001 A 
HETATM   19  C   UNL     1       7.437  22.590  55.404  1.00  0.00     0.014 A 
ENDBRANCH   9  14
ENDBRANCH   2   5
BRANCH   1  20
HETATM   20  C   UNL     1       8.570  30.021  58.169  1.00  0.00     0.127 C 
BRANCH  20  21
HETATM   21  C   UNL     1       7.606  30.902  58.968  1.00  0.00     0.060 C 
BRANCH  21  22
HETATM   22  C   UNL     1       8.070  31.161  60.369  1.00  0.00    -0.029 A 
HETATM   23  C   UNL     1       7.496  32.068  61.318  1.00  0.00     0.001 A 
HETATM   24  C   UNL     1       6.402  32.965  61.284  1.00  0.00     0.051 A 
HETATM   25  C   UNL     1       8.237  31.965  62.494  1.00  0.00     0.043 A 
HETATM   26  C   UNL     1       6.091  33.719  62.422  1.00  0.00     0.069 A 
HETATM   27  C   UNL     1       6.850  33.574  63.584  1.00  0.00     0.039 A 
HETATM   28  C   UNL     1       7.940  32.701  63.643  1.00  0.00     0.033 A 
HETATM   29  N   UNL     1       9.239  31.052  62.265  1.00  0.00    -0.365 N 
HETATM   30  H   UNL     1       9.939  30.785  62.944  1.00  0.00     0.165 HD
HETATM   31  C   UNL     1       9.148  30.560  60.991  1.00  0.00     0.096 A 
BRANCH  26  32
HETATM   32  O   UNL     1       5.063  34.617  62.524  1.00  0.00    -0.356 OA
HETATM   33  C   UNL     1       3.879  34.166  63.172  1.00  0.00     0.210 C 
ENDBRANCH  26  32
ENDBRANCH  21  22
ENDBRANCH  20  21
ENDBRANCH   1  20
TORSDOF 6
ENDMDL
MODEL 5
REMARK VINA RESULT:     -10.6      2.165     10.364
REMARK  6 active torsions:
REMARK  status: ('A' for Active; 'I' for Inactive)
REMARK    1  A    between atoms: O_2  and  C_3 
REMARK    2  A    between atoms: C_10  and  C_11 
REMARK    3  A    between atoms: C_11  and  C_12 
REMARK    4  A    between atoms: C_12  and  N_13 
REMARK       I    between atoms: N_13  and  C_14 
REMARK    5  A    between atoms: C_14  and  C_15 
REMARK    6  A    between atoms: C_21  and  C_22 
ROOT
HETATM    1  N   UNL     1       8.009  29.049  57.378  1.00  0.00    -0.357 N 
HETATM    2  C   UNL     1       7.832  27.695  57.177  1.00  0.00     0.251 C 
HETATM    3  O   UNL     1       7.927  26.861  58.070  1.00  0.00    -0.268 OA
HETATM    4  H   UNL     1       7.601  29.687  56.706  1.00  0.00     0.162 HD
ENDROOT
BRANCH   2   5
HETATM    5  C   UNL     1       7.494  27.260  55.790  1.00  0.00     0.033 A 
HETATM    6  C   UNL     1       7.585  25.871  55.525  1.00  0.00     0.033 A 
HETATM    7  C   UNL     1       7.317  25.574  54.189  1.00  0.00     0.033 A 
HETATM    8  C   UNL     1       6.959  26.524  53.160  1.00  0.00     0.097 A 
HETATM    9  C   UNL     1       7.327  24.342  53.585  1.00  0.00     0.124 A 
HETATM   10  N   UNL     1       6.760  25.868  52.007  1.00  0.00    -0.127 NA
HETATM   11  C   UNL     1       6.867  27.897  53.443  1.00  0.00     0.036 A 
HETATM   12  O   UNL     1       6.984  24.530  52.272  1.00  0.00    -0.211 OA
HETATM   13  C   UNL     1       7.155  28.230  54.787  1.00  0.00     0.019 A 
BRANCH   9  14
HETATM   14  C   UNL     1       7.608  22.959  53.956  1.00  0.00     0.001 A 
HETATM   15  C   UNL     1       7.977  22.003  52.999  1.00  0.00     0.014 A 
HETATM   16  C   UNL     1       8.248  20.682  53.371  1.00  0.00     0.001 A 
HETATM   17  C   UNL     1       8.143  20.295  54.704  1.00  0.00     0.000 A 
HETATM   18  C   UNL     1       7.763  21.226  55.667  1.00  0.00     0.001 A 
HETATM   19  C   UNL     1       7.499  22.547  55.295  1.00  0.00     0.014 A 
ENDBRANCH   9  14
ENDBRANCH   2   5
BRANCH   1  20
HETATM   20  C   UNL     1       8.233  29.571  58.717  1.00  0.00     0.127 C 
BRANCH  20  21
HETATM   21  C   UNL     1       8.409  31.091  58.739  1.00  0.00     0.060 C 
BRANCH  21  22
HETATM   22  C   UNL     1       7.199  31.815  59.247  1.00  0.00    -0.029 A 
HETATM   23  C   UNL     1       7.004  32.362  60.557  1.00  0.00     0.001 A 
HETATM   24  C   UNL     1       7.790  32.406  61.732  1.00  0.00     0.051 A 
HETATM   25  C   UNL     1       5.745  32.962  60.574  1.00  0.00     0.043 A 
HETATM   26  C   UNL     1       7.294  33.048  62.873  1.00  0.00     0.069 A 
HETATM   27  C   UNL     1       6.035  33.650  62.843  1.00  0.00     0.039 A 
HETATM   28  C   UNL     1       5.233  33.615  61.698  1.00  0.00     0.033 A 
HETATM   29  N   UNL     1       5.184  32.768  59.334  1.00  0.00    -0.365 N 
HETATM   30  H   UNL     1       4.265  33.090  59.063  1.00  0.00     0.165 HD
HETATM   31  C   UNL     1       6.050  32.082  58.527  1.00  0.00     0.096 A 
BRANCH  26  32
HETATM   32  O   UNL     1       7.950  33.165  64.069  1.00  0.00    -0.356 OA
HETATM   33  C   UNL     1       7.177  33.585  65.187  1.00  0.00     0.210 C 
ENDBRANCH  26  32
ENDBRANCH  21  22
ENDBRANCH  20  21
ENDBRANCH   1  20
TORSDOF 6
ENDMDL
MODEL 6
REMARK VINA RESULT:     -10.3      2.441      4.286
REMARK  6 active torsions:
REMARK  status: ('A' for Active; 'I' for Inactive)
REMARK    1  A    between atoms: O_2  and  C_3 
REMARK    2  A    between atoms: C_10  and  C_11 
REMARK    3  A    between atoms: C_11  and  C_12 
REMARK    4  A    between atoms: C_12  and  N_13 
REMARK       I    between atoms: N_13  and  C_14 
REMARK    5  A    between atoms: C_14  and  C_15 
REMARK    6  A    between atoms: C_21  and  C_22 
ROOT
HETATM    1  N   UNL     1       7.289  27.299  55.888  1.00  0.00    -0.357 N 
HETATM    2  C   UNL     1       7.777  27.415  57.173  1.00  0.00     0.251 C 
HETATM    3  O   UNL     1       7.560  26.592  58.056  1.00  0.00    -0.268 OA
HETATM    4  H   UNL     1       7.763  27.807  55.151  1.00  0.00     0.162 HD
ENDROOT
BRANCH   2   5
HETATM    5  C   UNL     1       8.623  28.610  57.466  1.00  0.00     0.033 A 
HETATM    6  C   UNL     1       8.234  29.401  58.575  1.00  0.00     0.033 A 
HETATM    7  C   UNL     1       9.044  30.527  58.724  1.00  0.00     0.033 A 
HETATM    8  C   UNL     1      10.172  30.881  57.894  1.00  0.00     0.097 A 
HETATM    9  C   UNL     1       8.946  31.510  59.677  1.00  0.00     0.124 A 
HETATM   10  N   UNL     1      10.714  32.019  58.353  1.00  0.00    -0.127 NA
HETATM   11  C   UNL     1      10.547  30.081  56.801  1.00  0.00     0.036 A 
HETATM   12  O   UNL     1       9.962  32.400  59.447  1.00  0.00    -0.211 OA
HETATM   13  C   UNL     1       9.730  28.942  56.613  1.00  0.00     0.019 A 
BRANCH   9  14
HETATM   14  C   UNL     1       8.079  31.840  60.803  1.00  0.00     0.001 A 
HETATM   15  C   UNL     1       8.569  31.885  62.116  1.00  0.00     0.014 A 
HETATM   16  C   UNL     1       7.726  32.208  63.186  1.00  0.00     0.001 A 
HETATM   17  C   UNL     1       6.380  32.482  62.958  1.00  0.00     0.000 A 
HETATM   18  C   UNL     1       5.873  32.429  61.663  1.00  0.00     0.001 A 
HETATM   19  C   UNL     1       6.717  32.111  60.595  1.00  0.00     0.014 A 
ENDBRANCH   9  14
ENDBRANCH   2   5
BRANCH   1  20
HETATM   20  C   UNL     1       6.548  26.113  55.486  1.00  0.00     0.127 C 
BRANCH  20  21
HETATM   21  C   UNL     1       5.156  26.440  54.941  1.00  0.00     0.060 C 
BRANCH  21  22
HETATM   22  C   UNL     1       5.007  26.129  53.483  1.00  0.00    -0.029 A 
HETATM   23  C   UNL     1       5.159  27.035  52.384  1.00  0.00     0.001 A 
HETATM   24  C   UNL     1       5.462  28.413  52.279  1.00  0.00     0.051 A 
HETATM   25  C   UNL     1       4.952  26.308  51.213  1.00  0.00     0.043 A 
HETATM   26  C   UNL     1       5.549  29.008  51.015  1.00  0.00     0.069 A 
HETATM   27  C   UNL     1       5.350  28.240  49.868  1.00  0.00     0.039 A 
HETATM   28  C   UNL     1       5.042  26.879  49.941  1.00  0.00     0.033 A 
HETATM   29  N   UNL     1       4.660  25.016  51.582  1.00  0.00    -0.365 N 
HETATM   30  H   UNL     1       4.454  24.267  50.935  1.00  0.00     0.165 HD
HETATM   31  C   UNL     1       4.693  24.895  52.945  1.00  0.00     0.096 A 
BRANCH  26  32
HETATM   32  O   UNL     1       5.836  30.325  50.774  1.00  0.00    -0.356 OA
HETATM   33  C   UNL     1       4.798  31.264  51.025  1.00  0.00     0.210 C 
ENDBRANCH  26  32
ENDBRANCH  21  22
ENDBRANCH  20  21
ENDBRANCH   1  20
TORSDOF 6
ENDMDL
MODEL 7
REMARK VINA RESULT:     -10.3      4.650      8.960
REMARK  6 active torsions:
REMARK  status: ('A' for Active; 'I' for Inactive)
REMARK    1  A    between atoms: O_2  and  C_3 
REMARK    2  A    between atoms: C_10  and  C_11 
REMARK    3  A    between atoms: C_11  and  C_12 
REMARK    4  A    between atoms: C_12  and  N_13 
REMARK       I    between atoms: N_13  and  C_14 
REMARK    5  A    between atoms: C_14  and  C_15 
REMARK    6  A    between atoms: C_21  and  C_22 
ROOT
HETATM    1  N   UNL     1       5.801  28.941  53.047  1.00  0.00    -0.357 N 
HETATM    2  C   UNL     1       5.257  27.972  53.864  1.00  0.00     0.251 C 
HETATM    3  O   UNL     1       4.098  27.583  53.773  1.00  0.00    -0.268 OA
HETATM    4  H   UNL     1       6.809  28.973  52.951  1.00  0.00     0.162 HD
ENDROOT
BRANCH   2   5
HETATM    5  C   UNL     1       6.159  27.376  54.894  1.00  0.00     0.033 A 
HETATM    6  C   UNL     1       6.559  26.034  54.682  1.00  0.00     0.033 A 
HETATM    7  C   UNL     1       7.343  25.549  55.730  1.00  0.00     0.033 A 
HETATM    8  C   UNL     1       7.749  26.289  56.902  1.00  0.00     0.097 A 
HETATM    9  C   UNL     1       7.887  24.296  55.859  1.00  0.00     0.124 A 
HETATM   10  N   UNL     1       8.508  25.500  57.677  1.00  0.00    -0.127 NA
HETATM   11  C   UNL     1       7.348  27.622  57.093  1.00  0.00     0.036 A 
HETATM   12  O   UNL     1       8.593  24.280  57.033  1.00  0.00    -0.211 OA
HETATM   13  C   UNL     1       6.535  28.134  56.055  1.00  0.00     0.019 A 
BRANCH   9  14
HETATM   14  C   UNL     1       7.897  23.040  55.116  1.00  0.00     0.001 A 
HETATM   15  C   UNL     1       7.805  21.803  55.768  1.00  0.00     0.014 A 
HETATM   16  C   UNL     1       7.812  20.606  55.042  1.00  0.00     0.001 A 
HETATM   17  C   UNL     1       7.920  20.631  53.655  1.00  0.00     0.000 A 
HETATM   18  C   UNL     1       8.026  21.850  52.991  1.00  0.00     0.001 A 
HETATM   19  C   UNL     1       8.014  23.044  53.716  1.00  0.00     0.014 A 
ENDBRANCH   9  14
ENDBRANCH   2   5
BRANCH   1  20
HETATM   20  C   UNL     1       5.027  29.497  51.948  1.00  0.00     0.127 C 
BRANCH  20  21
HETATM   21  C   UNL     1       5.553  29.069  50.576  1.00  0.00     0.060 C 
BRANCH  21  22
HETATM   22  C   UNL     1       4.838  27.877  50.017  1.00  0.00    -0.029 A 
HETATM   23  C   UNL     1       3.845  27.868  48.984  1.00  0.00     0.001 A 
HETATM   24  C   UNL     1       3.231  28.875  48.201  1.00  0.00     0.051 A 
HETATM   25  C   UNL     1       3.475  26.541  48.772  1.00  0.00     0.043 A 
HETATM   26  C   UNL     1       2.278  28.518  47.240  1.00  0.00     0.069 A 
HETATM   27  C   UNL     1       1.948  27.175  47.050  1.00  0.00     0.039 A 
HETATM   28  C   UNL     1       2.532  26.162  47.814  1.00  0.00     0.033 A 
HETATM   29  N   UNL     1       4.193  25.772  49.658  1.00  0.00    -0.365 N 
HETATM   30  H   UNL     1       4.119  24.767  49.736  1.00  0.00     0.165 HD
HETATM   31  C   UNL     1       5.018  26.564  50.410  1.00  0.00     0.096 A 
BRANCH  26  32
HETATM   32  O   UNL     1       1.613  29.388  46.417  1.00  0.00    -0.356 OA
HETATM   33  C   UNL     1       0.222  29.157  46.230  1.00  0.00     0.210 C 
ENDBRANCH  26  32
ENDBRANCH  21  22
ENDBRANCH  20  21
ENDBRANCH   1  20
TORSDOF 6
ENDMDL
MODEL 8
REMARK VINA RESULT:     -10.1      2.295      3.147
REMARK  6 active torsions:
REMARK  status: ('A' for Active; 'I' for Inactive)
REMARK    1  A    between atoms: O_2  and  C_3 
REMARK    2  A    between atoms: C_10  and  C_11 
REMARK    3  A    between atoms: C_11  and  C_12 
REMARK    4  A    between atoms: C_12  and  N_13 
REMARK       I    between atoms: N_13  and  C_14 
REMARK    5  A    between atoms: C_14  and  C_15 
REMARK    6  A    between atoms: C_21  and  C_22 
ROOT
HETATM    1  N   UNL     1       7.153  28.587  57.648  1.00  0.00    -0.357 N 
HETATM    2  C   UNL     1       7.738  29.750  58.106  1.00  0.00     0.251 C 
HETATM    3  O   UNL     1       8.941  29.865  58.312  1.00  0.00    -0.268 OA
HETATM    4  H   UNL     1       6.250  28.656  57.194  1.00  0.00     0.162 HD
ENDROOT
BRANCH   2   5
HETATM    5  C   UNL     1       6.832  30.913  58.339  1.00  0.00     0.033 A 
HETATM    6  C   UNL     1       6.919  31.536  59.608  1.00  0.00     0.033 A 
HETATM    7  C   UNL     1       5.989  32.566  59.751  1.00  0.00     0.033 A 
HETATM    8  C   UNL     1       5.042  33.003  58.751  1.00  0.00     0.097 A 
HETATM    9  C   UNL     1       5.787  33.368  60.846  1.00  0.00     0.124 A 
HETATM   10  N   UNL     1       4.326  34.025  59.243  1.00  0.00    -0.127 NA
HETATM   11  C   UNL     1       4.973  32.376  57.495  1.00  0.00     0.036 A 
HETATM   12  O   UNL     1       4.787  34.248  60.526  1.00  0.00    -0.211 OA
HETATM   13  C   UNL     1       5.893  31.314  57.329  1.00  0.00     0.019 A 
BRANCH   9  14
HETATM   14  C   UNL     1       6.325  33.509  62.195  1.00  0.00     0.001 A 
HETATM   15  C   UNL     1       5.775  34.417  63.111  1.00  0.00     0.014 A 
HETATM   16  C   UNL     1       6.298  34.539  64.404  1.00  0.00     0.001 A 
HETATM   17  C   UNL     1       7.384  33.761  64.795  1.00  0.00     0.000 A 
HETATM   18  C   UNL     1       7.953  32.864  63.894  1.00  0.00     0.001 A 
HETATM   19  C   UNL     1       7.426  32.740  62.605  1.00  0.00     0.014 A 
ENDBRANCH   9  14
ENDBRANCH   2   5
BRANCH   1  20
HETATM   20  C   UNL     1       7.974  27.440  57.292  1.00  0.00     0.127 C 
BRANCH  20  21
HETATM   21  C   UNL     1       7.145  26.236  56.838  1.00  0.00     0.060 C 
BRANCH  21  22
HETATM   22  C   UNL     1       7.379  25.869  55.404  1.00  0.00    -0.029 A 
HETATM   23  C   UNL     1       7.538  24.552  54.862  1.00  0.00     0.001 A 
HETATM   24  C   UNL     1       7.544  23.252  55.421  1.00  0.00     0.051 A 
HETATM   25  C   UNL     1       7.711  24.685  53.485  1.00  0.00     0.043 A 
HETATM   26  C   UNL     1       7.718  22.141  54.587  1.00  0.00     0.069 A 
HETATM   27  C   UNL     1       7.871  22.319  53.212  1.00  0.00     0.039 A 
HETATM   28  C   UNL     1       7.878  23.591  52.633  1.00  0.00     0.033 A 
HETATM   29  N   UNL     1       7.684  26.030  53.200  1.00  0.00    -0.365 N 
HETATM   30  H   UNL     1       7.796  26.424  52.276  1.00  0.00     0.165 HD
HETATM   31  C   UNL     1       7.483  26.752  54.346  1.00  0.00     0.096 A 
BRANCH  26  32
HETATM   32  O   UNL     1       7.740  20.835  54.997  1.00  0.00    -0.356 OA
HETATM   33  C   UNL     1       8.403  20.559  56.225  1.00  0.00     0.210 C 
ENDBRANCH  26  32
ENDBRANCH  21  22
ENDBRANCH  20  21
ENDBRANCH   1  20
TORSDOF 6
ENDMDL
MODEL 9
REMARK VINA RESULT:      -9.9      2.412      4.740
REMARK  6 active torsions:
REMARK  status: ('A' for Active; 'I' for Inactive)
REMARK    1  A    between atoms: O_2  and  C_3 
REMARK    2  A    between atoms: C_10  and  C_11 
REMARK    3  A    between atoms: C_11  and  C_12 
REMARK    4  A    between atoms: C_12  and  N_13 
REMARK       I    between atoms: N_13  and  C_14 
REMARK    5  A    between atoms: C_14  and  C_15 
REMARK    6  A    between atoms: C_21  and  C_22 
ROOT
HETATM    1  N   UNL     1       7.667  26.981  56.053  1.00  0.00    -0.357 N 
HETATM    2  C   UNL     1       7.979  27.277  57.363  1.00  0.00     0.251 C 
HETATM    3  O   UNL     1       7.698  26.547  58.307  1.00  0.00    -0.268 OA
HETATM    4  H   UNL     1       8.202  27.435  55.322  1.00  0.00     0.162 HD
ENDROOT
BRANCH   2   5
HETATM    5  C   UNL     1       8.711  28.555  57.609  1.00  0.00     0.033 A 
HETATM    6  C   UNL     1       8.230  29.365  58.666  1.00  0.00     0.033 A 
HETATM    7  C   UNL     1       8.935  30.564  58.771  1.00  0.00     0.033 A 
HETATM    8  C   UNL     1      10.047  30.973  57.944  1.00  0.00     0.097 A 
HETATM    9  C   UNL     1       8.730  31.582  59.668  1.00  0.00     0.124 A 
HETATM   10  N   UNL     1      10.477  32.176  58.352  1.00  0.00    -0.127 NA
HETATM   11  C   UNL     1      10.515  30.154  56.903  1.00  0.00     0.036 A 
HETATM   12  O   UNL     1       9.670  32.545  59.410  1.00  0.00    -0.211 OA
HETATM   13  C   UNL     1       9.805  28.939  56.760  1.00  0.00     0.019 A 
BRANCH   9  14
HETATM   14  C   UNL     1       7.812  31.893  60.759  1.00  0.00     0.001 A 
HETATM   15  C   UNL     1       8.241  31.919  62.093  1.00  0.00     0.014 A 
HETATM   16  C   UNL     1       7.349  32.223  63.128  1.00  0.00     0.001 A 
HETATM   17  C   UNL     1       6.014  32.496  62.844  1.00  0.00     0.000 A 
HETATM   18  C   UNL     1       5.567  32.461  61.525  1.00  0.00     0.001 A 
HETATM   19  C   UNL     1       6.459  32.162  60.492  1.00  0.00     0.014 A 
ENDBRANCH   9  14
ENDBRANCH   2   5
BRANCH   1  20
HETATM   20  C   UNL     1       7.052  25.707  55.712  1.00  0.00     0.127 C 
BRANCH  20  21
HETATM   21  C   UNL     1       5.528  25.796  55.599  1.00  0.00     0.060 C 
BRANCH  21  22
HETATM   22  C   UNL     1       5.065  26.985  54.814  1.00  0.00    -0.029 A 
HETATM   23  C   UNL     1       4.812  28.305  55.309  1.00  0.00     0.001 A 
HETATM   24  C   UNL     1       4.887  28.908  56.587  1.00  0.00     0.051 A 
HETATM   25  C   UNL     1       4.423  29.090  54.224  1.00  0.00     0.043 A 
HETATM   26  C   UNL     1       4.573  30.264  56.731  1.00  0.00     0.069 A 
HETATM   27  C   UNL     1       4.203  31.017  55.617  1.00  0.00     0.039 A 
HETATM   28  C   UNL     1       4.113  30.447  54.344  1.00  0.00     0.033 A 
HETATM   29  N   UNL     1       4.413  28.276  53.116  1.00  0.00    -0.365 N 
HETATM   30  H   UNL     1       4.158  28.577  52.185  1.00  0.00     0.165 HD
HETATM   31  C   UNL     1       4.800  27.009  53.457  1.00  0.00     0.096 A 
BRANCH  26  32
HETATM   32  O   UNL     1       4.607  30.968  57.906  1.00  0.00    -0.356 OA
HETATM   33  C   UNL     1       3.399  31.025  58.655  1.00  0.00     0.210 C 
ENDBRANCH  26  32
ENDBRANCH  21  22
ENDBRANCH  20  21
ENDBRANCH   1  20
TORSDOF 6
ENDMDL
MODEL 10
REMARK VINA RESULT:      -9.9      2.510      4.509
REMARK  6 active torsions:
REMARK  status: ('A' for Active; 'I' for Inactive)
REMARK    1  A    between atoms: O_2  and  C_3 
REMARK    2  A    between atoms: C_10  and  C_11 
REMARK    3  A    between atoms: C_11  and  C_12 
REMARK    4  A    between atoms: C_12  and  N_13 
REMARK       I    between atoms: N_13  and  C_14 
REMARK    5  A    between atoms: C_14  and  C_15 
REMARK    6  A    between atoms: C_21  and  C_22 
ROOT
HETATM    1  N   UNL     1       7.710  27.163  55.796  1.00  0.00    -0.357 N 
HETATM    2  C   UNL     1       8.092  27.299  57.114  1.00  0.00     0.251 C 
HETATM    3  O   UNL     1       7.931  26.425  57.959  1.00  0.00    -0.268 OA
HETATM    4  H   UNL     1       8.158  27.755  55.107  1.00  0.00     0.162 HD
ENDROOT
BRANCH   2   5
HETATM    5  C   UNL     1       8.747  28.585  57.496  1.00  0.00     0.033 A 
HETATM    6  C   UNL     1       8.049  29.399  58.421  1.00  0.00     0.033 A 
HETATM    7  C   UNL     1       8.709  30.605  58.660  1.00  0.00     0.033 A 
HETATM    8  C   UNL     1       9.966  31.017  58.081  1.00  0.00     0.097 A 
HETATM    9  C   UNL     1       8.313  31.628  59.485  1.00  0.00     0.124 A 
HETATM   10  N   UNL     1      10.293  32.227  58.559  1.00  0.00    -0.127 NA
HETATM   11  C   UNL     1      10.648  30.194  57.169  1.00  0.00     0.036 A 
HETATM   12  O   UNL     1       9.279  32.597  59.421  1.00  0.00    -0.211 OA
HETATM   13  C   UNL     1       9.992  28.972  56.892  1.00  0.00     0.019 A 
BRANCH   9  14
HETATM   14  C   UNL     1       7.184  31.939  60.355  1.00  0.00     0.001 A 
HETATM   15  C   UNL     1       7.267  31.787  61.746  1.00  0.00     0.014 A 
HETATM   16  C   UNL     1       6.178  32.093  62.569  1.00  0.00     0.001 A 
HETATM   17  C   UNL     1       4.986  32.547  62.011  1.00  0.00     0.000 A 
HETATM   18  C   UNL     1       4.879  32.691  60.630  1.00  0.00     0.001 A 
HETATM   19  C   UNL     1       5.970  32.390  59.810  1.00  0.00     0.014 A 
ENDBRANCH   9  14
ENDBRANCH   2   5
BRANCH   1  20
HETATM   20  C   UNL     1       7.164  25.904  55.314  1.00  0.00     0.127 C 
BRANCH  20  21
HETATM   21  C   UNL     1       5.638  25.842  55.413  1.00  0.00     0.060 C 
BRANCH  21  22
HETATM   22  C   UNL     1       4.971  27.124  55.016  1.00  0.00    -0.029 A 
HETATM   23  C   UNL     1       4.733  27.601  53.687  1.00  0.00     0.001 A 
HETATM   24  C   UNL     1       5.018  27.099  52.395  1.00  0.00     0.051 A 
HETATM   25  C   UNL     1       4.068  28.822  53.795  1.00  0.00     0.043 A 
HETATM   26  C   UNL     1       4.628  27.830  51.267  1.00  0.00     0.069 A 
HETATM   27  C   UNL     1       3.950  29.040  51.420  1.00  0.00     0.039 A 
HETATM   28  C   UNL     1       3.662  29.564  52.683  1.00  0.00     0.033 A 
HETATM   29  N   UNL     1       3.928  29.092  55.136  1.00  0.00    -0.365 N 
HETATM   30  H   UNL     1       3.490  29.922  55.511  1.00  0.00     0.165 HD
HETATM   31  C   UNL     1       4.465  28.077  55.880  1.00  0.00     0.096 A 
BRANCH  26  32
HETATM   32  O   UNL     1       4.839  27.458  49.966  1.00  0.00    -0.356 OA
HETATM   33  C   UNL     1       5.373  28.448  49.095  1.00  0.00     0.210 C 
ENDBRANCH  26  32
ENDBRANCH  21  22
ENDBRANCH  20  21
ENDBRANCH   1  20
TORSDOF 6
ENDMDL
