MODEL 1
REMARK VINA RESULT:      -8.7      0.000      0.000
REMARK  5 active torsions:
REMARK  status: ('A' for Active; 'I' for Inactive)
REMARK    1  A    between atoms: C_2  and  C_3 
REMARK       I    between atoms: C_3  and  N_4 
REMARK    2  A    between atoms: N_4  and  C_5 
REMARK    3  A    between atoms: C_5  and  C_6 
REMARK    4  A    between atoms: C_5  and  C_17 
REMARK    5  A    between atoms: C_7  and  O_8 
ROOT
HETATM    1  C   UNL     1       6.171  27.196  54.166  1.00  0.00     0.154 C 
ENDROOT
BRANCH   1   2
HETATM    2  N   UNL     1       6.219  28.032  52.979  1.00  0.00    -0.348 N 
HETATM    3  C   UNL     1       5.103  28.499  52.344  1.00  0.00     0.218 C 
HETATM    4  O   UNL     1       3.962  28.310  52.761  1.00  0.00    -0.274 OA
HETATM    5  H   UNL     1       7.137  28.125  52.564  1.00  0.00     0.163 HD
BRANCH   3   6
HETATM    6  C   UNL     1       5.357  29.384  51.136  1.00  0.00     0.098 C 
HETATM    7  C   UNL     1       5.404  28.660  49.802  1.00  0.00     0.014 C 
ENDBRANCH   3   6
ENDBRANCH   1   2
BRANCH   1   8
HETATM    8  C   UNL     1       6.864  27.925  55.312  1.00  0.00     0.005 A 
HETATM    9  C   UNL     1       8.095  28.579  55.155  1.00  0.00     0.103 A 
HETATM   10  C   UNL     1       8.750  29.230  56.200  1.00  0.00     0.100 A 
HETATM   11  C   UNL     1       8.131  29.244  57.464  1.00  0.00    -0.004 A 
HETATM   12  N   UNL     1       9.940  29.824  55.961  1.00  0.00    -0.257 NA
HETATM   13  C   UNL     1       6.890  28.611  57.646  1.00  0.00     0.014 A 
HETATM   14  C   UNL     1       8.789  29.908  58.507  1.00  0.00     0.015 A 
HETATM   15  C   UNL     1       6.267  27.957  56.580  1.00  0.00     0.013 A 
HETATM   16  C   UNL     1      10.016  30.518  58.271  1.00  0.00     0.020 A 
HETATM   17  C   UNL     1      10.546  30.448  56.996  1.00  0.00     0.117 A 
BRANCH   9  18
HETATM   18  O   UNL     1       8.690  28.621  53.909  1.00  0.00    -0.358 OA
HETATM   19  H   UNL     1       8.096  28.069  53.352  1.00  0.00     0.218 HD
ENDBRANCH   9  18
ENDBRANCH   1   8
BRANCH   1  20
HETATM   20  C   UNL     1       6.713  25.781  53.954  1.00  0.00    -0.031 A 
HETATM   21  C   UNL     1       7.364  25.469  52.746  1.00  0.00     0.010 A 
HETATM   22  C   UNL     1       7.867  24.187  52.505  1.00  0.00     0.007 A 
HETATM   23  C   UNL     1       7.730  23.180  53.464  1.00  0.00    -0.062 A 
HETATM   24  C   UNL     1       8.288  21.809  53.229  1.00  0.00     0.048 C 
HETATM   25  C   UNL     1       7.095  23.483  54.673  1.00  0.00     0.007 A 
HETATM   26  C   UNL     1       6.587  24.764  54.912  1.00  0.00     0.010 A 
ENDBRANCH   1  20
TORSDOF 5
ENDMDL
MODEL 2
REMARK VINA RESULT:      -8.4      2.446      6.517
REMARK  5 active torsions:
REMARK  status: ('A' for Active; 'I' for Inactive)
REMARK    1  A    between atoms: C_2  and  C_3 
REMARK       I    between atoms: C_3  and  N_4 
REMARK    2  A    between atoms: N_4  and  C_5 
REMARK    3  A    between atoms: C_5  and  C_6 
REMARK    4  A    between atoms: C_5  and  C_17 
REMARK    5  A    between atoms: C_7  and  O_8 
ROOT
HETATM    1  C   UNL     1       6.475  26.164  54.267  1.00  0.00     0.154 C 
ENDROOT
BRANCH   1   2
HETATM    2  N   UNL     1       7.457  26.963  54.980  1.00  0.00    -0.348 N 
HETATM    3  C   UNL     1       7.288  27.386  56.269  1.00  0.00     0.218 C 
HETATM    4  O   UNL     1       6.324  27.067  56.961  1.00  0.00    -0.274 OA
HETATM    5  H   UNL     1       8.212  27.316  54.407  1.00  0.00     0.163 HD
BRANCH   3   6
HETATM    6  C   UNL     1       8.438  28.186  56.852  1.00  0.00     0.098 C 
HETATM    7  C   UNL     1       9.018  29.248  55.935  1.00  0.00     0.014 C 
ENDBRANCH   3   6
ENDBRANCH   1   2
BRANCH   1   8
HETATM    8  C   UNL     1       7.035  24.761  54.063  1.00  0.00     0.005 A 
HETATM    9  C   UNL     1       7.086  23.811  55.096  1.00  0.00     0.103 A 
HETATM   10  C   UNL     1       7.617  22.533  54.928  1.00  0.00     0.100 A 
HETATM   11  C   UNL     1       8.104  22.178  53.656  1.00  0.00    -0.004 A 
HETATM   12  N   UNL     1       7.637  21.687  55.982  1.00  0.00    -0.257 NA
HETATM   13  C   UNL     1       8.050  23.103  52.600  1.00  0.00     0.014 A 
HETATM   14  C   UNL     1       8.626  20.889  53.493  1.00  0.00     0.015 A 
HETATM   15  C   UNL     1       7.523  24.381  52.805  1.00  0.00     0.013 A 
HETATM   16  C   UNL     1       8.655  20.013  54.572  1.00  0.00     0.020 A 
HETATM   17  C   UNL     1       8.156  20.455  55.784  1.00  0.00     0.117 A 
BRANCH   9  18
HETATM   18  O   UNL     1       6.564  24.125  56.335  1.00  0.00    -0.358 OA
HETATM   19  H   UNL     1       6.836  23.365  56.898  1.00  0.00     0.218 HD
ENDBRANCH   9  18
ENDBRANCH   1   8
BRANCH   1  20
HETATM   20  C   UNL     1       5.982  26.797  52.964  1.00  0.00    -0.031 A 
HETATM   21  C   UNL     1       6.159  28.178  52.763  1.00  0.00     0.010 A 
HETATM   22  C   UNL     1       5.717  28.801  51.592  1.00  0.00     0.007 A 
HETATM   23  C   UNL     1       5.083  28.060  50.591  1.00  0.00    -0.062 A 
HETATM   24  C   UNL     1       4.628  28.712  49.320  1.00  0.00     0.048 C 
HETATM   25  C   UNL     1       4.914  26.685  50.776  1.00  0.00     0.007 A 
HETATM   26  C   UNL     1       5.352  26.062  51.949  1.00  0.00     0.010 A 
ENDBRANCH   1  20
TORSDOF 5
ENDMDL
MODEL 3
REMARK VINA RESULT:      -8.4      2.466      5.683
REMARK  5 active torsions:
REMARK  status: ('A' for Active; 'I' for Inactive)
REMARK    1  A    between atoms: C_2  and  C_3 
REMARK       I    between atoms: C_3  and  N_4 
REMARK    2  A    between atoms: N_4  and  C_5 
REMARK    3  A    between atoms: C_5  and  C_6 
REMARK    4  A    between atoms: C_5  and  C_17 
REMARK    5  A    between atoms: C_7  and  O_8 
ROOT
HETATM    1  C   UNL     1       6.935  26.058  54.017  1.00  0.00     0.154 C 
ENDROOT
BRANCH   1   2
HETATM    2  N   UNL     1       6.154  26.487  55.165  1.00  0.00    -0.348 N 
HETATM    3  C   UNL     1       6.541  27.496  56.002  1.00  0.00     0.218 C 
HETATM    4  O   UNL     1       7.548  28.176  55.816  1.00  0.00    -0.274 OA
HETATM    5  H   UNL     1       5.373  25.886  55.393  1.00  0.00     0.163 HD
BRANCH   3   6
HETATM    6  C   UNL     1       5.577  27.819  57.130  1.00  0.00     0.098 C 
HETATM    7  C   UNL     1       5.334  29.298  57.369  1.00  0.00     0.014 C 
ENDBRANCH   3   6
ENDBRANCH   1   2
BRANCH   1   8
HETATM    8  C   UNL     1       6.193  26.447  52.743  1.00  0.00     0.005 A 
HETATM    9  C   UNL     1       6.127  27.771  52.283  1.00  0.00     0.103 A 
HETATM   10  C   UNL     1       5.432  28.142  51.132  1.00  0.00     0.100 A 
HETATM   11  C   UNL     1       4.787  27.134  50.391  1.00  0.00    -0.004 A 
HETATM   12  N   UNL     1       5.411  29.444  50.769  1.00  0.00    -0.257 NA
HETATM   13  C   UNL     1       4.852  25.797  50.821  1.00  0.00     0.014 A 
HETATM   14  C   UNL     1       4.100  27.513  49.231  1.00  0.00     0.015 A 
HETATM   15  C   UNL     1       5.545  25.461  51.985  1.00  0.00     0.013 A 
HETATM   16  C   UNL     1       4.069  28.851  48.853  1.00  0.00     0.020 A 
HETATM   17  C   UNL     1       4.731  29.769  49.647  1.00  0.00     0.117 A 
BRANCH   9  18
HETATM   18  O   UNL     1       6.798  28.764  52.968  1.00  0.00    -0.358 OA
HETATM   19  H   UNL     1       7.024  28.339  53.826  1.00  0.00     0.218 HD
ENDBRANCH   9  18
ENDBRANCH   1   8
BRANCH   1  20
HETATM   20  C   UNL     1       7.324  24.579  54.045  1.00  0.00    -0.031 A 
HETATM   21  C   UNL     1       7.077  23.826  55.207  1.00  0.00     0.010 A 
HETATM   22  C   UNL     1       7.424  22.474  55.281  1.00  0.00     0.007 A 
HETATM   23  C   UNL     1       8.031  21.838  54.195  1.00  0.00    -0.062 A 
HETATM   24  C   UNL     1       8.384  20.382  54.252  1.00  0.00     0.048 C 
HETATM   25  C   UNL     1       8.270  22.574  53.031  1.00  0.00     0.007 A 
HETATM   26  C   UNL     1       7.928  23.928  52.958  1.00  0.00     0.010 A 
ENDBRANCH   1  20
TORSDOF 5
ENDMDL
MODEL 4
REMARK VINA RESULT:      -8.3      1.257      1.771
REMARK  5 active torsions:
REMARK  status: ('A' for Active; 'I' for Inactive)
REMARK    1  A    between atoms: C_2  and  C_3 
REMARK       I    between atoms: C_3  and  N_4 
REMARK    2  A    between atoms: N_4  and  C_5 
REMARK    3  A    between atoms: C_5  and  C_6 
REMARK    4  A    between atoms: C_5  and  C_17 
REMARK    5  A    between atoms: C_7  and  O_8 
ROOT
HETATM    1  C   UNL     1       6.631  27.639  54.193  1.00  0.00     0.154 C 
ENDROOT
BRANCH   1   2
HETATM    2  N   UNL     1       6.522  28.410  52.967  1.00  0.00    -0.348 N 
HETATM    3  C   UNL     1       5.333  28.656  52.337  1.00  0.00     0.218 C 
HETATM    4  O   UNL     1       4.246  28.306  52.791  1.00  0.00    -0.274 OA
HETATM    5  H   UNL     1       7.405  28.629  52.525  1.00  0.00     0.163 HD
BRANCH   3   6
HETATM    6  C   UNL     1       5.420  29.507  51.083  1.00  0.00     0.098 C 
HETATM    7  C   UNL     1       5.468  28.732  49.778  1.00  0.00     0.014 C 
ENDBRANCH   3   6
ENDBRANCH   1   2
BRANCH   1   8
HETATM    8  C   UNL     1       7.579  28.359  55.146  1.00  0.00     0.005 A 
HETATM    9  C   UNL     1       7.224  28.678  56.465  1.00  0.00     0.103 A 
HETATM   10  C   UNL     1       8.073  29.356  57.338  1.00  0.00     0.100 A 
HETATM   11  C   UNL     1       9.353  29.716  56.875  1.00  0.00    -0.004 A 
HETATM   12  N   UNL     1       7.644  29.634  58.590  1.00  0.00    -0.257 NA
HETATM   13  C   UNL     1       9.740  29.394  55.563  1.00  0.00     0.014 A 
HETATM   14  C   UNL     1      10.204  30.388  57.761  1.00  0.00     0.015 A 
HETATM   15  C   UNL     1       8.860  28.725  54.710  1.00  0.00     0.013 A 
HETATM   16  C   UNL     1       9.769  30.682  59.049  1.00  0.00     0.020 A 
HETATM   17  C   UNL     1       8.493  30.290  59.411  1.00  0.00     0.117 A 
BRANCH   9  18
HETATM   18  O   UNL     1       5.993  28.286  56.953  1.00  0.00    -0.358 OA
HETATM   19  H   UNL     1       5.746  29.014  57.566  1.00  0.00     0.218 HD
ENDBRANCH   9  18
ENDBRANCH   1   8
BRANCH   1  20
HETATM   20  C   UNL     1       7.013  26.174  53.976  1.00  0.00    -0.031 A 
HETATM   21  C   UNL     1       7.515  25.773  52.725  1.00  0.00     0.010 A 
HETATM   22  C   UNL     1       7.869  24.444  52.479  1.00  0.00     0.007 A 
HETATM   23  C   UNL     1       7.727  23.476  53.477  1.00  0.00    -0.062 A 
HETATM   24  C   UNL     1       8.127  22.052  53.234  1.00  0.00     0.048 C 
HETATM   25  C   UNL     1       7.240  23.866  54.728  1.00  0.00     0.007 A 
HETATM   26  C   UNL     1       6.882  25.195  54.973  1.00  0.00     0.010 A 
ENDBRANCH   1  20
TORSDOF 5
ENDMDL
MODEL 5
REMARK VINA RESULT:      -8.3      2.071      2.614
REMARK  5 active torsions:
REMARK  status: ('A' for Active; 'I' for Inactive)
REMARK    1  A    between atoms: C_2  and  C_3 
REMARK       I    between atoms: C_3  and  N_4 
REMARK    2  A    between atoms: N_4  and  C_5 
REMARK    3  A    between atoms: C_5  and  C_6 
REMARK    4  A    between atoms: C_5  and  C_17 
REMARK    5  A    between atoms: C_7  and  O_8 
ROOT
HETATM    1  C   UNL     1       6.424  27.298  56.049  1.00  0.00     0.154 C 
ENDROOT
BRANCH   1   2
HETATM    2  N   UNL     1       5.801  27.953  54.911  1.00  0.00    -0.348 N 
HETATM    3  C   UNL     1       4.521  28.431  54.928  1.00  0.00     0.218 C 
HETATM    4  O   UNL     1       3.808  28.413  55.929  1.00  0.00    -0.274 OA
HETATM    5  H   UNL     1       6.330  27.898  54.051  1.00  0.00     0.163 HD
BRANCH   3   6
HETATM    6  C   UNL     1       4.058  29.111  53.652  1.00  0.00     0.098 C 
HETATM    7  C   UNL     1       4.098  28.244  52.406  1.00  0.00     0.014 C 
ENDBRANCH   3   6
ENDBRANCH   1   2
BRANCH   1   8
HETATM    8  C   UNL     1       7.363  28.285  56.733  1.00  0.00     0.005 A 
HETATM    9  C   UNL     1       6.910  29.248  57.648  1.00  0.00     0.103 A 
HETATM   10  C   UNL     1       7.756  30.171  58.262  1.00  0.00     0.100 A 
HETATM   11  C   UNL     1       9.130  30.115  57.962  1.00  0.00    -0.004 A 
HETATM   12  N   UNL     1       7.230  31.072  59.122  1.00  0.00    -0.257 NA
HETATM   13  C   UNL     1       9.613  29.149  57.063  1.00  0.00     0.014 A 
HETATM   14  C   UNL     1       9.974  31.038  58.591  1.00  0.00     0.015 A 
HETATM   15  C   UNL     1       8.737  28.248  56.454  1.00  0.00     0.013 A 
HETATM   16  C   UNL     1       9.442  31.972  59.473  1.00  0.00     0.020 A 
HETATM   17  C   UNL     1       8.078  31.950  59.702  1.00  0.00     0.117 A 
BRANCH   9  18
HETATM   18  O   UNL     1       5.573  29.283  57.994  1.00  0.00    -0.358 OA
HETATM   19  H   UNL     1       5.195  28.503  57.528  1.00  0.00     0.218 HD
ENDBRANCH   9  18
ENDBRANCH   1   8
BRANCH   1  20
HETATM   20  C   UNL     1       7.107  25.973  55.709  1.00  0.00    -0.031 A 
HETATM   21  C   UNL     1       7.301  25.627  54.359  1.00  0.00     0.010 A 
HETATM   22  C   UNL     1       7.913  24.423  54.000  1.00  0.00     0.007 A 
HETATM   23  C   UNL     1       8.345  23.528  54.983  1.00  0.00    -0.062 A 
HETATM   24  C   UNL     1       9.026  22.245  54.612  1.00  0.00     0.048 C 
HETATM   25  C   UNL     1       8.168  23.867  56.327  1.00  0.00     0.007 A 
HETATM   26  C   UNL     1       7.552  25.070  56.686  1.00  0.00     0.010 A 
ENDBRANCH   1  20
TORSDOF 5
ENDMDL
MODEL 6
REMARK VINA RESULT:      -8.2      1.807      5.988
REMARK  5 active torsions:
REMARK  status: ('A' for Active; 'I' for Inactive)
REMARK    1  A    between atoms: C_2  and  C_3 
REMARK       I    between atoms: C_3  and  N_4 
REMARK    2  A    between atoms: N_4  and  C_5 
REMARK    3  A    between atoms: C_5  and  C_6 
REMARK    4  A    between atoms: C_5  and  C_17 
REMARK    5  A    between atoms: C_7  and  O_8 
ROOT
HETATM    1  C   UNL     1       7.085  27.537  54.912  1.00  0.00     0.154 C 
ENDROOT
BRANCH   1   2
HETATM    2  N   UNL     1       5.677  27.782  54.649  1.00  0.00    -0.348 N 
HETATM    3  C   UNL     1       5.195  28.148  53.423  1.00  0.00     0.218 C 
HETATM    4  O   UNL     1       5.900  28.232  52.420  1.00  0.00    -0.274 OA
HETATM    5  H   UNL     1       5.092  27.811  55.473  1.00  0.00     0.163 HD
BRANCH   3   6
HETATM    6  C   UNL     1       3.690  28.330  53.338  1.00  0.00     0.098 C 
HETATM    7  C   UNL     1       3.186  28.951  52.048  1.00  0.00     0.014 C 
ENDBRANCH   3   6
ENDBRANCH   1   2
BRANCH   1   8
HETATM    8  C   UNL     1       7.305  26.035  55.058  1.00  0.00     0.005 A 
HETATM    9  C   UNL     1       7.482  25.188  53.953  1.00  0.00     0.103 A 
HETATM   10  C   UNL     1       7.661  23.810  54.072  1.00  0.00     0.100 A 
HETATM   11  C   UNL     1       7.685  23.253  55.365  1.00  0.00    -0.004 A 
HETATM   12  N   UNL     1       7.812  23.069  52.953  1.00  0.00    -0.257 NA
HETATM   13  C   UNL     1       7.527  24.081  56.489  1.00  0.00     0.014 A 
HETATM   14  C   UNL     1       7.876  21.870  55.477  1.00  0.00     0.015 A 
HETATM   15  C   UNL     1       7.337  25.455  56.334  1.00  0.00     0.013 A 
HETATM   16  C   UNL     1       8.027  21.098  54.330  1.00  0.00     0.020 A 
HETATM   17  C   UNL     1       7.986  21.737  53.104  1.00  0.00     0.117 A 
BRANCH   9  18
HETATM   18  O   UNL     1       7.515  25.725  52.681  1.00  0.00    -0.358 OA
HETATM   19  H   UNL     1       8.415  25.497  52.358  1.00  0.00     0.218 HD
ENDBRANCH   9  18
ENDBRANCH   1   8
BRANCH   1  20
HETATM   20  C   UNL     1       7.647  28.332  56.092  1.00  0.00    -0.031 A 
HETATM   21  C   UNL     1       6.761  28.842  57.059  1.00  0.00     0.010 A 
HETATM   22  C   UNL     1       7.229  29.583  58.149  1.00  0.00     0.007 A 
HETATM   23  C   UNL     1       8.595  29.835  58.301  1.00  0.00    -0.062 A 
HETATM   24  C   UNL     1       9.111  30.605  59.479  1.00  0.00     0.048 C 
HETATM   25  C   UNL     1       9.484  29.322  57.352  1.00  0.00     0.007 A 
HETATM   26  C   UNL     1       9.017  28.586  56.259  1.00  0.00     0.010 A 
ENDBRANCH   1  20
TORSDOF 5
ENDMDL
MODEL 7
REMARK VINA RESULT:      -8.1      1.543      1.804
REMARK  5 active torsions:
REMARK  status: ('A' for Active; 'I' for Inactive)
REMARK    1  A    between atoms: C_2  and  C_3 
REMARK       I    between atoms: C_3  and  N_4 
REMARK    2  A    between atoms: N_4  and  C_5 
REMARK    3  A    between atoms: C_5  and  C_6 
REMARK    4  A    between atoms: C_5  and  C_17 
REMARK    5  A    between atoms: C_7  and  O_8 
ROOT
HETATM    1  C   UNL     1       6.164  26.798  54.252  1.00  0.00     0.154 C 
ENDROOT
BRANCH   1   2
HETATM    2  N   UNL     1       6.269  27.634  53.068  1.00  0.00    -0.348 N 
HETATM    3  C   UNL     1       5.187  28.055  52.348  1.00  0.00     0.218 C 
HETATM    4  O   UNL     1       4.026  27.823  52.679  1.00  0.00    -0.274 OA
HETATM    5  H   UNL     1       7.211  27.761  52.722  1.00  0.00     0.163 HD
BRANCH   3   6
HETATM    6  C   UNL     1       5.497  28.947  51.159  1.00  0.00     0.098 C 
HETATM    7  C   UNL     1       5.348  28.287  49.799  1.00  0.00     0.014 C 
ENDBRANCH   3   6
ENDBRANCH   1   2
BRANCH   1   8
HETATM    8  C   UNL     1       6.739  27.556  55.443  1.00  0.00     0.005 A 
HETATM    9  C   UNL     1       6.152  28.728  55.946  1.00  0.00     0.103 A 
HETATM   10  C   UNL     1       6.681  29.443  57.020  1.00  0.00     0.100 A 
HETATM   11  C   UNL     1       7.845  28.949  57.638  1.00  0.00    -0.004 A 
HETATM   12  N   UNL     1       6.057  30.569  57.430  1.00  0.00    -0.257 NA
HETATM   13  C   UNL     1       8.443  27.768  57.166  1.00  0.00     0.014 A 
HETATM   14  C   UNL     1       8.364  29.666  58.722  1.00  0.00     0.015 A 
HETATM   15  C   UNL     1       7.895  27.083  56.079  1.00  0.00     0.013 A 
HETATM   16  C   UNL     1       7.731  30.829  59.148  1.00  0.00     0.020 A 
HETATM   17  C   UNL     1       6.594  31.236  58.475  1.00  0.00     0.117 A 
BRANCH   9  18
HETATM   18  O   UNL     1       4.981  29.197  55.385  1.00  0.00    -0.358 OA
HETATM   19  H   UNL     1       4.760  28.517  54.710  1.00  0.00     0.218 HD
ENDBRANCH   9  18
ENDBRANCH   1   8
BRANCH   1  20
HETATM   20  C   UNL     1       6.776  25.405  54.088  1.00  0.00    -0.031 A 
HETATM   21  C   UNL     1       7.506  25.109  52.923  1.00  0.00     0.010 A 
HETATM   22  C   UNL     1       8.075  23.847  52.726  1.00  0.00     0.007 A 
HETATM   23  C   UNL     1       7.927  22.846  53.690  1.00  0.00    -0.062 A 
HETATM   24  C   UNL     1       8.555  21.497  53.503  1.00  0.00     0.048 C 
HETATM   25  C   UNL     1       7.215  23.134  54.857  1.00  0.00     0.007 A 
HETATM   26  C   UNL     1       6.641  24.395  55.052  1.00  0.00     0.010 A 
ENDBRANCH   1  20
TORSDOF 5
ENDMDL
MODEL 8
REMARK VINA RESULT:      -8.0      5.908      8.475
REMARK  5 active torsions:
REMARK  status: ('A' for Active; 'I' for Inactive)
REMARK    1  A    between atoms: C_2  and  C_3 
REMARK       I    between atoms: C_3  and  N_4 
REMARK    2  A    between atoms: N_4  and  C_5 
REMARK    3  A    between atoms: C_5  and  C_6 
REMARK    4  A    between atoms: C_5  and  C_17 
REMARK    5  A    between atoms: C_7  and  O_8 
ROOT
HETATM    1  C   UNL     1       6.339  31.773  59.940  1.00  0.00     0.154 C 
ENDROOT
BRANCH   1   2
HETATM    2  N   UNL     1       5.631  32.816  59.218  1.00  0.00    -0.348 N 
HETATM    3  C   UNL     1       4.391  32.642  58.671  1.00  0.00     0.218 C 
HETATM    4  O   UNL     1       3.735  31.611  58.804  1.00  0.00    -0.274 OA
HETATM    5  H   UNL     1       6.184  33.639  59.015  1.00  0.00     0.163 HD
BRANCH   3   6
HETATM    6  C   UNL     1       3.802  33.859  57.980  1.00  0.00     0.098 C 
HETATM    7  C   UNL     1       4.682  34.485  56.912  1.00  0.00     0.014 C 
ENDBRANCH   3   6
ENDBRANCH   1   2
BRANCH   1   8
HETATM    8  C   UNL     1       6.564  32.234  61.376  1.00  0.00     0.005 A 
HETATM    9  C   UNL     1       5.506  32.555  62.240  1.00  0.00     0.103 A 
HETATM   10  C   UNL     1       5.701  32.999  63.548  1.00  0.00     0.100 A 
HETATM   11  C   UNL     1       7.021  33.108  64.023  1.00  0.00    -0.004 A 
HETATM   12  N   UNL     1       4.623  33.299  64.306  1.00  0.00    -0.257 NA
HETATM   13  C   UNL     1       8.098  32.776  63.184  1.00  0.00     0.014 A 
HETATM   14  C   UNL     1       7.207  33.545  65.340  1.00  0.00     0.015 A 
HETATM   15  C   UNL     1       7.870  32.347  61.875  1.00  0.00     0.013 A 
HETATM   16  C   UNL     1       6.104  33.860  66.127  1.00  0.00     0.020 A 
HETATM   17  C   UNL     1       4.846  33.724  65.569  1.00  0.00     0.117 A 
BRANCH   9  18
HETATM   18  O   UNL     1       4.204  32.404  61.807  1.00  0.00    -0.358 OA
HETATM   19  H   UNL     1       3.684  32.932  62.454  1.00  0.00     0.218 HD
ENDBRANCH   9  18
ENDBRANCH   1   8
BRANCH   1  20
HETATM   20  C   UNL     1       7.628  31.308  59.261  1.00  0.00    -0.031 A 
HETATM   21  C   UNL     1       7.652  30.057  58.617  1.00  0.00     0.010 A 
HETATM   22  C   UNL     1       8.810  29.587  57.991  1.00  0.00     0.007 A 
HETATM   23  C   UNL     1       9.978  30.355  57.994  1.00  0.00    -0.062 A 
HETATM   24  C   UNL     1      11.219  29.874  57.304  1.00  0.00     0.048 C 
HETATM   25  C   UNL     1       9.962  31.605  58.620  1.00  0.00     0.007 A 
HETATM   26  C   UNL     1       8.804  32.073  59.251  1.00  0.00     0.010 A 
ENDBRANCH   1  20
TORSDOF 5
ENDMDL
MODEL 9
REMARK VINA RESULT:      -8.0      8.735     13.120
REMARK  5 active torsions:
REMARK  status: ('A' for Active; 'I' for Inactive)
REMARK    1  A    between atoms: C_2  and  C_3 
REMARK       I    between atoms: C_3  and  N_4 
REMARK    2  A    between atoms: N_4  and  C_5 
REMARK    3  A    between atoms: C_5  and  C_6 
REMARK    4  A    between atoms: C_5  and  C_17 
REMARK    5  A    between atoms: C_7  and  O_8 
ROOT
HETATM    1  C   UNL     1       5.115  35.604  63.571  1.00  0.00     0.154 C 
ENDROOT
BRANCH   1   2
HETATM    2  N   UNL     1       4.665  35.449  64.943  1.00  0.00    -0.348 N 
HETATM    3  C   UNL     1       3.540  34.754  65.292  1.00  0.00     0.218 C 
HETATM    4  O   UNL     1       2.851  34.139  64.481  1.00  0.00    -0.274 OA
HETATM    5  H   UNL     1       5.158  36.020  65.617  1.00  0.00     0.163 HD
BRANCH   3   6
HETATM    6  C   UNL     1       3.250  34.679  66.780  1.00  0.00     0.098 C 
HETATM    7  C   UNL     1       4.397  34.178  67.638  1.00  0.00     0.014 C 
ENDBRANCH   3   6
ENDBRANCH   1   2
BRANCH   1   8
HETATM    8  C   UNL     1       6.091  34.479  63.242  1.00  0.00     0.005 A 
HETATM    9  C   UNL     1       6.103  33.830  61.998  1.00  0.00     0.103 A 
HETATM   10  C   UNL     1       6.975  32.786  61.694  1.00  0.00     0.100 A 
HETATM   11  C   UNL     1       7.897  32.382  62.678  1.00  0.00    -0.004 A 
HETATM   12  N   UNL     1       6.908  32.209  60.473  1.00  0.00    -0.257 NA
HETATM   13  C   UNL     1       7.917  33.026  63.927  1.00  0.00     0.014 A 
HETATM   14  C   UNL     1       8.776  31.339  62.361  1.00  0.00     0.015 A 
HETATM   15  C   UNL     1       7.021  34.061  64.204  1.00  0.00     0.013 A 
HETATM   16  C   UNL     1       8.712  30.737  61.109  1.00  0.00     0.020 A 
HETATM   17  C   UNL     1       7.769  31.201  60.210  1.00  0.00     0.117 A 
BRANCH   9  18
HETATM   18  O   UNL     1       5.241  34.249  61.003  1.00  0.00    -0.358 OA
HETATM   19  H   UNL     1       5.744  34.075  60.176  1.00  0.00     0.218 HD
ENDBRANCH   9  18
ENDBRANCH   1   8
BRANCH   1  20
HETATM   20  C   UNL     1       5.682  36.988  63.252  1.00  0.00    -0.031 A 
HETATM   21  C   UNL     1       5.733  37.959  64.269  1.00  0.00     0.010 A 
HETATM   22  C   UNL     1       6.235  39.240  64.022  1.00  0.00     0.007 A 
HETATM   23  C   UNL     1       6.697  39.587  62.749  1.00  0.00    -0.062 A 
HETATM   24  C   UNL     1       7.261  40.949  62.477  1.00  0.00     0.048 C 
HETATM   25  C   UNL     1       6.661  38.626  61.735  1.00  0.00     0.007 A 
HETATM   26  C   UNL     1       6.155  37.345  61.980  1.00  0.00     0.010 A 
ENDBRANCH   1  20
TORSDOF 5
ENDMDL
MODEL 10
REMARK VINA RESULT:      -7.8      2.205      6.136
REMARK  5 active torsions:
REMARK  status: ('A' for Active; 'I' for Inactive)
REMARK    1  A    between atoms: C_2  and  C_3 
REMARK       I    between atoms: C_3  and  N_4 
REMARK    2  A    between atoms: N_4  and  C_5 
REMARK    3  A    between atoms: C_5  and  C_6 
REMARK    4  A    between atoms: C_5  and  C_17 
REMARK    5  A    between atoms: C_7  and  O_8 
ROOT
HETATM    1  C   UNL     1       6.955  28.044  54.721  1.00  0.00     0.154 C 
ENDROOT
BRANCH   1   2
HETATM    2  N   UNL     1       5.663  28.099  55.382  1.00  0.00    -0.348 N 
HETATM    3  C   UNL     1       4.811  29.163  55.278  1.00  0.00     0.218 C 
HETATM    4  O   UNL     1       5.032  30.134  54.559  1.00  0.00    -0.274 OA
HETATM    5  H   UNL     1       5.498  27.358  56.051  1.00  0.00     0.163 HD
BRANCH   3   6
HETATM    6  C   UNL     1       3.493  29.023  56.018  1.00  0.00     0.098 C 
HETATM    7  C   UNL     1       3.102  30.214  56.874  1.00  0.00     0.014 C 
ENDBRANCH   3   6
ENDBRANCH   1   2
BRANCH   1   8
HETATM    8  C   UNL     1       7.227  26.607  54.290  1.00  0.00     0.005 A 
HETATM    9  C   UNL     1       7.135  25.522  55.176  1.00  0.00     0.103 A 
HETATM   10  C   UNL     1       7.403  24.207  54.799  1.00  0.00     0.100 A 
HETATM   11  C   UNL     1       7.763  23.960  53.461  1.00  0.00    -0.004 A 
HETATM   12  N   UNL     1       7.301  23.226  55.723  1.00  0.00    -0.257 NA
HETATM   13  C   UNL     1       7.847  25.025  52.548  1.00  0.00     0.014 A 
HETATM   14  C   UNL     1       8.021  22.635  53.088  1.00  0.00     0.015 A 
HETATM   15  C   UNL     1       7.584  26.333  52.961  1.00  0.00     0.013 A 
HETATM   16  C   UNL     1       7.923  21.619  54.033  1.00  0.00     0.020 A 
HETATM   17  C   UNL     1       7.566  21.962  55.324  1.00  0.00     0.117 A 
BRANCH   9  18
HETATM   18  O   UNL     1       6.732  25.741  56.479  1.00  0.00    -0.358 OA
HETATM   19  H   UNL     1       7.561  26.013  56.933  1.00  0.00     0.218 HD
ENDBRANCH   9  18
ENDBRANCH   1   8
BRANCH   1  20
HETATM   20  C   UNL     1       8.101  28.640  55.540  1.00  0.00    -0.031 A 
HETATM   21  C   UNL     1       9.269  29.064  54.879  1.00  0.00     0.010 A 
HETATM   22  C   UNL     1      10.345  29.607  55.587  1.00  0.00     0.007 A 
HETATM   23  C   UNL     1      10.284  29.738  56.977  1.00  0.00    -0.062 A 
HETATM   24  C   UNL     1      11.421  30.343  57.746  1.00  0.00     0.048 C 
HETATM   25  C   UNL     1       9.124  29.332  57.642  1.00  0.00     0.007 A 
HETATM   26  C   UNL     1       8.049  28.784  56.935  1.00  0.00     0.010 A 
ENDBRANCH   1  20
TORSDOF 5
ENDMDL
