MODEL 1
REMARK VINA RESULT:     -10.4      0.000      0.000
REMARK  9 active torsions:
REMARK  status: ('A' for Active; 'I' for Inactive)
REMARK    1  A    between atoms: O_2  and  C_3 
REMARK    2  A    between atoms: C_6  and  N_7 
REMARK    3  A    between atoms: N_10  and  C_12 
REMARK    4  A    between atoms: C_12  and  C_13 
REMARK    5  A    between atoms: C_13  and  C_14 
REMARK    6  A    between atoms: C_14  and  N_15 
REMARK       I    between atoms: N_15  and  C_16 
REMARK    7  A    between atoms: C_16  and  C_17 
REMARK    8  A    between atoms: C_17  and  C_18 
REMARK    9  A    between atoms: C_18  and  C_19 
ROOT
HETATM    1  N   UNL     1       8.424  30.592  59.490  1.00  0.00    -0.361 N 
HETATM    2  C   UNL     1       9.111  31.760  59.754  1.00  0.00     0.217 C 
HETATM    3  O   UNL     1       9.828  32.308  58.922  1.00  0.00    -0.274 OA
HETATM    4  H   UNL     1       8.048  30.098  60.298  1.00  0.00     0.162 HD
ENDROOT
BRANCH   1   5
HETATM    5  C   UNL     1       8.684  29.840  58.281  1.00  0.00     0.124 C 
BRANCH   5   6
HETATM    6  C   UNL     1       7.439  29.653  57.406  1.00  0.00     0.047 C 
BRANCH   6   7
HETATM    7  C   UNL     1       7.842  29.266  55.988  1.00  0.00     0.236 C 
BRANCH   7   8
HETATM    8  N   UNL     1       6.817  28.337  55.371  1.00  0.00    -0.068 N 
HETATM    9  C   UNL     1       7.193  27.909  53.938  1.00  0.00     0.254 C 
HETATM   10  C   UNL     1       6.142  26.934  53.360  1.00  0.00     0.150 C 
HETATM   11  N   UNL     1       5.916  25.786  54.258  1.00  0.00    -0.378 N 
HETATM   12  C   UNL     1       5.517  26.179  55.625  1.00  0.00     0.150 C 
HETATM   13  C   UNL     1       6.584  27.100  56.252  1.00  0.00     0.254 C 
HETATM   14  H   UNL     1       5.918  28.832  55.310  1.00  0.00     0.280 HD
BRANCH  11  15
HETATM   15  C   UNL     1       6.674  24.617  54.131  1.00  0.00     0.030 A 
HETATM   16  C   UNL     1       7.242  24.187  52.922  1.00  0.00     0.032 A 
HETATM   17  C   UNL     1       8.013  23.015  52.835  1.00  0.00     0.039 A 
HETATM   18  C   UNL     1       8.222  22.224  53.958  1.00  0.00     0.068 A 
HETATM   19  C   UNL     1       7.634  22.606  55.158  1.00  0.00     0.039 A 
HETATM   20  C   UNL     1       6.868  23.776  55.239  1.00  0.00     0.032 A 
BRANCH  18  21
HETATM   21  O   UNL     1       8.951  21.071  54.015  1.00  0.00    -0.356 OA
HETATM   22  C   UNL     1       8.845  20.294  55.201  1.00  0.00     0.210 C 
ENDBRANCH  18  21
ENDBRANCH  11  15
ENDBRANCH   7   8
ENDBRANCH   6   7
ENDBRANCH   5   6
ENDBRANCH   1   5
BRANCH   2  23
HETATM   23  C   UNL     1       8.912  32.311  61.149  1.00  0.00     0.105 C 
BRANCH  23  24
HETATM   24  C   UNL     1       7.566  33.007  61.349  1.00  0.00     0.046 C 
BRANCH  24  25
HETATM   25  C   UNL     1       6.611  32.303  62.313  1.00  0.00     0.203 A 
HETATM   26  N   UNL     1       6.932  32.677  63.714  1.00  0.00    -0.257 NA
HETATM   27  C   UNL     1       5.867  33.299  64.130  1.00  0.00     0.147 A 
HETATM   28  N   UNL     1       4.811  33.402  63.269  1.00  0.00    -0.239 N 
HETATM   29  C   UNL     1       5.740  33.892  65.466  1.00  0.00     0.037 A 
HETATM   30  C   UNL     1       3.602  34.039  63.574  1.00  0.00     0.187 A 
HETATM   31  C   UNL     1       5.184  32.773  62.101  1.00  0.00     0.257 A 
HETATM   32  S   UNL     1       2.266  34.207  62.583  1.00  0.00    -0.040 SA
HETATM   33  N   UNL     1       3.514  34.585  64.836  1.00  0.00    -0.332 N 
HETATM   34  C   UNL     1       4.543  34.531  65.780  1.00  0.00     0.048 A 
HETATM   35  H   UNL     1       2.644  35.055  65.068  1.00  0.00     0.168 HD
HETATM   36  C   UNL     1       4.372  35.121  67.032  1.00  0.00     0.030 A 
HETATM   37  C   UNL     1       5.410  35.068  67.965  1.00  0.00     0.002 A 
HETATM   38  C   UNL     1       6.610  34.428  67.649  1.00  0.00     0.001 A 
HETATM   39  C   UNL     1       6.780  33.838  66.396  1.00  0.00     0.017 A 
HETATM   40  O   UNL     1       4.559  32.576  61.072  1.00  0.00    -0.270 OA
ENDBRANCH  24  25
ENDBRANCH  23  24
ENDBRANCH   2  23
TORSDOF 9
ENDMDL
MODEL 2
REMARK VINA RESULT:     -10.4      1.816      3.019
REMARK  9 active torsions:
REMARK  status: ('A' for Active; 'I' for Inactive)
REMARK    1  A    between atoms: O_2  and  C_3 
REMARK    2  A    between atoms: C_6  and  N_7 
REMARK    3  A    between atoms: N_10  and  C_12 
REMARK    4  A    between atoms: C_12  and  C_13 
REMARK    5  A    between atoms: C_13  and  C_14 
REMARK    6  A    between atoms: C_14  and  N_15 
REMARK       I    between atoms: N_15  and  C_16 
REMARK    7  A    between atoms: C_16  and  C_17 
REMARK    8  A    between atoms: C_17  and  C_18 
REMARK    9  A    between atoms: C_18  and  C_19 
ROOT
HETATM    1  N   UNL     1       8.072  30.355  59.755  1.00  0.00    -0.361 N 
HETATM    2  C   UNL     1       8.720  31.439  60.312  1.00  0.00     0.217 C 
HETATM    3  O   UNL     1       9.049  32.422  59.653  1.00  0.00    -0.274 OA
HETATM    4  H   UNL     1       8.049  29.506  60.319  1.00  0.00     0.162 HD
ENDROOT
BRANCH   1   5
HETATM    5  C   UNL     1       7.935  30.232  58.320  1.00  0.00     0.124 C 
BRANCH   5   6
HETATM    6  C   UNL     1       9.191  29.677  57.639  1.00  0.00     0.047 C 
BRANCH   6   7
HETATM    7  C   UNL     1       8.831  29.047  56.298  1.00  0.00     0.236 C 
BRANCH   7   8
HETATM    8  N   UNL     1       7.696  28.056  56.455  1.00  0.00    -0.068 N 
HETATM    9  C   UNL     1       6.932  27.818  55.137  1.00  0.00     0.254 C 
HETATM   10  C   UNL     1       5.807  26.776  55.332  1.00  0.00     0.150 C 
HETATM   11  N   UNL     1       6.323  25.527  55.925  1.00  0.00    -0.378 N 
HETATM   12  C   UNL     1       7.025  25.734  57.209  1.00  0.00     0.150 C 
HETATM   13  C   UNL     1       8.197  26.722  57.028  1.00  0.00     0.254 C 
HETATM   14  H   UNL     1       7.020  28.435  57.130  1.00  0.00     0.280 HD
BRANCH  11  15
HETATM   15  C   UNL     1       6.781  24.484  55.115  1.00  0.00     0.030 A 
HETATM   16  C   UNL     1       6.758  24.522  53.712  1.00  0.00     0.032 A 
HETATM   17  C   UNL     1       7.242  23.461  52.928  1.00  0.00     0.039 A 
HETATM   18  C   UNL     1       7.749  22.315  53.529  1.00  0.00     0.068 A 
HETATM   19  C   UNL     1       7.744  22.235  54.916  1.00  0.00     0.039 A 
HETATM   20  C   UNL     1       7.261  23.297  55.692  1.00  0.00     0.032 A 
BRANCH  18  21
HETATM   21  O   UNL     1       8.255  21.220  52.891  1.00  0.00    -0.356 OA
HETATM   22  C   UNL     1       8.756  20.167  53.706  1.00  0.00     0.210 C 
ENDBRANCH  18  21
ENDBRANCH  11  15
ENDBRANCH   7   8
ENDBRANCH   6   7
ENDBRANCH   5   6
ENDBRANCH   1   5
BRANCH   2  23
HETATM   23  C   UNL     1       8.996  31.321  61.794  1.00  0.00     0.105 C 
BRANCH  23  24
HETATM   24  C   UNL     1       7.767  31.564  62.669  1.00  0.00     0.046 C 
BRANCH  24  25
HETATM   25  C   UNL     1       7.332  33.025  62.783  1.00  0.00     0.203 A 
HETATM   26  N   UNL     1       6.235  33.308  61.823  1.00  0.00    -0.257 NA
HETATM   27  C   UNL     1       5.223  33.620  62.579  1.00  0.00     0.147 A 
HETATM   28  N   UNL     1       5.419  33.645  63.931  1.00  0.00    -0.239 N 
HETATM   29  C   UNL     1       3.888  33.942  62.061  1.00  0.00     0.037 A 
HETATM   30  C   UNL     1       4.428  33.962  64.868  1.00  0.00     0.187 A 
HETATM   31  C   UNL     1       6.737  33.308  64.150  1.00  0.00     0.257 A 
HETATM   32  S   UNL     1       4.585  34.017  66.532  1.00  0.00    -0.040 SA
HETATM   33  N   UNL     1       3.186  34.260  64.350  1.00  0.00    -0.332 N 
HETATM   34  C   UNL     1       2.893  34.256  62.983  1.00  0.00     0.048 A 
HETATM   35  H   UNL     1       2.457  34.487  65.019  1.00  0.00     0.168 HD
HETATM   36  C   UNL     1       1.605  34.562  62.547  1.00  0.00     0.030 A 
HETATM   37  C   UNL     1       1.320  34.547  61.179  1.00  0.00     0.002 A 
HETATM   38  C   UNL     1       2.318  34.231  60.255  1.00  0.00     0.001 A 
HETATM   39  C   UNL     1       3.608  33.926  60.693  1.00  0.00     0.017 A 
HETATM   40  O   UNL     1       7.377  33.241  65.187  1.00  0.00    -0.270 OA
ENDBRANCH  24  25
ENDBRANCH  23  24
ENDBRANCH   2  23
TORSDOF 9
ENDMDL
MODEL 3
REMARK VINA RESULT:     -10.1      1.811      2.417
REMARK  9 active torsions:
REMARK  status: ('A' for Active; 'I' for Inactive)
REMARK    1  A    between atoms: O_2  and  C_3 
REMARK    2  A    between atoms: C_6  and  N_7 
REMARK    3  A    between atoms: N_10  and  C_12 
REMARK    4  A    between atoms: C_12  and  C_13 
REMARK    5  A    between atoms: C_13  and  C_14 
REMARK    6  A    between atoms: C_14  and  N_15 
REMARK       I    between atoms: N_15  and  C_16 
REMARK    7  A    between atoms: C_16  and  C_17 
REMARK    8  A    between atoms: C_17  and  C_18 
REMARK    9  A    between atoms: C_18  and  C_19 
ROOT
HETATM    1  N   UNL     1       7.190  31.103  58.461  1.00  0.00    -0.361 N 
HETATM    2  C   UNL     1       6.122  30.973  57.596  1.00  0.00     0.217 C 
HETATM    3  O   UNL     1       5.794  29.895  57.108  1.00  0.00    -0.274 OA
HETATM    4  H   UNL     1       7.522  32.051  58.627  1.00  0.00     0.162 HD
ENDROOT
BRANCH   1   5
HETATM    5  C   UNL     1       8.110  30.004  58.669  1.00  0.00     0.124 C 
BRANCH   5   6
HETATM    6  C   UNL     1       9.430  30.169  57.907  1.00  0.00     0.047 C 
BRANCH   6   7
HETATM    7  C   UNL     1       9.653  28.985  56.974  1.00  0.00     0.236 C 
BRANCH   7   8
HETATM    8  N   UNL     1       8.332  28.433  56.478  1.00  0.00    -0.068 N 
HETATM    9  C   UNL     1       8.239  28.413  54.938  1.00  0.00     0.254 C 
HETATM   10  C   UNL     1       6.894  27.810  54.474  1.00  0.00     0.150 C 
HETATM   11  N   UNL     1       6.659  26.484  55.077  1.00  0.00    -0.378 N 
HETATM   12  C   UNL     1       6.705  26.494  56.554  1.00  0.00     0.150 C 
HETATM   13  C   UNL     1       8.066  27.030  57.045  1.00  0.00     0.254 C 
HETATM   14  H   UNL     1       7.574  29.039  56.816  1.00  0.00     0.280 HD
BRANCH  11  15
HETATM   15  C   UNL     1       7.093  25.319  54.438  1.00  0.00     0.030 A 
HETATM   16  C   UNL     1       7.437  25.261  53.078  1.00  0.00     0.032 A 
HETATM   17  C   UNL     1       7.886  24.075  52.472  1.00  0.00     0.039 A 
HETATM   18  C   UNL     1       7.985  22.901  53.209  1.00  0.00     0.068 A 
HETATM   19  C   UNL     1       7.609  22.922  54.546  1.00  0.00     0.039 A 
HETATM   20  C   UNL     1       7.164  24.108  55.145  1.00  0.00     0.032 A 
BRANCH  18  21
HETATM   21  O   UNL     1       8.410  21.688  52.750  1.00  0.00    -0.356 OA
HETATM   22  C   UNL     1       7.802  20.531  53.311  1.00  0.00     0.210 C 
ENDBRANCH  18  21
ENDBRANCH  11  15
ENDBRANCH   7   8
ENDBRANCH   6   7
ENDBRANCH   5   6
ENDBRANCH   1   5
BRANCH   2  23
HETATM   23  C   UNL     1       5.388  32.261  57.296  1.00  0.00     0.105 C 
BRANCH  23  24
HETATM   24  C   UNL     1       5.088  33.101  58.538  1.00  0.00     0.046 C 
BRANCH  24  25
HETATM   25  C   UNL     1       4.604  32.310  59.752  1.00  0.00     0.203 A 
HETATM   26  N   UNL     1       5.648  32.304  60.808  1.00  0.00    -0.257 NA
HETATM   27  C   UNL     1       5.096  32.933  61.805  1.00  0.00     0.147 A 
HETATM   28  N   UNL     1       3.807  33.360  61.655  1.00  0.00    -0.239 N 
HETATM   29  C   UNL     1       5.780  33.207  63.074  1.00  0.00     0.037 A 
HETATM   30  C   UNL     1       3.083  34.047  62.638  1.00  0.00     0.187 A 
HETATM   31  C   UNL     1       3.404  32.983  60.393  1.00  0.00     0.257 A 
HETATM   32  S   UNL     1       1.509  34.601  62.536  1.00  0.00    -0.040 SA
HETATM   33  N   UNL     1       3.753  34.289  63.817  1.00  0.00    -0.332 N 
HETATM   34  C   UNL     1       5.071  33.893  64.058  1.00  0.00     0.048 A 
HETATM   35  H   UNL     1       3.241  34.791  64.536  1.00  0.00     0.168 HD
HETATM   36  C   UNL     1       5.676  34.188  65.279  1.00  0.00     0.030 A 
HETATM   37  C   UNL     1       6.997  33.794  65.506  1.00  0.00     0.002 A 
HETATM   38  C   UNL     1       7.708  33.108  64.518  1.00  0.00     0.001 A 
HETATM   39  C   UNL     1       7.101  32.812  63.297  1.00  0.00     0.017 A 
HETATM   40  O   UNL     1       2.327  33.109  59.833  1.00  0.00    -0.270 OA
ENDBRANCH  24  25
ENDBRANCH  23  24
ENDBRANCH   2  23
TORSDOF 9
ENDMDL
MODEL 4
REMARK VINA RESULT:      -9.9      1.304      1.732
REMARK  9 active torsions:
REMARK  status: ('A' for Active; 'I' for Inactive)
REMARK    1  A    between atoms: O_2  and  C_3 
REMARK    2  A    between atoms: C_6  and  N_7 
REMARK    3  A    between atoms: N_10  and  C_12 
REMARK    4  A    between atoms: C_12  and  C_13 
REMARK    5  A    between atoms: C_13  and  C_14 
REMARK    6  A    between atoms: C_14  and  N_15 
REMARK       I    between atoms: N_15  and  C_16 
REMARK    7  A    between atoms: C_16  and  C_17 
REMARK    8  A    between atoms: C_17  and  C_18 
REMARK    9  A    between atoms: C_18  and  C_19 
ROOT
HETATM    1  N   UNL     1       7.834  30.622  58.920  1.00  0.00    -0.361 N 
HETATM    2  C   UNL     1       8.288  31.841  59.380  1.00  0.00     0.217 C 
HETATM    3  O   UNL     1       9.400  32.282  59.100  1.00  0.00    -0.274 OA
HETATM    4  H   UNL     1       7.010  30.244  59.385  1.00  0.00     0.162 HD
ENDROOT
BRANCH   1   5
HETATM    5  C   UNL     1       8.733  29.703  58.254  1.00  0.00     0.124 C 
BRANCH   5   6
HETATM    6  C   UNL     1       8.242  29.279  56.865  1.00  0.00     0.047 C 
BRANCH   6   7
HETATM    7  C   UNL     1       6.805  29.740  56.648  1.00  0.00     0.236 C 
BRANCH   7   8
HETATM    8  N   UNL     1       5.934  28.590  56.186  1.00  0.00    -0.068 N 
HETATM    9  C   UNL     1       6.156  28.239  54.701  1.00  0.00     0.254 C 
HETATM   10  C   UNL     1       5.275  27.039  54.281  1.00  0.00     0.150 C 
HETATM   11  N   UNL     1       5.472  25.884  55.176  1.00  0.00    -0.378 N 
HETATM   12  C   UNL     1       5.226  26.195  56.599  1.00  0.00     0.150 C 
HETATM   13  C   UNL     1       6.141  27.347  57.064  1.00  0.00     0.254 C 
HETATM   14  H   UNL     1       4.948  28.864  56.286  1.00  0.00     0.280 HD
BRANCH  11  15
HETATM   15  C   UNL     1       6.447  24.919  54.899  1.00  0.00     0.030 A 
HETATM   16  C   UNL     1       7.403  24.491  55.833  1.00  0.00     0.032 A 
HETATM   17  C   UNL     1       8.358  23.507  55.525  1.00  0.00     0.039 A 
HETATM   18  C   UNL     1       8.396  22.933  54.260  1.00  0.00     0.068 A 
HETATM   19  C   UNL     1       7.487  23.371  53.305  1.00  0.00     0.039 A 
HETATM   20  C   UNL     1       6.537  24.351  53.617  1.00  0.00     0.032 A 
BRANCH  18  21
HETATM   21  O   UNL     1       9.261  21.968  53.832  1.00  0.00    -0.356 OA
HETATM   22  C   UNL     1       8.695  20.779  53.296  1.00  0.00     0.210 C 
ENDBRANCH  18  21
ENDBRANCH  11  15
ENDBRANCH   7   8
ENDBRANCH   6   7
ENDBRANCH   5   6
ENDBRANCH   1   5
BRANCH   2  23
HETATM   23  C   UNL     1       7.311  32.593  60.257  1.00  0.00     0.105 C 
BRANCH  23  24
HETATM   24  C   UNL     1       5.869  32.544  59.752  1.00  0.00     0.046 C 
BRANCH  24  25
HETATM   25  C   UNL     1       4.846  32.033  60.766  1.00  0.00     0.203 A 
HETATM   26  N   UNL     1       5.312  32.310  62.148  1.00  0.00    -0.257 NA
HETATM   27  C   UNL     1       4.421  33.128  62.627  1.00  0.00     0.147 A 
HETATM   28  N   UNL     1       3.362  33.459  61.828  1.00  0.00    -0.239 N 
HETATM   29  C   UNL     1       4.491  33.712  63.972  1.00  0.00     0.037 A 
HETATM   30  C   UNL     1       2.328  34.323  62.206  1.00  0.00     0.187 A 
HETATM   31  C   UNL     1       3.535  32.786  60.638  1.00  0.00     0.257 A 
HETATM   32  S   UNL     1       1.002  34.776  61.293  1.00  0.00    -0.040 SA
HETATM   33  N   UNL     1       2.422  34.854  63.474  1.00  0.00    -0.332 N 
HETATM   34  C   UNL     1       3.468  34.576  64.357  1.00  0.00     0.048 A 
HETATM   35  H   UNL     1       1.680  35.487  63.757  1.00  0.00     0.168 HD
HETATM   36  C   UNL     1       3.489  35.167  65.620  1.00  0.00     0.030 A 
HETATM   37  C   UNL     1       4.544  34.888  66.492  1.00  0.00     0.002 A 
HETATM   38  C   UNL     1       5.570  34.023  66.104  1.00  0.00     0.001 A 
HETATM   39  C   UNL     1       5.547  33.431  64.840  1.00  0.00     0.017 A 
HETATM   40  O   UNL     1       2.827  32.739  59.645  1.00  0.00    -0.270 OA
ENDBRANCH  24  25
ENDBRANCH  23  24
ENDBRANCH   2  23
TORSDOF 9
ENDMDL
MODEL 5
REMARK VINA RESULT:      -9.9      2.135      3.101
REMARK  9 active torsions:
REMARK  status: ('A' for Active; 'I' for Inactive)
REMARK    1  A    between atoms: O_2  and  C_3 
REMARK    2  A    between atoms: C_6  and  N_7 
REMARK    3  A    between atoms: N_10  and  C_12 
REMARK    4  A    between atoms: C_12  and  C_13 
REMARK    5  A    between atoms: C_13  and  C_14 
REMARK    6  A    between atoms: C_14  and  N_15 
REMARK       I    between atoms: N_15  and  C_16 
REMARK    7  A    between atoms: C_16  and  C_17 
REMARK    8  A    between atoms: C_17  and  C_18 
REMARK    9  A    between atoms: C_18  and  C_19 
ROOT
HETATM    1  N   UNL     1       6.625  29.152  57.106  1.00  0.00    -0.361 N 
HETATM    2  C   UNL     1       7.826  28.815  57.697  1.00  0.00     0.217 C 
HETATM    3  O   UNL     1       8.034  27.707  58.186  1.00  0.00    -0.274 OA
HETATM    4  H   UNL     1       6.467  30.145  56.941  1.00  0.00     0.162 HD
ENDROOT
BRANCH   1   5
HETATM    5  C   UNL     1       5.474  28.281  57.222  1.00  0.00     0.124 C 
BRANCH   5   6
HETATM    6  C   UNL     1       4.754  28.052  55.889  1.00  0.00     0.047 C 
BRANCH   6   7
HETATM    7  C   UNL     1       5.428  28.849  54.779  1.00  0.00     0.236 C 
BRANCH   7   8
HETATM    8  N   UNL     1       5.935  27.931  53.686  1.00  0.00    -0.068 N 
HETATM    9  C   UNL     1       7.415  27.542  53.879  1.00  0.00     0.254 C 
HETATM   10  C   UNL     1       7.881  26.577  52.765  1.00  0.00     0.150 C 
HETATM   11  N   UNL     1       6.993  25.404  52.659  1.00  0.00    -0.378 N 
HETATM   12  C   UNL     1       5.576  25.758  52.435  1.00  0.00     0.150 C 
HETATM   13  C   UNL     1       5.065  26.669  53.571  1.00  0.00     0.254 C 
HETATM   14  H   UNL     1       5.868  28.422  52.786  1.00  0.00     0.280 HD
BRANCH  11  15
HETATM   15  C   UNL     1       7.246  24.243  53.398  1.00  0.00     0.030 A 
HETATM   16  C   UNL     1       7.111  24.166  54.793  1.00  0.00     0.032 A 
HETATM   17  C   UNL     1       7.357  22.978  55.502  1.00  0.00     0.039 A 
HETATM   18  C   UNL     1       7.768  21.831  54.834  1.00  0.00     0.068 A 
HETATM   19  C   UNL     1       7.950  21.893  53.458  1.00  0.00     0.039 A 
HETATM   20  C   UNL     1       7.701  23.080  52.756  1.00  0.00     0.032 A 
BRANCH  18  21
HETATM   21  O   UNL     1       8.034  20.615  55.395  1.00  0.00    -0.356 OA
HETATM   22  C   UNL     1       8.607  20.613  56.696  1.00  0.00     0.210 C 
ENDBRANCH  18  21
ENDBRANCH  11  15
ENDBRANCH   7   8
ENDBRANCH   6   7
ENDBRANCH   5   6
ENDBRANCH   1   5
BRANCH   2  23
HETATM   23  C   UNL     1       8.864  29.914  57.698  1.00  0.00     0.105 C 
BRANCH  23  24
HETATM   24  C   UNL     1       8.461  31.140  58.518  1.00  0.00     0.046 C 
BRANCH  24  25
HETATM   25  C   UNL     1       7.232  30.948  59.406  1.00  0.00     0.203 A 
HETATM   26  N   UNL     1       7.562  31.279  60.815  1.00  0.00    -0.257 NA
HETATM   27  C   UNL     1       6.802  32.300  61.089  1.00  0.00     0.147 A 
HETATM   28  N   UNL     1       5.947  32.738  60.117  1.00  0.00    -0.239 N 
HETATM   29  C   UNL     1       6.816  33.002  62.377  1.00  0.00     0.037 A 
HETATM   30  C   UNL     1       5.072  33.821  60.266  1.00  0.00     0.187 A 
HETATM   31  C   UNL     1       6.131  31.920  59.024  1.00  0.00     0.257 A 
HETATM   32  S   UNL     1       3.997  34.418  59.132  1.00  0.00    -0.040 SA
HETATM   33  N   UNL     1       5.108  34.459  61.486  1.00  0.00    -0.332 N 
HETATM   34  C   UNL     1       5.951  34.083  62.535  1.00  0.00     0.048 A 
HETATM   35  H   UNL     1       4.481  35.249  61.604  1.00  0.00     0.168 HD
HETATM   36  C   UNL     1       5.929  34.792  63.735  1.00  0.00     0.030 A 
HETATM   37  C   UNL     1       6.782  34.412  64.775  1.00  0.00     0.002 A 
HETATM   38  C   UNL     1       7.650  33.330  64.615  1.00  0.00     0.001 A 
HETATM   39  C   UNL     1       7.670  32.620  63.413  1.00  0.00     0.017 A 
HETATM   40  O   UNL     1       5.564  31.901  57.943  1.00  0.00    -0.270 OA
ENDBRANCH  24  25
ENDBRANCH  23  24
ENDBRANCH   2  23
TORSDOF 9
ENDMDL
MODEL 6
REMARK VINA RESULT:      -9.5      8.063     11.453
REMARK  9 active torsions:
REMARK  status: ('A' for Active; 'I' for Inactive)
REMARK    1  A    between atoms: O_2  and  C_3 
REMARK    2  A    between atoms: C_6  and  N_7 
REMARK    3  A    between atoms: N_10  and  C_12 
REMARK    4  A    between atoms: C_12  and  C_13 
REMARK    5  A    between atoms: C_13  and  C_14 
REMARK    6  A    between atoms: C_14  and  N_15 
REMARK       I    between atoms: N_15  and  C_16 
REMARK    7  A    between atoms: C_16  and  C_17 
REMARK    8  A    between atoms: C_17  and  C_18 
REMARK    9  A    between atoms: C_18  and  C_19 
ROOT
HETATM    1  N   UNL     1       5.093  29.266  53.413  1.00  0.00    -0.361 N 
HETATM    2  C   UNL     1       4.458  28.294  52.666  1.00  0.00     0.217 C 
HETATM    3  O   UNL     1       3.260  28.050  52.782  1.00  0.00    -0.274 OA
HETATM    4  H   UNL     1       6.111  29.239  53.415  1.00  0.00     0.162 HD
ENDROOT
BRANCH   1   5
HETATM    5  C   UNL     1       4.418  29.902  54.524  1.00  0.00     0.124 C 
BRANCH   5   6
HETATM    6  C   UNL     1       3.462  31.020  54.091  1.00  0.00     0.047 C 
BRANCH   6   7
HETATM    7  C   UNL     1       4.236  32.148  53.421  1.00  0.00     0.236 C 
BRANCH   7   8
HETATM    8  N   UNL     1       3.856  32.269  51.959  1.00  0.00    -0.068 N 
HETATM    9  C   UNL     1       5.058  32.059  51.016  1.00  0.00     0.254 C 
HETATM   10  C   UNL     1       4.620  32.154  49.536  1.00  0.00     0.150 C 
HETATM   11  N   UNL     1       3.499  31.241  49.244  1.00  0.00    -0.378 N 
HETATM   12  C   UNL     1       2.325  31.455  50.114  1.00  0.00     0.150 C 
HETATM   13  C   UNL     1       2.720  31.300  51.597  1.00  0.00     0.254 C 
HETATM   14  H   UNL     1       3.502  33.219  51.789  1.00  0.00     0.280 HD
BRANCH  11  15
HETATM   15  C   UNL     1       3.735  29.932  48.810  1.00  0.00     0.030 A 
HETATM   16  C   UNL     1       4.863  29.551  48.066  1.00  0.00     0.032 A 
HETATM   17  C   UNL     1       5.076  28.223  47.661  1.00  0.00     0.039 A 
HETATM   18  C   UNL     1       4.150  27.234  47.972  1.00  0.00     0.068 A 
HETATM   19  C   UNL     1       3.004  27.594  48.671  1.00  0.00     0.039 A 
HETATM   20  C   UNL     1       2.798  28.919  49.074  1.00  0.00     0.032 A 
BRANCH  18  21
HETATM   21  O   UNL     1       4.236  25.911  47.648  1.00  0.00    -0.356 OA
HETATM   22  C   UNL     1       3.017  25.226  47.388  1.00  0.00     0.210 C 
ENDBRANCH  18  21
ENDBRANCH  11  15
ENDBRANCH   7   8
ENDBRANCH   6   7
ENDBRANCH   5   6
ENDBRANCH   1   5
BRANCH   2  23
HETATM   23  C   UNL     1       5.351  27.554  51.695  1.00  0.00     0.105 C 
BRANCH  23  24
HETATM   24  C   UNL     1       6.383  26.654  52.375  1.00  0.00     0.046 C 
BRANCH  24  25
HETATM   25  C   UNL     1       5.808  25.655  53.379  1.00  0.00     0.203 A 
HETATM   26  N   UNL     1       6.259  24.279  53.047  1.00  0.00    -0.257 NA
HETATM   27  C   UNL     1       6.971  23.921  54.075  1.00  0.00     0.147 A 
HETATM   28  N   UNL     1       7.078  24.801  55.116  1.00  0.00    -0.239 N 
HETATM   29  C   UNL     1       7.663  22.631  54.177  1.00  0.00     0.037 A 
HETATM   30  C   UNL     1       7.807  24.555  56.286  1.00  0.00     0.187 A 
HETATM   31  C   UNL     1       6.347  25.917  54.772  1.00  0.00     0.257 A 
HETATM   32  S   UNL     1       7.987  25.573  57.601  1.00  0.00    -0.040 SA
HETATM   33  N   UNL     1       8.445  23.336  56.351  1.00  0.00    -0.332 N 
HETATM   34  C   UNL     1       8.395  22.377  55.335  1.00  0.00     0.048 A 
HETATM   35  H   UNL     1       8.982  23.148  57.192  1.00  0.00     0.168 HD
HETATM   36  C   UNL     1       9.080  21.172  55.480  1.00  0.00     0.030 A 
HETATM   37  C   UNL     1       9.029  20.224  54.456  1.00  0.00     0.002 A 
HETATM   38  C   UNL     1       8.297  20.480  53.294  1.00  0.00     0.001 A 
HETATM   39  C   UNL     1       7.611  21.687  53.150  1.00  0.00     0.017 A 
HETATM   40  O   UNL     1       6.118  26.938  55.400  1.00  0.00    -0.270 OA
ENDBRANCH  24  25
ENDBRANCH  23  24
ENDBRANCH   2  23
TORSDOF 9
ENDMDL
MODEL 7
REMARK VINA RESULT:      -9.5      2.292      3.285
REMARK  9 active torsions:
REMARK  status: ('A' for Active; 'I' for Inactive)
REMARK    1  A    between atoms: O_2  and  C_3 
REMARK    2  A    between atoms: C_6  and  N_7 
REMARK    3  A    between atoms: N_10  and  C_12 
REMARK    4  A    between atoms: C_12  and  C_13 
REMARK    5  A    between atoms: C_13  and  C_14 
REMARK    6  A    between atoms: C_14  and  N_15 
REMARK       I    between atoms: N_15  and  C_16 
REMARK    7  A    between atoms: C_16  and  C_17 
REMARK    8  A    between atoms: C_17  and  C_18 
REMARK    9  A    between atoms: C_18  and  C_19 
ROOT
HETATM    1  N   UNL     1       4.930  30.031  57.943  1.00  0.00    -0.361 N 
HETATM    2  C   UNL     1       4.567  31.194  57.293  1.00  0.00     0.217 C 
HETATM    3  O   UNL     1       4.921  31.447  56.144  1.00  0.00    -0.274 OA
HETATM    4  H   UNL     1       4.787  30.016  58.952  1.00  0.00     0.162 HD
ENDROOT
BRANCH   1   5
HETATM    5  C   UNL     1       5.925  29.147  57.375  1.00  0.00     0.124 C 
BRANCH   5   6
HETATM    6  C   UNL     1       5.394  28.316  56.201  1.00  0.00     0.047 C 
BRANCH   6   7
HETATM    7  C   UNL     1       6.270  28.518  54.971  1.00  0.00     0.236 C 
BRANCH   7   8
HETATM    8  N   UNL     1       6.041  27.414  53.959  1.00  0.00    -0.068 N 
HETATM    9  C   UNL     1       7.347  26.955  53.278  1.00  0.00     0.254 C 
HETATM   10  C   UNL     1       7.075  25.805  52.281  1.00  0.00     0.150 C 
HETATM   11  N   UNL     1       6.346  24.695  52.923  1.00  0.00    -0.378 N 
HETATM   12  C   UNL     1       5.072  25.111  53.547  1.00  0.00     0.150 C 
HETATM   13  C   UNL     1       5.324  26.214  54.596  1.00  0.00     0.254 C 
HETATM   14  H   UNL     1       5.425  27.770  53.217  1.00  0.00     0.280 HD
BRANCH  11  15
HETATM   15  C   UNL     1       7.035  23.642  53.533  1.00  0.00     0.030 A 
HETATM   16  C   UNL     1       7.181  23.512  54.923  1.00  0.00     0.032 A 
HETATM   17  C   UNL     1       7.865  22.430  55.504  1.00  0.00     0.039 A 
HETATM   18  C   UNL     1       8.446  21.453  54.704  1.00  0.00     0.068 A 
HETATM   19  C   UNL     1       8.352  21.582  53.324  1.00  0.00     0.039 A 
HETATM   20  C   UNL     1       7.666  22.661  52.751  1.00  0.00     0.032 A 
BRANCH  18  21
HETATM   21  O   UNL     1       9.130  20.353  55.134  1.00  0.00    -0.356 OA
HETATM   22  C   UNL     1       9.204  20.142  56.539  1.00  0.00     0.210 C 
ENDBRANCH  18  21
ENDBRANCH  11  15
ENDBRANCH   7   8
ENDBRANCH   6   7
ENDBRANCH   5   6
ENDBRANCH   1   5
BRANCH   2  23
HETATM   23  C   UNL     1       3.702  32.132  58.105  1.00  0.00     0.105 C 
BRANCH  23  24
HETATM   24  C   UNL     1       4.050  32.155  59.593  1.00  0.00     0.046 C 
BRANCH  24  25
HETATM   25  C   UNL     1       5.027  33.253  60.011  1.00  0.00     0.203 A 
HETATM   26  N   UNL     1       4.678  33.762  61.362  1.00  0.00    -0.257 NA
HETATM   27  C   UNL     1       5.710  33.457  62.093  1.00  0.00     0.147 A 
HETATM   28  N   UNL     1       6.767  32.844  61.482  1.00  0.00    -0.239 N 
HETATM   29  C   UNL     1       5.799  33.734  63.532  1.00  0.00     0.037 A 
HETATM   30  C   UNL     1       7.944  32.459  62.137  1.00  0.00     0.187 A 
HETATM   31  C   UNL     1       6.433  32.701  60.153  1.00  0.00     0.257 A 
HETATM   32  S   UNL     1       9.279  31.709  61.466  1.00  0.00    -0.040 SA
HETATM   33  N   UNL     1       7.996  32.733  63.487  1.00  0.00    -0.332 N 
HETATM   34  C   UNL     1       6.963  33.352  64.195  1.00  0.00     0.048 A 
HETATM   35  H   UNL     1       8.842  32.453  63.974  1.00  0.00     0.168 HD
HETATM   36  C   UNL     1       7.097  33.583  65.563  1.00  0.00     0.030 A 
HETATM   37  C   UNL     1       6.055  34.196  66.263  1.00  0.00     0.002 A 
HETATM   38  C   UNL     1       4.887  34.576  65.598  1.00  0.00     0.001 A 
HETATM   39  C   UNL     1       4.755  34.346  64.228  1.00  0.00     0.017 A 
HETATM   40  O   UNL     1       7.075  32.251  59.218  1.00  0.00    -0.270 OA
ENDBRANCH  24  25
ENDBRANCH  23  24
ENDBRANCH   2  23
TORSDOF 9
ENDMDL
MODEL 8
REMARK VINA RESULT:      -9.5      4.912     11.701
REMARK  9 active torsions:
REMARK  status: ('A' for Active; 'I' for Inactive)
REMARK    1  A    between atoms: O_2  and  C_3 
REMARK    2  A    between atoms: C_6  and  N_7 
REMARK    3  A    between atoms: N_10  and  C_12 
REMARK    4  A    between atoms: C_12  and  C_13 
REMARK    5  A    between atoms: C_13  and  C_14 
REMARK    6  A    between atoms: C_14  and  N_15 
REMARK       I    between atoms: N_15  and  C_16 
REMARK    7  A    between atoms: C_16  and  C_17 
REMARK    8  A    between atoms: C_17  and  C_18 
REMARK    9  A    between atoms: C_18  and  C_19 
ROOT
HETATM    1  N   UNL     1       3.682  28.004  51.474  1.00  0.00    -0.361 N 
HETATM    2  C   UNL     1       4.611  27.636  50.521  1.00  0.00     0.217 C 
HETATM    3  O   UNL     1       4.809  28.294  49.503  1.00  0.00    -0.274 OA
HETATM    4  H   UNL     1       3.428  27.290  52.155  1.00  0.00     0.162 HD
ENDROOT
BRANCH   1   5
HETATM    5  C   UNL     1       2.742  29.074  51.214  1.00  0.00     0.124 C 
BRANCH   5   6
HETATM    6  C   UNL     1       3.153  30.406  51.852  1.00  0.00     0.047 C 
BRANCH   6   7
HETATM    7  C   UNL     1       4.304  30.194  52.827  1.00  0.00     0.236 C 
BRANCH   7   8
HETATM    8  N   UNL     1       3.903  30.594  54.232  1.00  0.00    -0.068 N 
HETATM    9  C   UNL     1       3.964  29.416  55.224  1.00  0.00     0.254 C 
HETATM   10  C   UNL     1       3.583  29.875  56.650  1.00  0.00     0.150 C 
HETATM   11  N   UNL     1       4.395  31.027  57.083  1.00  0.00    -0.378 N 
HETATM   12  C   UNL     1       4.317  32.180  56.162  1.00  0.00     0.150 C 
HETATM   13  C   UNL     1       4.757  31.765  54.743  1.00  0.00     0.254 C 
HETATM   14  H   UNL     1       2.929  30.922  54.214  1.00  0.00     0.280 HD
BRANCH  11  15
HETATM   15  C   UNL     1       5.605  30.839  57.758  1.00  0.00     0.030 A 
HETATM   16  C   UNL     1       6.414  29.702  57.600  1.00  0.00     0.032 A 
HETATM   17  C   UNL     1       7.634  29.553  58.283  1.00  0.00     0.039 A 
HETATM   18  C   UNL     1       8.072  30.535  59.164  1.00  0.00     0.068 A 
HETATM   19  C   UNL     1       7.269  31.649  59.370  1.00  0.00     0.039 A 
HETATM   20  C   UNL     1       6.055  31.793  58.686  1.00  0.00     0.032 A 
BRANCH  18  21
HETATM   21  O   UNL     1       9.233  30.520  59.883  1.00  0.00    -0.356 OA
HETATM   22  C   UNL     1       9.122  30.629  61.297  1.00  0.00     0.210 C 
ENDBRANCH  18  21
ENDBRANCH  11  15
ENDBRANCH   7   8
ENDBRANCH   6   7
ENDBRANCH   5   6
ENDBRANCH   1   5
BRANCH   2  23
HETATM   23  C   UNL     1       5.365  26.362  50.829  1.00  0.00     0.105 C 
BRANCH  23  24
HETATM   24  C   UNL     1       6.138  26.408  52.147  1.00  0.00     0.046 C 
BRANCH  24  25
HETATM   25  C   UNL     1       5.644  25.439  53.221  1.00  0.00     0.203 A 
HETATM   26  N   UNL     1       6.145  24.069  52.943  1.00  0.00    -0.257 NA
HETATM   27  C   UNL     1       6.908  23.796  53.961  1.00  0.00     0.147 A 
HETATM   28  N   UNL     1       7.011  24.733  54.951  1.00  0.00    -0.239 N 
HETATM   29  C   UNL     1       7.661  22.545  54.102  1.00  0.00     0.037 A 
HETATM   30  C   UNL     1       7.790  24.581  56.104  1.00  0.00     0.187 A 
HETATM   31  C   UNL     1       6.219  25.797  54.578  1.00  0.00     0.257 A 
HETATM   32  S   UNL     1       7.969  25.672  57.358  1.00  0.00    -0.040 SA
HETATM   33  N   UNL     1       8.485  23.395  56.207  1.00  0.00    -0.332 N 
HETATM   34  C   UNL     1       8.442  22.383  55.244  1.00  0.00     0.048 A 
HETATM   35  H   UNL     1       9.058  23.275  57.037  1.00  0.00     0.168 HD
HETATM   36  C   UNL     1       9.186  21.218  55.424  1.00  0.00     0.030 A 
HETATM   37  C   UNL     1       9.142  20.216  54.452  1.00  0.00     0.002 A 
HETATM   38  C   UNL     1       8.360  20.380  53.306  1.00  0.00     0.001 A 
HETATM   39  C   UNL     1       7.615  21.547  53.127  1.00  0.00     0.017 A 
HETATM   40  O   UNL     1       5.965  26.839  55.162  1.00  0.00    -0.270 OA
ENDBRANCH  24  25
ENDBRANCH  23  24
ENDBRANCH   2  23
TORSDOF 9
ENDMDL
MODEL 9
REMARK VINA RESULT:      -9.4      2.172      2.838
REMARK  9 active torsions:
REMARK  status: ('A' for Active; 'I' for Inactive)
REMARK    1  A    between atoms: O_2  and  C_3 
REMARK    2  A    between atoms: C_6  and  N_7 
REMARK    3  A    between atoms: N_10  and  C_12 
REMARK    4  A    between atoms: C_12  and  C_13 
REMARK    5  A    between atoms: C_13  and  C_14 
REMARK    6  A    between atoms: C_14  and  N_15 
REMARK       I    between atoms: N_15  and  C_16 
REMARK    7  A    between atoms: C_16  and  C_17 
REMARK    8  A    between atoms: C_17  and  C_18 
REMARK    9  A    between atoms: C_18  and  C_19 
ROOT
HETATM    1  N   UNL     1       7.994  30.380  60.300  1.00  0.00    -0.361 N 
HETATM    2  C   UNL     1       8.597  31.240  61.196  1.00  0.00     0.217 C 
HETATM    3  O   UNL     1       9.544  31.959  60.887  1.00  0.00    -0.274 OA
HETATM    4  H   UNL     1       7.382  29.671  60.700  1.00  0.00     0.162 HD
ENDROOT
BRANCH   1   5
HETATM    5  C   UNL     1       8.588  30.128  59.005  1.00  0.00     0.124 C 
BRANCH   5   6
HETATM    6  C   UNL     1       7.600  30.299  57.845  1.00  0.00     0.047 C 
BRANCH   6   7
HETATM    7  C   UNL     1       6.725  29.059  57.708  1.00  0.00     0.236 C 
BRANCH   7   8
HETATM    8  N   UNL     1       6.581  28.658  56.254  1.00  0.00    -0.068 N 
HETATM    9  C   UNL     1       7.940  28.400  55.573  1.00  0.00     0.254 C 
HETATM   10  C   UNL     1       7.747  27.959  54.104  1.00  0.00     0.150 C 
HETATM   11  N   UNL     1       6.830  26.809  54.001  1.00  0.00    -0.378 N 
HETATM   12  C   UNL     1       5.508  27.054  54.614  1.00  0.00     0.150 C 
HETATM   13  C   UNL     1       5.668  27.432  56.101  1.00  0.00     0.254 C 
HETATM   14  H   UNL     1       6.131  29.429  55.743  1.00  0.00     0.280 HD
BRANCH  11  15
HETATM   15  C   UNL     1       7.315  25.498  54.047  1.00  0.00     0.030 A 
HETATM   16  C   UNL     1       7.591  24.814  55.241  1.00  0.00     0.032 A 
HETATM   17  C   UNL     1       8.062  23.490  55.252  1.00  0.00     0.039 A 
HETATM   18  C   UNL     1       8.291  22.814  54.059  1.00  0.00     0.068 A 
HETATM   19  C   UNL     1       8.066  23.484  52.862  1.00  0.00     0.039 A 
HETATM   20  C   UNL     1       7.595  24.804  52.859  1.00  0.00     0.032 A 
BRANCH  18  21
HETATM   21  O   UNL     1       8.739  21.532  53.925  1.00  0.00    -0.356 OA
HETATM   22  C   UNL     1       8.085  20.713  52.964  1.00  0.00     0.210 C 
ENDBRANCH  18  21
ENDBRANCH  11  15
ENDBRANCH   7   8
ENDBRANCH   6   7
ENDBRANCH   5   6
ENDBRANCH   1   5
BRANCH   2  23
HETATM   23  C   UNL     1       8.002  31.228  62.587  1.00  0.00     0.105 C 
BRANCH  23  24
HETATM   24  C   UNL     1       7.984  32.601  63.259  1.00  0.00     0.046 C 
BRANCH  24  25
HETATM   25  C   UNL     1       6.607  33.075  63.724  1.00  0.00     0.203 A 
HETATM   26  N   UNL     1       6.588  34.555  63.839  1.00  0.00    -0.257 NA
HETATM   27  C   UNL     1       5.707  34.931  62.958  1.00  0.00     0.147 A 
HETATM   28  N   UNL     1       5.057  33.960  62.249  1.00  0.00    -0.239 N 
HETATM   29  C   UNL     1       5.377  36.334  62.684  1.00  0.00     0.037 A 
HETATM   30  C   UNL     1       4.086  34.211  61.272  1.00  0.00     0.187 A 
HETATM   31  C   UNL     1       5.545  32.749  62.691  1.00  0.00     0.257 A 
HETATM   32  S   UNL     1       3.247  33.085  60.364  1.00  0.00    -0.040 SA
HETATM   33  N   UNL     1       3.798  35.538  61.039  1.00  0.00    -0.332 N 
HETATM   34  C   UNL     1       4.414  36.597  61.712  1.00  0.00     0.048 A 
HETATM   35  H   UNL     1       3.100  35.733  60.328  1.00  0.00     0.168 HD
HETATM   36  C   UNL     1       4.069  37.912  61.405  1.00  0.00     0.030 A 
HETATM   37  C   UNL     1       4.696  38.963  62.078  1.00  0.00     0.002 A 
HETATM   38  C   UNL     1       5.662  38.700  63.052  1.00  0.00     0.001 A 
HETATM   39  C   UNL     1       6.006  37.382  63.359  1.00  0.00     0.017 A 
HETATM   40  O   UNL     1       5.236  31.610  62.381  1.00  0.00    -0.270 OA
ENDBRANCH  24  25
ENDBRANCH  23  24
ENDBRANCH   2  23
TORSDOF 9
ENDMDL
MODEL 10
REMARK VINA RESULT:      -9.3      2.552      4.247
REMARK  9 active torsions:
REMARK  status: ('A' for Active; 'I' for Inactive)
REMARK    1  A    between atoms: O_2  and  C_3 
REMARK    2  A    between atoms: C_6  and  N_7 
REMARK    3  A    between atoms: N_10  and  C_12 
REMARK    4  A    between atoms: C_12  and  C_13 
REMARK    5  A    between atoms: C_13  and  C_14 
REMARK    6  A    between atoms: C_14  and  N_15 
REMARK       I    between atoms: N_15  and  C_16 
REMARK    7  A    between atoms: C_16  and  C_17 
REMARK    8  A    between atoms: C_17  and  C_18 
REMARK    9  A    between atoms: C_18  and  C_19 
ROOT
HETATM    1  N   UNL     1       3.780  32.449  56.603  1.00  0.00    -0.361 N 
HETATM    2  C   UNL     1       4.185  33.730  56.921  1.00  0.00     0.217 C 
HETATM    3  O   UNL     1       5.274  34.183  56.577  1.00  0.00    -0.274 OA
HETATM    4  H   UNL     1       2.978  32.090  57.119  1.00  0.00     0.162 HD
ENDROOT
BRANCH   1   5
HETATM    5  C   UNL     1       4.709  31.501  56.027  1.00  0.00     0.124 C 
BRANCH   5   6
HETATM    6  C   UNL     1       4.996  30.304  56.941  1.00  0.00     0.047 C 
BRANCH   6   7
HETATM    7  C   UNL     1       6.039  29.392  56.306  1.00  0.00     0.236 C 
BRANCH   7   8
HETATM    8  N   UNL     1       6.075  28.048  57.004  1.00  0.00    -0.068 N 
HETATM    9  C   UNL     1       5.074  27.041  56.402  1.00  0.00     0.254 C 
HETATM   10  C   UNL     1       5.169  25.674  57.116  1.00  0.00     0.150 C 
HETATM   11  N   UNL     1       6.553  25.164  57.128  1.00  0.00    -0.378 N 
HETATM   12  C   UNL     1       7.519  26.101  57.737  1.00  0.00     0.150 C 
HETATM   13  C   UNL     1       7.493  27.455  56.999  1.00  0.00     0.254 C 
HETATM   14  H   UNL     1       5.812  28.181  57.988  1.00  0.00     0.280 HD
BRANCH  11  15
HETATM   15  C   UNL     1       7.027  24.352  56.092  1.00  0.00     0.030 A 
HETATM   16  C   UNL     1       8.092  23.449  56.239  1.00  0.00     0.032 A 
HETATM   17  C   UNL     1       8.531  22.635  55.180  1.00  0.00     0.039 A 
HETATM   18  C   UNL     1       7.926  22.716  53.932  1.00  0.00     0.068 A 
HETATM   19  C   UNL     1       6.898  23.632  53.750  1.00  0.00     0.039 A 
HETATM   20  C   UNL     1       6.463  24.440  54.809  1.00  0.00     0.032 A 
BRANCH  18  21
HETATM   21  O   UNL     1       8.247  21.983  52.825  1.00  0.00    -0.356 OA
HETATM   22  C   UNL     1       8.267  20.568  52.966  1.00  0.00     0.210 C 
ENDBRANCH  18  21
ENDBRANCH  11  15
ENDBRANCH   7   8
ENDBRANCH   6   7
ENDBRANCH   5   6
ENDBRANCH   1   5
BRANCH   2  23
HETATM   23  C   UNL     1       3.187  34.530  57.727  1.00  0.00     0.105 C 
BRANCH  23  24
HETATM   24  C   UNL     1       3.565  34.680  59.200  1.00  0.00     0.046 C 
BRANCH  24  25
HETATM   25  C   UNL     1       3.592  33.376  59.997  1.00  0.00     0.203 A 
HETATM   26  N   UNL     1       4.854  32.641  59.733  1.00  0.00    -0.257 NA
HETATM   27  C   UNL     1       5.451  32.608  60.889  1.00  0.00     0.147 A 
HETATM   28  N   UNL     1       4.807  33.167  61.957  1.00  0.00    -0.239 N 
HETATM   29  C   UNL     1       6.771  32.006  61.107  1.00  0.00     0.037 A 
HETATM   30  C   UNL     1       5.322  33.206  63.258  1.00  0.00     0.187 A 
HETATM   31  C   UNL     1       3.606  33.654  61.489  1.00  0.00     0.257 A 
HETATM   32  S   UNL     1       4.601  33.866  64.615  1.00  0.00    -0.040 SA
HETATM   33  N   UNL     1       6.563  32.632  63.430  1.00  0.00    -0.332 N 
HETATM   34  C   UNL     1       7.296  32.041  62.397  1.00  0.00     0.048 A 
HETATM   35  H   UNL     1       6.950  32.659  64.369  1.00  0.00     0.168 HD
HETATM   36  C   UNL     1       8.550  31.493  62.659  1.00  0.00     0.030 A 
HETATM   37  C   UNL     1       9.278  30.912  61.617  1.00  0.00     0.002 A 
HETATM   38  C   UNL     1       8.752  30.878  60.323  1.00  0.00     0.001 A 
HETATM   39  C   UNL     1       7.495  31.427  60.063  1.00  0.00     0.017 A 
HETATM   40  O   UNL     1       2.685  34.195  62.080  1.00  0.00    -0.270 OA
ENDBRANCH  24  25
ENDBRANCH  23  24
ENDBRANCH   2  23
TORSDOF 9
ENDMDL
