MODEL 1
REMARK VINA RESULT:     -11.8      0.000      0.000
REMARK  8 active torsions:
REMARK  status: ('A' for Active; 'I' for Inactive)
REMARK    1  A    between atoms: C_3  and  N_4 
REMARK       I    between atoms: N_4  and  C_5 
REMARK    2  A    between atoms: C_5  and  C_6 
REMARK    3  A    between atoms: C_6  and  N_7 
REMARK    4  A    between atoms: N_11  and  C_12 
REMARK    5  A    between atoms: C_14  and  N_15 
REMARK    6  A    between atoms: N_15  and  C_16 
REMARK    7  A    between atoms: C_23  and  N_24 
REMARK    8  A    between atoms: N_24  and  C_25 
ROOT
HETATM    1  C   UNL     1       5.954  26.841  54.989  1.00  0.00     0.756 A 
HETATM    2  N   UNL     1       6.887  25.923  54.784  1.00  0.00     0.131 NA
HETATM    3  C   UNL     1       6.909  25.348  53.587  1.00  0.00     0.758 A 
HETATM    4  N   UNL     1       6.118  25.717  52.594  1.00  0.00     0.131 NA
HETATM    5  C   UNL     1       5.247  26.679  52.850  1.00  0.00     0.758 A 
HETATM    6  N   UNL     1       5.132  27.264  54.038  1.00  0.00     0.131 NA
ENDROOT
BRANCH   1   7
HETATM    7  N   UNL     1       5.846  27.389  56.273  1.00  0.00    -0.210 N 
HETATM    8  C   UNL     1       5.511  28.821  56.336  1.00  0.00     0.169 C 
HETATM    9  C   UNL     1       6.778  29.692  56.173  1.00  0.00     0.256 C 
HETATM   10  N   UNL     1       7.825  29.264  57.222  1.00  0.00    -0.060 N 
HETATM   11  H   UNL     1       7.357  29.347  58.132  1.00  0.00     0.280 HD
HETATM   12  C   UNL     1       8.168  27.778  57.055  1.00  0.00     0.256 C 
HETATM   13  C   UNL     1       6.877  26.941  57.221  1.00  0.00     0.169 C 
BRANCH  10  14
HETATM   14  C   UNL     1       9.050  30.170  57.290  1.00  0.00     0.337 C 
BRANCH  14  15
HETATM   15  C   UNL     1       9.161  31.108  58.502  1.00  0.00     0.248 C 
HETATM   16  N   UNL     1       8.223  30.817  59.478  1.00  0.00    -0.325 N 
HETATM   17  H   UNL     1       7.507  30.143  59.226  1.00  0.00     0.169 HD
HETATM   18  O   UNL     1       9.979  32.016  58.502  1.00  0.00    -0.271 OA
BRANCH  16  19
HETATM   19  C   UNL     1       7.947  31.487  60.701  1.00  0.00     0.042 A 
HETATM   20  C   UNL     1       8.566  31.295  61.950  1.00  0.00    -0.035 A 
HETATM   21  C   UNL     1       9.576  30.231  62.278  1.00  0.00     0.050 C 
HETATM   22  C   UNL     1       8.205  32.139  63.027  1.00  0.00     0.011 A 
HETATM   23  C   UNL     1       7.211  33.106  62.900  1.00  0.00     0.024 A 
HETATM   24  C   UNL     1       6.556  33.243  61.689  1.00  0.00     0.036 A 
HETATM   25  C   UNL     1       6.915  32.443  60.604  1.00  0.00     0.053 A 
HETATM   26 CL   UNL     1       5.306  34.410  61.512  1.00  0.00    -0.084 Cl
ENDBRANCH  16  19
ENDBRANCH  14  15
ENDBRANCH  10  14
ENDBRANCH   1   7
BRANCH   3  27
HETATM   27  N   UNL     1       7.869  24.355  53.408  1.00  0.00    -0.187 N 
HETATM   28  H   UNL     1       8.765  24.765  53.192  1.00  0.00     0.184 HD
BRANCH  27  29
HETATM   29  C   UNL     1       7.932  23.028  53.864  1.00  0.00     0.049 A 
HETATM   30  C   UNL     1       7.985  21.995  52.914  1.00  0.00     0.030 A 
HETATM   31  C   UNL     1       8.017  20.653  53.303  1.00  0.00     0.002 A 
HETATM   32  C   UNL     1       7.988  20.320  54.654  1.00  0.00     0.000 A 
HETATM   33  C   UNL     1       7.914  21.329  55.610  1.00  0.00     0.002 A 
HETATM   34  C   UNL     1       7.873  22.670  55.215  1.00  0.00     0.030 A 
ENDBRANCH  27  29
ENDBRANCH   3  27
BRANCH   5  35
HETATM   35  N   UNL     1       4.481  27.062  51.752  1.00  0.00    -0.187 N 
HETATM   36  H   UNL     1       3.555  27.315  52.073  1.00  0.00     0.184 HD
BRANCH  35  37
HETATM   37  C   UNL     1       4.736  27.267  50.394  1.00  0.00     0.049 A 
HETATM   38  C   UNL     1       4.402  26.353  49.390  1.00  0.00     0.030 A 
HETATM   39  C   UNL     1       4.657  26.633  48.043  1.00  0.00     0.002 A 
HETATM   40  C   UNL     1       5.242  27.842  47.677  1.00  0.00     0.000 A 
HETATM   41  C   UNL     1       5.573  28.770  48.658  1.00  0.00     0.002 A 
HETATM   42  C   UNL     1       5.317  28.484  50.001  1.00  0.00     0.030 A 
ENDBRANCH  35  37
ENDBRANCH   5  35
TORSDOF 8
ENDMDL
MODEL 2
REMARK VINA RESULT:     -11.8      0.324      5.131
REMARK  8 active torsions:
REMARK  status: ('A' for Active; 'I' for Inactive)
REMARK    1  A    between atoms: C_3  and  N_4 
REMARK       I    between atoms: N_4  and  C_5 
REMARK    2  A    between atoms: C_5  and  C_6 
REMARK    3  A    between atoms: C_6  and  N_7 
REMARK    4  A    between atoms: N_11  and  C_12 
REMARK    5  A    between atoms: C_14  and  N_15 
REMARK    6  A    between atoms: N_15  and  C_16 
REMARK    7  A    between atoms: C_23  and  N_24 
REMARK    8  A    between atoms: N_24  and  C_25 
ROOT
HETATM    1  C   UNL     1       6.113  26.601  55.047  1.00  0.00     0.756 A 
HETATM    2  N   UNL     1       5.288  27.028  54.101  1.00  0.00     0.131 NA
HETATM    3  C   UNL     1       5.478  26.547  52.878  1.00  0.00     0.758 A 
HETATM    4  N   UNL     1       6.374  25.615  52.600  1.00  0.00     0.131 NA
HETATM    5  C   UNL     1       7.127  25.192  53.602  1.00  0.00     0.758 A 
HETATM    6  N   UNL     1       7.028  25.665  54.841  1.00  0.00     0.131 NA
ENDROOT
BRANCH   1   7
HETATM    7  N   UNL     1       5.997  27.169  56.321  1.00  0.00    -0.210 N 
HETATM    8  C   UNL     1       5.602  28.587  56.361  1.00  0.00     0.169 C 
HETATM    9  C   UNL     1       6.829  29.507  56.165  1.00  0.00     0.256 C 
HETATM   10  N   UNL     1       7.904  29.144  57.211  1.00  0.00    -0.060 N 
HETATM   11  H   UNL     1       7.444  29.226  58.124  1.00  0.00     0.280 HD
HETATM   12  C   UNL     1       8.309  27.671  57.069  1.00  0.00     0.256 C 
HETATM   13  C   UNL     1       7.056  26.784  57.265  1.00  0.00     0.169 C 
BRANCH  10  14
HETATM   14  C   UNL     1       9.091  30.103  57.247  1.00  0.00     0.337 C 
BRANCH  14  15
HETATM   15  C   UNL     1       9.189  31.050  58.453  1.00  0.00     0.248 C 
HETATM   16  N   UNL     1       8.253  30.755  59.430  1.00  0.00    -0.325 N 
HETATM   17  H   UNL     1       7.546  30.071  59.181  1.00  0.00     0.169 HD
HETATM   18  O   UNL     1       9.997  31.968  58.447  1.00  0.00    -0.271 OA
BRANCH  16  19
HETATM   19  C   UNL     1       7.968  31.431  60.647  1.00  0.00     0.042 A 
HETATM   20  C   UNL     1       8.589  31.256  61.898  1.00  0.00    -0.035 A 
HETATM   21  C   UNL     1       9.612  30.207  62.234  1.00  0.00     0.050 C 
HETATM   22  C   UNL     1       8.215  32.103  62.969  1.00  0.00     0.011 A 
HETATM   23  C   UNL     1       7.209  33.057  62.833  1.00  0.00     0.024 A 
HETATM   24  C   UNL     1       6.554  33.175  61.621  1.00  0.00     0.036 A 
HETATM   25  C   UNL     1       6.923  32.372  60.543  1.00  0.00     0.053 A 
HETATM   26 CL   UNL     1       5.288  34.325  61.434  1.00  0.00    -0.084 Cl
ENDBRANCH  16  19
ENDBRANCH  14  15
ENDBRANCH  10  14
ENDBRANCH   1   7
BRANCH   3  27
HETATM   27  N   UNL     1       4.629  27.042  51.892  1.00  0.00    -0.187 N 
HETATM   28  H   UNL     1       3.910  27.618  52.302  1.00  0.00     0.184 HD
BRANCH  27  29
HETATM   29  C   UNL     1       4.819  27.244  50.515  1.00  0.00     0.049 A 
HETATM   30  C   UNL     1       5.337  28.477  50.084  1.00  0.00     0.030 A 
HETATM   31  C   UNL     1       5.518  28.752  48.726  1.00  0.00     0.002 A 
HETATM   32  C   UNL     1       5.177  27.798  47.771  1.00  0.00     0.000 A 
HETATM   33  C   UNL     1       4.644  26.579  48.178  1.00  0.00     0.002 A 
HETATM   34  C   UNL     1       4.454  26.312  49.537  1.00  0.00     0.030 A 
ENDBRANCH  27  29
ENDBRANCH   3  27
BRANCH   5  35
HETATM   35  N   UNL     1       8.011  24.172  53.261  1.00  0.00    -0.187 N 
HETATM   36  H   UNL     1       8.643  24.514  52.547  1.00  0.00     0.184 HD
BRANCH  35  37
HETATM   37  C   UNL     1       8.269  22.887  53.742  1.00  0.00     0.049 A 
HETATM   38  C   UNL     1       8.820  22.618  54.998  1.00  0.00     0.030 A 
HETATM   39  C   UNL     1       9.024  21.304  55.433  1.00  0.00     0.002 A 
HETATM   40  C   UNL     1       8.668  20.233  54.618  1.00  0.00     0.000 A 
HETATM   41  C   UNL     1       8.108  20.476  53.368  1.00  0.00     0.002 A 
HETATM   42  C   UNL     1       7.908  21.791  52.940  1.00  0.00     0.030 A 
ENDBRANCH  35  37
ENDBRANCH   5  35
TORSDOF 8
ENDMDL
MODEL 3
REMARK VINA RESULT:     -11.1      1.192      5.251
REMARK  8 active torsions:
REMARK  status: ('A' for Active; 'I' for Inactive)
REMARK    1  A    between atoms: C_3  and  N_4 
REMARK       I    between atoms: N_4  and  C_5 
REMARK    2  A    between atoms: C_5  and  C_6 
REMARK    3  A    between atoms: C_6  and  N_7 
REMARK    4  A    between atoms: N_11  and  C_12 
REMARK    5  A    between atoms: C_14  and  N_15 
REMARK    6  A    between atoms: N_15  and  C_16 
REMARK    7  A    between atoms: C_23  and  N_24 
REMARK    8  A    between atoms: N_24  and  C_25 
ROOT
HETATM    1  C   UNL     1       5.244  27.369  54.890  1.00  0.00     0.756 A 
HETATM    2  N   UNL     1       4.533  27.612  53.798  1.00  0.00     0.131 NA
HETATM    3  C   UNL     1       4.949  27.041  52.674  1.00  0.00     0.758 A 
HETATM    4  N   UNL     1       5.959  26.190  52.626  1.00  0.00     0.131 NA
HETATM    5  C   UNL     1       6.590  25.948  53.763  1.00  0.00     0.758 A 
HETATM    6  N   UNL     1       6.263  26.522  54.918  1.00  0.00     0.131 NA
ENDROOT
BRANCH   1   7
HETATM    7  N   UNL     1       4.885  28.038  56.066  1.00  0.00    -0.210 N 
HETATM    8  C   UNL     1       4.914  29.508  56.005  1.00  0.00     0.169 C 
HETATM    9  C   UNL     1       6.344  30.043  56.248  1.00  0.00     0.256 C 
HETATM   10  N   UNL     1       6.874  29.478  57.583  1.00  0.00    -0.060 N 
HETATM   11  H   UNL     1       6.185  29.748  58.293  1.00  0.00     0.280 HD
HETATM   12  C   UNL     1       6.871  27.944  57.549  1.00  0.00     0.256 C 
HETATM   13  C   UNL     1       5.427  27.448  57.300  1.00  0.00     0.169 C 
BRANCH  10  14
HETATM   14  C   UNL     1       8.203  30.077  58.032  1.00  0.00     0.337 C 
BRANCH  14  15
HETATM   15  C   UNL     1       8.142  31.323  58.929  1.00  0.00     0.248 C 
HETATM   16  N   UNL     1       7.007  31.343  59.723  1.00  0.00    -0.325 N 
HETATM   17  H   UNL     1       6.306  30.638  59.521  1.00  0.00     0.169 HD
HETATM   18  O   UNL     1       9.012  32.178  58.851  1.00  0.00    -0.271 OA
BRANCH  16  19
HETATM   19  C   UNL     1       6.546  32.343  60.621  1.00  0.00     0.042 A 
HETATM   20  C   UNL     1       5.513  33.277  60.418  1.00  0.00    -0.035 A 
HETATM   21  C   UNL     1       4.761  33.493  59.135  1.00  0.00     0.050 C 
HETATM   22  C   UNL     1       5.146  34.131  61.486  1.00  0.00     0.011 A 
HETATM   23  C   UNL     1       5.821  34.114  62.704  1.00  0.00     0.024 A 
HETATM   24  C   UNL     1       6.882  33.242  62.873  1.00  0.00     0.036 A 
HETATM   25  C   UNL     1       7.244  32.371  61.846  1.00  0.00     0.053 A 
HETATM   26 CL   UNL     1       7.751  33.219  64.357  1.00  0.00    -0.084 Cl
ENDBRANCH  16  19
ENDBRANCH  14  15
ENDBRANCH  10  14
ENDBRANCH   1   7
BRANCH   3  27
HETATM   27  N   UNL     1       4.214  27.346  51.530  1.00  0.00    -0.187 N 
HETATM   28  H   UNL     1       3.417  27.918  51.765  1.00  0.00     0.184 HD
BRANCH  27  29
HETATM   29  C   UNL     1       4.575  27.384  50.174  1.00  0.00     0.049 A 
HETATM   30  C   UNL     1       5.165  28.554  49.670  1.00  0.00     0.030 A 
HETATM   31  C   UNL     1       5.517  28.667  48.322  1.00  0.00     0.002 A 
HETATM   32  C   UNL     1       5.278  27.609  47.450  1.00  0.00     0.000 A 
HETATM   33  C   UNL     1       4.676  26.448  47.926  1.00  0.00     0.002 A 
HETATM   34  C   UNL     1       4.316  26.344  49.273  1.00  0.00     0.030 A 
ENDBRANCH  27  29
ENDBRANCH   3  27
BRANCH   5  35
HETATM   35  N   UNL     1       7.607  25.003  53.662  1.00  0.00    -0.187 N 
HETATM   36  H   UNL     1       8.481  25.483  53.484  1.00  0.00     0.184 HD
BRANCH  35  37
HETATM   37  C   UNL     1       7.694  23.622  53.850  1.00  0.00     0.049 A 
HETATM   38  C   UNL     1       7.922  22.705  52.820  1.00  0.00     0.030 A 
HETATM   39  C   UNL     1       8.030  21.335  53.082  1.00  0.00     0.002 A 
HETATM   40  C   UNL     1       7.919  20.859  54.386  1.00  0.00     0.000 A 
HETATM   41  C   UNL     1       7.702  21.754  55.427  1.00  0.00     0.002 A 
HETATM   42  C   UNL     1       7.595  23.121  55.159  1.00  0.00     0.030 A 
ENDBRANCH  35  37
ENDBRANCH   5  35
TORSDOF 8
ENDMDL
MODEL 4
REMARK VINA RESULT:     -10.8      3.813      9.536
REMARK  8 active torsions:
REMARK  status: ('A' for Active; 'I' for Inactive)
REMARK    1  A    between atoms: C_3  and  N_4 
REMARK       I    between atoms: N_4  and  C_5 
REMARK    2  A    between atoms: C_5  and  C_6 
REMARK    3  A    between atoms: C_6  and  N_7 
REMARK    4  A    between atoms: N_11  and  C_12 
REMARK    5  A    between atoms: C_14  and  N_15 
REMARK    6  A    between atoms: N_15  and  C_16 
REMARK    7  A    between atoms: C_23  and  N_24 
REMARK    8  A    between atoms: N_24  and  C_25 
ROOT
HETATM    1  C   UNL     1       5.883  26.441  55.177  1.00  0.00     0.756 A 
HETATM    2  N   UNL     1       6.583  25.317  55.112  1.00  0.00     0.131 NA
HETATM    3  C   UNL     1       7.670  25.243  55.871  1.00  0.00     0.758 A 
HETATM    4  N   UNL     1       8.015  26.185  56.732  1.00  0.00     0.131 NA
HETATM    5  C   UNL     1       7.241  27.257  56.787  1.00  0.00     0.758 A 
HETATM    6  N   UNL     1       6.166  27.422  56.021  1.00  0.00     0.131 NA
ENDROOT
BRANCH   1   7
HETATM    7  N   UNL     1       4.791  26.582  54.313  1.00  0.00    -0.210 N 
HETATM    8  C   UNL     1       4.856  25.809  53.061  1.00  0.00     0.169 C 
HETATM    9  C   UNL     1       5.680  26.560  51.990  1.00  0.00     0.256 C 
HETATM   10  N   UNL     1       5.095  27.976  51.804  1.00  0.00    -0.060 N 
HETATM   11  H   UNL     1       4.105  27.839  51.570  1.00  0.00     0.280 HD
HETATM   12  C   UNL     1       5.116  28.740  53.134  1.00  0.00     0.256 C 
HETATM   13  C   UNL     1       4.286  27.956  54.178  1.00  0.00     0.169 C 
BRANCH  10  14
HETATM   14  C   UNL     1       5.701  28.755  50.641  1.00  0.00     0.337 C 
BRANCH  14  15
HETATM   15  C   UNL     1       4.939  28.729  49.307  1.00  0.00     0.248 C 
HETATM   16  N   UNL     1       3.652  28.237  49.447  1.00  0.00    -0.325 N 
HETATM   17  H   UNL     1       3.423  27.831  50.348  1.00  0.00     0.169 HD
HETATM   18  O   UNL     1       5.498  29.072  48.275  1.00  0.00    -0.271 OA
BRANCH  16  19
HETATM   19  C   UNL     1       2.665  27.983  48.457  1.00  0.00     0.042 A 
HETATM   20  C   UNL     1       2.460  26.800  47.724  1.00  0.00    -0.035 A 
HETATM   21  C   UNL     1       3.345  25.585  47.749  1.00  0.00     0.050 C 
HETATM   22  C   UNL     1       1.352  26.724  46.847  1.00  0.00     0.011 A 
HETATM   23  C   UNL     1       0.501  27.808  46.644  1.00  0.00     0.024 A 
HETATM   24  C   UNL     1       0.749  28.992  47.315  1.00  0.00     0.036 A 
HETATM   25  C   UNL     1       1.817  29.082  48.206  1.00  0.00     0.053 A 
HETATM   26 CL   UNL     1      -0.270  30.355  47.063  1.00  0.00    -0.084 Cl
ENDBRANCH  16  19
ENDBRANCH  14  15
ENDBRANCH  10  14
ENDBRANCH   1   7
BRANCH   3  27
HETATM   27  N   UNL     1       8.414  24.072  55.754  1.00  0.00    -0.187 N 
HETATM   28  H   UNL     1       8.980  23.929  56.578  1.00  0.00     0.184 HD
BRANCH  27  29
HETATM   29  C   UNL     1       8.220  22.918  54.977  1.00  0.00     0.049 A 
HETATM   30  C   UNL     1       8.018  21.694  55.635  1.00  0.00     0.030 A 
HETATM   31  C   UNL     1       7.851  20.505  54.920  1.00  0.00     0.002 A 
HETATM   32  C   UNL     1       7.890  20.519  53.529  1.00  0.00     0.000 A 
HETATM   33  C   UNL     1       8.110  21.719  52.859  1.00  0.00     0.002 A 
HETATM   34  C   UNL     1       8.287  22.905  53.579  1.00  0.00     0.030 A 
ENDBRANCH  27  29
ENDBRANCH   3  27
BRANCH   5  35
HETATM   35  N   UNL     1       7.622  28.187  57.750  1.00  0.00    -0.187 N 
HETATM   36  H   UNL     1       7.094  28.013  58.597  1.00  0.00     0.184 HD
BRANCH  35  37
HETATM   37  C   UNL     1       8.598  29.183  57.830  1.00  0.00     0.049 A 
HETATM   38  C   UNL     1       9.690  29.277  56.963  1.00  0.00     0.030 A 
HETATM   39  C   UNL     1      10.616  30.320  57.079  1.00  0.00     0.002 A 
HETATM   40  C   UNL     1      10.457  31.294  58.061  1.00  0.00     0.000 A 
HETATM   41  C   UNL     1       9.373  31.226  58.927  1.00  0.00     0.002 A 
HETATM   42  C   UNL     1       8.452  30.182  58.808  1.00  0.00     0.030 A 
ENDBRANCH  35  37
ENDBRANCH   5  35
TORSDOF 8
ENDMDL
MODEL 5
REMARK VINA RESULT:     -10.6      1.538      5.161
REMARK  8 active torsions:
REMARK  status: ('A' for Active; 'I' for Inactive)
REMARK    1  A    between atoms: C_3  and  N_4 
REMARK       I    between atoms: N_4  and  C_5 
REMARK    2  A    between atoms: C_5  and  C_6 
REMARK    3  A    between atoms: C_6  and  N_7 
REMARK    4  A    between atoms: N_11  and  C_12 
REMARK    5  A    between atoms: C_14  and  N_15 
REMARK    6  A    between atoms: N_15  and  C_16 
REMARK    7  A    between atoms: C_23  and  N_24 
REMARK    8  A    between atoms: N_24  and  C_25 
ROOT
HETATM    1  C   UNL     1       5.379  27.184  54.599  1.00  0.00     0.756 A 
HETATM    2  N   UNL     1       5.152  27.661  53.383  1.00  0.00     0.131 NA
HETATM    3  C   UNL     1       5.948  27.230  52.412  1.00  0.00     0.758 A 
HETATM    4  N   UNL     1       6.869  26.298  52.592  1.00  0.00     0.131 NA
HETATM    5  C   UNL     1       7.004  25.822  53.819  1.00  0.00     0.758 A 
HETATM    6  N   UNL     1       6.279  26.244  54.851  1.00  0.00     0.131 NA
ENDROOT
BRANCH   1   7
HETATM    7  N   UNL     1       4.620  27.698  55.655  1.00  0.00    -0.210 N 
HETATM    8  C   UNL     1       4.041  29.035  55.442  1.00  0.00     0.169 C 
HETATM    9  C   UNL     1       5.071  30.141  55.767  1.00  0.00     0.256 C 
HETATM   10  N   UNL     1       5.604  29.929  57.200  1.00  0.00    -0.060 N 
HETATM   11  H   UNL     1       4.776  29.918  57.806  1.00  0.00     0.280 HD
HETATM   12  C   UNL     1       6.245  28.541  57.329  1.00  0.00     0.256 C 
HETATM   13  C   UNL     1       5.187  27.464  56.992  1.00  0.00     0.169 C 
BRANCH  10  14
HETATM   14  C   UNL     1       6.489  31.061  57.712  1.00  0.00     0.337 C 
BRANCH  14  15
HETATM   15  C   UNL     1       6.116  31.685  59.066  1.00  0.00     0.248 C 
HETATM   16  N   UNL     1       7.213  31.826  59.899  1.00  0.00    -0.325 N 
HETATM   17  H   UNL     1       8.072  31.385  59.588  1.00  0.00     0.169 HD
HETATM   18  O   UNL     1       4.949  31.949  59.318  1.00  0.00    -0.271 OA
BRANCH  16  19
HETATM   19  C   UNL     1       7.279  32.283  61.243  1.00  0.00     0.042 A 
HETATM   20  C   UNL     1       8.069  31.775  62.291  1.00  0.00    -0.035 A 
HETATM   21  C   UNL     1       8.925  30.541  62.229  1.00  0.00     0.050 C 
HETATM   22  C   UNL     1       8.056  32.441  63.540  1.00  0.00     0.011 A 
HETATM   23  C   UNL     1       7.234  33.540  63.777  1.00  0.00     0.024 A 
HETATM   24  C   UNL     1       6.407  33.991  62.765  1.00  0.00     0.036 A 
HETATM   25  C   UNL     1       6.423  33.371  61.516  1.00  0.00     0.053 A 
HETATM   26 CL   UNL     1       5.362  35.330  63.038  1.00  0.00    -0.084 Cl
ENDBRANCH  16  19
ENDBRANCH  14  15
ENDBRANCH  10  14
ENDBRANCH   1   7
BRANCH   3  27
HETATM   27  N   UNL     1       5.722  27.779  51.152  1.00  0.00    -0.187 N 
HETATM   28  H   UNL     1       6.549  28.252  50.820  1.00  0.00     0.184 HD
BRANCH  27  29
HETATM   29  C   UNL     1       4.796  27.454  50.147  1.00  0.00     0.049 A 
HETATM   30  C   UNL     1       4.628  26.103  49.802  1.00  0.00     0.030 A 
HETATM   31  C   UNL     1       3.747  25.717  48.789  1.00  0.00     0.002 A 
HETATM   32  C   UNL     1       3.021  26.680  48.095  1.00  0.00     0.000 A 
HETATM   33  C   UNL     1       3.188  28.026  48.408  1.00  0.00     0.002 A 
HETATM   34  C   UNL     1       4.079  28.408  49.416  1.00  0.00     0.030 A 
ENDBRANCH  27  29
ENDBRANCH   3  27
BRANCH   5  35
HETATM   35  N   UNL     1       7.948  24.805  53.936  1.00  0.00    -0.187 N 
HETATM   36  H   UNL     1       8.858  25.221  54.090  1.00  0.00     0.184 HD
BRANCH  35  37
HETATM   37  C   UNL     1       7.894  23.411  53.992  1.00  0.00     0.049 A 
HETATM   38  C   UNL     1       7.934  22.581  52.868  1.00  0.00     0.030 A 
HETATM   39  C   UNL     1       7.909  21.188  52.997  1.00  0.00     0.002 A 
HETATM   40  C   UNL     1       7.852  20.601  54.258  1.00  0.00     0.000 A 
HETATM   41  C   UNL     1       7.821  21.406  55.390  1.00  0.00     0.002 A 
HETATM   42  C   UNL     1       7.846  22.797  55.256  1.00  0.00     0.030 A 
ENDBRANCH  35  37
ENDBRANCH   5  35
TORSDOF 8
ENDMDL
MODEL 6
REMARK VINA RESULT:     -10.4      2.841      5.727
REMARK  8 active torsions:
REMARK  status: ('A' for Active; 'I' for Inactive)
REMARK    1  A    between atoms: C_3  and  N_4 
REMARK       I    between atoms: N_4  and  C_5 
REMARK    2  A    between atoms: C_5  and  C_6 
REMARK    3  A    between atoms: C_6  and  N_7 
REMARK    4  A    between atoms: N_11  and  C_12 
REMARK    5  A    between atoms: C_14  and  N_15 
REMARK    6  A    between atoms: N_15  and  C_16 
REMARK    7  A    between atoms: C_23  and  N_24 
REMARK    8  A    between atoms: N_24  and  C_25 
ROOT
HETATM    1  C   UNL     1       4.726  28.938  55.637  1.00  0.00     0.756 A 
HETATM    2  N   UNL     1       5.679  29.122  56.540  1.00  0.00     0.131 NA
HETATM    3  C   UNL     1       6.563  28.143  56.685  1.00  0.00     0.758 A 
HETATM    4  N   UNL     1       6.581  27.066  55.919  1.00  0.00     0.131 NA
HETATM    5  C   UNL     1       5.635  26.972  54.999  1.00  0.00     0.758 A 
HETATM    6  N   UNL     1       4.686  27.888  54.829  1.00  0.00     0.131 NA
ENDROOT
BRANCH   1   7
HETATM    7  N   UNL     1       3.725  29.911  55.535  1.00  0.00    -0.210 N 
HETATM    8  C   UNL     1       4.125  31.185  54.914  1.00  0.00     0.169 C 
HETATM    9  C   UNL     1       4.796  32.117  55.949  1.00  0.00     0.256 C 
HETATM   10  N   UNL     1       3.850  32.298  57.154  1.00  0.00    -0.060 N 
HETATM   11  H   UNL     1       2.967  32.648  56.766  1.00  0.00     0.280 HD
HETATM   12  C   UNL     1       3.527  30.937  57.786  1.00  0.00     0.256 C 
HETATM   13  C   UNL     1       2.863  30.033  56.720  1.00  0.00     0.169 C 
BRANCH  10  14
HETATM   14  C   UNL     1       4.314  33.344  58.163  1.00  0.00     0.337 C 
BRANCH  14  15
HETATM   15  C   UNL     1       5.536  32.992  59.026  1.00  0.00     0.248 C 
HETATM   16  N   UNL     1       5.305  33.205  60.375  1.00  0.00    -0.325 N 
HETATM   17  H   UNL     1       4.444  33.688  60.611  1.00  0.00     0.169 HD
HETATM   18  O   UNL     1       6.574  32.621  58.498  1.00  0.00    -0.271 OA
BRANCH  16  19
HETATM   19  C   UNL     1       6.190  33.076  61.479  1.00  0.00     0.042 A 
HETATM   20  C   UNL     1       6.270  33.893  62.622  1.00  0.00    -0.035 A 
HETATM   21  C   UNL     1       5.506  35.168  62.848  1.00  0.00     0.050 C 
HETATM   22  C   UNL     1       7.166  33.532  63.657  1.00  0.00     0.011 A 
HETATM   23  C   UNL     1       8.011  32.431  63.544  1.00  0.00     0.024 A 
HETATM   24  C   UNL     1       7.978  31.673  62.388  1.00  0.00     0.036 A 
HETATM   25  C   UNL     1       7.083  31.991  61.366  1.00  0.00     0.053 A 
HETATM   26 CL   UNL     1       9.031  30.324  62.210  1.00  0.00    -0.084 Cl
ENDBRANCH  16  19
ENDBRANCH  14  15
ENDBRANCH  10  14
ENDBRANCH   1   7
BRANCH   3  27
HETATM   27  N   UNL     1       7.528  28.337  57.670  1.00  0.00    -0.187 N 
HETATM   28  H   UNL     1       7.527  27.566  58.322  1.00  0.00     0.184 HD
BRANCH  27  29
HETATM   29  C   UNL     1       8.702  29.108  57.685  1.00  0.00     0.049 A 
HETATM   30  C   UNL     1       8.770  30.208  58.556  1.00  0.00     0.030 A 
HETATM   31  C   UNL     1       9.897  31.033  58.595  1.00  0.00     0.002 A 
HETATM   32  C   UNL     1      10.976  30.777  57.755  1.00  0.00     0.000 A 
HETATM   33  C   UNL     1      10.919  29.704  56.870  1.00  0.00     0.002 A 
HETATM   34  C   UNL     1       9.786  28.887  56.828  1.00  0.00     0.030 A 
ENDBRANCH  27  29
ENDBRANCH   3  27
BRANCH   5  35
HETATM   35  N   UNL     1       5.739  25.846  54.186  1.00  0.00    -0.187 N 
HETATM   36  H   UNL     1       5.119  25.958  53.393  1.00  0.00     0.184 HD
BRANCH  35  37
HETATM   37  C   UNL     1       6.549  24.708  54.175  1.00  0.00     0.049 A 
HETATM   38  C   UNL     1       6.802  23.917  55.299  1.00  0.00     0.030 A 
HETATM   39  C   UNL     1       7.600  22.770  55.211  1.00  0.00     0.002 A 
HETATM   40  C   UNL     1       8.150  22.390  53.990  1.00  0.00     0.000 A 
HETATM   41  C   UNL     1       7.904  23.157  52.857  1.00  0.00     0.002 A 
HETATM   42  C   UNL     1       7.107  24.301  52.951  1.00  0.00     0.030 A 
ENDBRANCH  35  37
ENDBRANCH   5  35
TORSDOF 8
ENDMDL
MODEL 7
REMARK VINA RESULT:     -10.1      4.084      6.062
REMARK  8 active torsions:
REMARK  status: ('A' for Active; 'I' for Inactive)
REMARK    1  A    between atoms: C_3  and  N_4 
REMARK       I    between atoms: N_4  and  C_5 
REMARK    2  A    between atoms: C_5  and  C_6 
REMARK    3  A    between atoms: C_6  and  N_7 
REMARK    4  A    between atoms: N_11  and  C_12 
REMARK    5  A    between atoms: C_14  and  N_15 
REMARK    6  A    between atoms: N_15  and  C_16 
REMARK    7  A    between atoms: C_23  and  N_24 
REMARK    8  A    between atoms: N_24  and  C_25 
ROOT
HETATM    1  C   UNL     1       6.151  26.197  54.629  1.00  0.00     0.756 A 
HETATM    2  N   UNL     1       6.987  25.192  54.413  1.00  0.00     0.131 NA
HETATM    3  C   UNL     1       6.874  24.557  53.251  1.00  0.00     0.758 A 
HETATM    4  N   UNL     1       6.046  24.943  52.295  1.00  0.00     0.131 NA
HETATM    5  C   UNL     1       5.279  25.990  52.555  1.00  0.00     0.758 A 
HETATM    6  N   UNL     1       5.301  26.642  53.714  1.00  0.00     0.131 NA
ENDROOT
BRANCH   1   7
HETATM    7  N   UNL     1       6.183  26.816  55.884  1.00  0.00    -0.210 N 
HETATM    8  C   UNL     1       4.877  27.175  56.459  1.00  0.00     0.169 C 
HETATM    9  C   UNL     1       4.384  28.532  55.907  1.00  0.00     0.256 C 
HETATM   10  N   UNL     1       5.470  29.600  56.149  1.00  0.00    -0.060 N 
HETATM   11  H   UNL     1       5.655  29.586  57.158  1.00  0.00     0.280 HD
HETATM   12  C   UNL     1       6.783  29.188  55.470  1.00  0.00     0.256 C 
HETATM   13  C   UNL     1       7.240  27.826  56.045  1.00  0.00     0.169 C 
BRANCH  10  14
HETATM   14  C   UNL     1       5.033  31.024  55.818  1.00  0.00     0.337 C 
BRANCH  14  15
HETATM   15  C   UNL     1       4.036  31.200  54.661  1.00  0.00     0.248 C 
HETATM   16  N   UNL     1       4.629  31.006  53.424  1.00  0.00    -0.325 N 
HETATM   17  H   UNL     1       5.640  30.920  53.420  1.00  0.00     0.169 HD
HETATM   18  O   UNL     1       2.881  31.525  54.891  1.00  0.00    -0.271 OA
BRANCH  16  19
HETATM   19  C   UNL     1       4.078  31.150  52.122  1.00  0.00     0.042 A 
HETATM   20  C   UNL     1       4.353  32.152  51.173  1.00  0.00    -0.035 A 
HETATM   21  C   UNL     1       5.205  33.370  51.401  1.00  0.00     0.050 C 
HETATM   22  C   UNL     1       3.763  32.057  49.890  1.00  0.00     0.011 A 
HETATM   23  C   UNL     1       2.871  31.037  49.566  1.00  0.00     0.024 A 
HETATM   24  C   UNL     1       2.551  30.095  50.526  1.00  0.00     0.036 A 
HETATM   25  C   UNL     1       3.141  30.150  51.788  1.00  0.00     0.053 A 
HETATM   26 CL   UNL     1       1.432  28.840  50.162  1.00  0.00    -0.084 Cl
ENDBRANCH  16  19
ENDBRANCH  14  15
ENDBRANCH  10  14
ENDBRANCH   1   7
BRANCH   3  27
HETATM   27  N   UNL     1       7.731  23.476  53.064  1.00  0.00    -0.187 N 
HETATM   28  H   UNL     1       8.481  23.725  52.437  1.00  0.00     0.184 HD
BRANCH  27  29
HETATM   29  C   UNL     1       7.987  22.343  53.852  1.00  0.00     0.049 A 
HETATM   30  C   UNL     1       8.483  21.188  53.225  1.00  0.00     0.030 A 
HETATM   31  C   UNL     1       8.727  20.017  53.948  1.00  0.00     0.002 A 
HETATM   32  C   UNL     1       8.470  19.979  55.316  1.00  0.00     0.000 A 
HETATM   33  C   UNL     1       7.959  21.106  55.952  1.00  0.00     0.002 A 
HETATM   34  C   UNL     1       7.707  22.272  55.222  1.00  0.00     0.030 A 
ENDBRANCH  27  29
ENDBRANCH   3  27
BRANCH   5  35
HETATM   35  N   UNL     1       4.471  26.383  51.492  1.00  0.00    -0.187 N 
HETATM   36  H   UNL     1       3.503  26.335  51.785  1.00  0.00     0.184 HD
BRANCH  35  37
HETATM   37  C   UNL     1       4.701  26.903  50.216  1.00  0.00     0.049 A 
HETATM   38  C   UNL     1       4.182  26.351  49.042  1.00  0.00     0.030 A 
HETATM   39  C   UNL     1       4.425  26.941  47.797  1.00  0.00     0.002 A 
HETATM   40  C   UNL     1       5.187  28.103  47.708  1.00  0.00     0.000 A 
HETATM   41  C   UNL     1       5.706  28.675  48.864  1.00  0.00     0.002 A 
HETATM   42  C   UNL     1       5.460  28.081  50.104  1.00  0.00     0.030 A 
ENDBRANCH  35  37
ENDBRANCH   5  35
TORSDOF 8
ENDMDL
MODEL 8
REMARK VINA RESULT:      -9.8      4.072     12.023
REMARK  8 active torsions:
REMARK  status: ('A' for Active; 'I' for Inactive)
REMARK    1  A    between atoms: C_3  and  N_4 
REMARK       I    between atoms: N_4  and  C_5 
REMARK    2  A    between atoms: C_5  and  C_6 
REMARK    3  A    between atoms: C_6  and  N_7 
REMARK    4  A    between atoms: N_11  and  C_12 
REMARK    5  A    between atoms: C_14  and  N_15 
REMARK    6  A    between atoms: N_15  and  C_16 
REMARK    7  A    between atoms: C_23  and  N_24 
REMARK    8  A    between atoms: N_24  and  C_25 
ROOT
HETATM    1  C   UNL     1       6.472  31.612  58.388  1.00  0.00     0.756 A 
HETATM    2  N   UNL     1       5.613  32.590  58.137  1.00  0.00     0.131 NA
HETATM    3  C   UNL     1       5.024  33.154  59.185  1.00  0.00     0.758 A 
HETATM    4  N   UNL     1       5.327  32.848  60.435  1.00  0.00     0.131 NA
HETATM    5  C   UNL     1       6.234  31.902  60.615  1.00  0.00     0.758 A 
HETATM    6  N   UNL     1       6.827  31.257  59.615  1.00  0.00     0.131 NA
ENDROOT
BRANCH   1   7
HETATM    7  N   UNL     1       7.029  30.935  57.297  1.00  0.00    -0.210 N 
HETATM    8  C   UNL     1       6.092  30.144  56.483  1.00  0.00     0.169 C 
HETATM    9  C   UNL     1       5.857  28.749  57.108  1.00  0.00     0.256 C 
HETATM   10  N   UNL     1       7.219  28.055  57.318  1.00  0.00    -0.060 N 
HETATM   11  H   UNL     1       7.671  28.044  56.397  1.00  0.00     0.280 HD
HETATM   12  C   UNL     1       8.118  28.907  58.224  1.00  0.00     0.256 C 
HETATM   13  C   UNL     1       8.324  30.293  57.567  1.00  0.00     0.169 C 
BRANCH  10  14
HETATM   14  C   UNL     1       7.117  26.597  57.756  1.00  0.00     0.337 C 
BRANCH  14  15
HETATM   15  C   UNL     1       6.706  25.572  56.688  1.00  0.00     0.248 C 
HETATM   16  N   UNL     1       7.801  24.985  56.075  1.00  0.00    -0.325 N 
HETATM   17  H   UNL     1       8.706  25.391  56.291  1.00  0.00     0.169 HD
HETATM   18  O   UNL     1       5.525  25.392  56.432  1.00  0.00    -0.271 OA
BRANCH  16  19
HETATM   19  C   UNL     1       7.851  24.058  55.000  1.00  0.00     0.042 A 
HETATM   20  C   UNL     1       7.797  24.331  53.620  1.00  0.00    -0.035 A 
HETATM   21  C   UNL     1       7.540  25.675  52.998  1.00  0.00     0.050 C 
HETATM   22  C   UNL     1       7.959  23.262  52.707  1.00  0.00     0.011 A 
HETATM   23  C   UNL     1       8.105  21.945  53.136  1.00  0.00     0.024 A 
HETATM   24  C   UNL     1       8.087  21.675  54.492  1.00  0.00     0.036 A 
HETATM   25  C   UNL     1       7.958  22.714  55.413  1.00  0.00     0.053 A 
HETATM   26 CL   UNL     1       8.237  20.055  55.051  1.00  0.00    -0.084 Cl
ENDBRANCH  16  19
ENDBRANCH  14  15
ENDBRANCH  10  14
ENDBRANCH   1   7
BRANCH   3  27
HETATM   27  N   UNL     1       4.093  34.148  58.896  1.00  0.00    -0.187 N 
HETATM   28  H   UNL     1       3.156  33.773  58.924  1.00  0.00     0.184 HD
BRANCH  27  29
HETATM   29  C   UNL     1       4.161  35.547  59.000  1.00  0.00     0.049 A 
HETATM   30  C   UNL     1       4.380  36.296  57.832  1.00  0.00     0.030 A 
HETATM   31  C   UNL     1       4.491  37.688  57.873  1.00  0.00     0.002 A 
HETATM   32  C   UNL     1       4.390  38.358  59.089  1.00  0.00     0.000 A 
HETATM   33  C   UNL     1       4.194  37.632  60.260  1.00  0.00     0.002 A 
HETATM   34  C   UNL     1       4.094  36.238  60.215  1.00  0.00     0.030 A 
ENDBRANCH  27  29
ENDBRANCH   3  27
BRANCH   5  35
HETATM   35  N   UNL     1       6.551  31.663  61.949  1.00  0.00    -0.187 N 
HETATM   36  H   UNL     1       6.972  30.745  62.025  1.00  0.00     0.184 HD
BRANCH  35  37
HETATM   37  C   UNL     1       6.516  32.419  63.124  1.00  0.00     0.049 A 
HETATM   38  C   UNL     1       7.642  33.002  63.712  1.00  0.00     0.030 A 
HETATM   39  C   UNL     1       7.532  33.775  64.873  1.00  0.00     0.002 A 
HETATM   40  C   UNL     1       6.288  33.986  65.460  1.00  0.00     0.000 A 
HETATM   41  C   UNL     1       5.153  33.424  64.887  1.00  0.00     0.002 A 
HETATM   42  C   UNL     1       5.269  32.652  63.728  1.00  0.00     0.030 A 
ENDBRANCH  35  37
ENDBRANCH   5  35
TORSDOF 8
ENDMDL
MODEL 9
REMARK VINA RESULT:      -9.7      4.219      9.770
REMARK  8 active torsions:
REMARK  status: ('A' for Active; 'I' for Inactive)
REMARK    1  A    between atoms: C_3  and  N_4 
REMARK       I    between atoms: N_4  and  C_5 
REMARK    2  A    between atoms: C_5  and  C_6 
REMARK    3  A    between atoms: C_6  and  N_7 
REMARK    4  A    between atoms: N_11  and  C_12 
REMARK    5  A    between atoms: C_14  and  N_15 
REMARK    6  A    between atoms: N_15  and  C_16 
REMARK    7  A    between atoms: C_23  and  N_24 
REMARK    8  A    between atoms: N_24  and  C_25 
ROOT
HETATM    1  C   UNL     1       5.671  26.283  54.122  1.00  0.00     0.756 A 
HETATM    2  N   UNL     1       6.477  25.242  53.970  1.00  0.00     0.131 NA
HETATM    3  C   UNL     1       7.525  25.172  54.783  1.00  0.00     0.758 A 
HETATM    4  N   UNL     1       7.733  26.027  55.769  1.00  0.00     0.131 NA
HETATM    5  C   UNL     1       6.858  27.011  55.901  1.00  0.00     0.758 A 
HETATM    6  N   UNL     1       5.814  27.174  55.093  1.00  0.00     0.131 NA
ENDROOT
BRANCH   1   7
HETATM    7  N   UNL     1       4.617  26.432  53.214  1.00  0.00    -0.210 N 
HETATM    8  C   UNL     1       4.729  25.659  51.965  1.00  0.00     0.169 C 
HETATM    9  C   UNL     1       5.603  26.405  50.930  1.00  0.00     0.256 C 
HETATM   10  N   UNL     1       5.036  27.825  50.720  1.00  0.00    -0.060 N 
HETATM   11  H   UNL     1       4.056  27.695  50.445  1.00  0.00     0.280 HD
HETATM   12  C   UNL     1       5.007  28.589  52.051  1.00  0.00     0.256 C 
HETATM   13  C   UNL     1       4.128  27.811  53.059  1.00  0.00     0.169 C 
BRANCH  10  14
HETATM   14  C   UNL     1       5.697  28.600  49.584  1.00  0.00     0.337 C 
BRANCH  14  15
HETATM   15  C   UNL     1       4.880  28.785  48.295  1.00  0.00     0.248 C 
HETATM   16  N   UNL     1       3.728  29.525  48.506  1.00  0.00    -0.325 N 
HETATM   17  H   UNL     1       3.493  29.724  49.473  1.00  0.00     0.169 HD
HETATM   18  O   UNL     1       5.250  28.262  47.255  1.00  0.00    -0.271 OA
BRANCH  16  19
HETATM   19  C   UNL     1       2.681  29.850  47.602  1.00  0.00     0.042 A 
HETATM   20  C   UNL     1       2.511  31.038  46.867  1.00  0.00    -0.035 A 
HETATM   21  C   UNL     1       3.352  32.278  46.992  1.00  0.00     0.050 C 
HETATM   22  C   UNL     1       1.441  31.123  45.945  1.00  0.00     0.011 A 
HETATM   23  C   UNL     1       0.519  30.090  45.793  1.00  0.00     0.024 A 
HETATM   24  C   UNL     1       0.651  28.953  46.569  1.00  0.00     0.036 A 
HETATM   25  C   UNL     1       1.714  28.833  47.465  1.00  0.00     0.053 A 
HETATM   26 CL   UNL     1      -0.489  27.673  46.424  1.00  0.00    -0.084 Cl
ENDBRANCH  16  19
ENDBRANCH  14  15
ENDBRANCH  10  14
ENDBRANCH   1   7
BRANCH   3  27
HETATM   27  N   UNL     1       8.383  24.095  54.575  1.00  0.00    -0.187 N 
HETATM   28  H   UNL     1       9.320  24.421  54.391  1.00  0.00     0.184 HD
BRANCH  27  29
HETATM   29  C   UNL     1       8.304  22.751  54.975  1.00  0.00     0.049 A 
HETATM   30  C   UNL     1       8.421  22.451  56.342  1.00  0.00     0.030 A 
HETATM   31  C   UNL     1       8.384  21.131  56.801  1.00  0.00     0.002 A 
HETATM   32  C   UNL     1       8.236  20.084  55.896  1.00  0.00     0.000 A 
HETATM   33  C   UNL     1       8.139  20.360  54.535  1.00  0.00     0.002 A 
HETATM   34  C   UNL     1       8.187  21.681  54.080  1.00  0.00     0.030 A 
ENDBRANCH  27  29
ENDBRANCH   3  27
BRANCH   5  35
HETATM   35  N   UNL     1       7.097  27.845  56.989  1.00  0.00    -0.187 N 
HETATM   36  H   UNL     1       6.422  27.635  57.715  1.00  0.00     0.184 HD
BRANCH  35  37
HETATM   37  C   UNL     1       8.080  28.781  57.319  1.00  0.00     0.049 A 
HETATM   38  C   UNL     1       8.096  29.510  58.512  1.00  0.00     0.030 A 
HETATM   39  C   UNL     1       9.129  30.411  58.794  1.00  0.00     0.002 A 
HETATM   40  C   UNL     1      10.172  30.589  57.889  1.00  0.00     0.000 A 
HETATM   41  C   UNL     1      10.181  29.867  56.701  1.00  0.00     0.002 A 
HETATM   42  C   UNL     1       9.146  28.970  56.424  1.00  0.00     0.030 A 
ENDBRANCH  35  37
ENDBRANCH   5  35
TORSDOF 8
ENDMDL
MODEL 10
REMARK VINA RESULT:      -9.6      2.893      4.013
REMARK  8 active torsions:
REMARK  status: ('A' for Active; 'I' for Inactive)
REMARK    1  A    between atoms: C_3  and  N_4 
REMARK       I    between atoms: N_4  and  C_5 
REMARK    2  A    between atoms: C_5  and  C_6 
REMARK    3  A    between atoms: C_6  and  N_7 
REMARK    4  A    between atoms: N_11  and  C_12 
REMARK    5  A    between atoms: C_14  and  N_15 
REMARK    6  A    between atoms: N_15  and  C_16 
REMARK    7  A    between atoms: C_23  and  N_24 
REMARK    8  A    between atoms: N_24  and  C_25 
ROOT
HETATM    1  C   UNL     1       4.954  30.314  55.366  1.00  0.00     0.756 A 
HETATM    2  N   UNL     1       5.191  29.068  55.751  1.00  0.00     0.131 NA
HETATM    3  C   UNL     1       4.554  28.106  55.093  1.00  0.00     0.758 A 
HETATM    4  N   UNL     1       3.791  28.335  54.038  1.00  0.00     0.131 NA
HETATM    5  C   UNL     1       3.642  29.598  53.672  1.00  0.00     0.758 A 
HETATM    6  N   UNL     1       4.206  30.617  54.314  1.00  0.00     0.131 NA
ENDROOT
BRANCH   1   7
HETATM    7  N   UNL     1       5.534  31.349  56.108  1.00  0.00    -0.210 N 
HETATM    8  C   UNL     1       6.127  30.962  57.399  1.00  0.00     0.169 C 
HETATM    9  C   UNL     1       5.048  30.899  58.505  1.00  0.00     0.256 C 
HETATM   10  N   UNL     1       4.299  32.247  58.558  1.00  0.00    -0.060 N 
HETATM   11  H   UNL     1       5.022  32.962  58.699  1.00  0.00     0.280 HD
HETATM   12  C   UNL     1       3.658  32.554  57.197  1.00  0.00     0.256 C 
HETATM   13  C   UNL     1       4.766  32.603  56.119  1.00  0.00     0.169 C 
BRANCH  10  14
HETATM   14  C   UNL     1       3.335  32.382  59.732  1.00  0.00     0.337 C 
BRANCH  14  15
HETATM   15  C   UNL     1       3.908  32.151  61.139  1.00  0.00     0.248 C 
HETATM   16  N   UNL     1       4.980  32.985  61.413  1.00  0.00    -0.325 N 
HETATM   17  H   UNL     1       5.339  33.524  60.632  1.00  0.00     0.169 HD
HETATM   18  O   UNL     1       3.445  31.274  61.853  1.00  0.00    -0.271 OA
BRANCH  16  19
HETATM   19  C   UNL     1       5.823  33.033  62.555  1.00  0.00     0.042 A 
HETATM   20  C   UNL     1       7.203  32.767  62.622  1.00  0.00    -0.035 A 
HETATM   21  C   UNL     1       8.054  32.241  61.500  1.00  0.00     0.050 C 
HETATM   22  C   UNL     1       7.878  32.967  63.851  1.00  0.00     0.011 A 
HETATM   23  C   UNL     1       7.201  33.356  65.005  1.00  0.00     0.024 A 
HETATM   24  C   UNL     1       5.832  33.548  64.949  1.00  0.00     0.036 A 
HETATM   25  C   UNL     1       5.150  33.386  63.743  1.00  0.00     0.053 A 
HETATM   26 CL   UNL     1       4.967  34.001  66.364  1.00  0.00    -0.084 Cl
ENDBRANCH  16  19
ENDBRANCH  14  15
ENDBRANCH  10  14
ENDBRANCH   1   7
BRANCH   3  27
HETATM   27  N   UNL     1       4.783  26.808  55.543  1.00  0.00    -0.187 N 
HETATM   28  H   UNL     1       3.971  26.455  56.028  1.00  0.00     0.184 HD
BRANCH  27  29
HETATM   29  C   UNL     1       5.677  25.816  55.111  1.00  0.00     0.049 A 
HETATM   30  C   UNL     1       5.458  25.215  53.861  1.00  0.00     0.030 A 
HETATM   31  C   UNL     1       6.292  24.199  53.388  1.00  0.00     0.002 A 
HETATM   32  C   UNL     1       7.361  23.759  54.164  1.00  0.00     0.000 A 
HETATM   33  C   UNL     1       7.583  24.328  55.414  1.00  0.00     0.002 A 
HETATM   34  C   UNL     1       6.739  25.338  55.888  1.00  0.00     0.030 A 
ENDBRANCH  27  29
ENDBRANCH   3  27
BRANCH   5  35
HETATM   35  N   UNL     1       2.875  29.772  52.523  1.00  0.00    -0.187 N 
HETATM   36  H   UNL     1       2.236  30.544  52.672  1.00  0.00     0.184 HD
BRANCH  35  37
HETATM   37  C   UNL     1       2.873  29.214  51.243  1.00  0.00     0.049 A 
HETATM   38  C   UNL     1       4.004  28.676  50.623  1.00  0.00     0.030 A 
HETATM   39  C   UNL     1       3.927  28.102  49.349  1.00  0.00     0.002 A 
HETATM   40  C   UNL     1       2.709  28.048  48.677  1.00  0.00     0.000 A 
HETATM   41  C   UNL     1       1.568  28.568  49.279  1.00  0.00     0.002 A 
HETATM   42  C   UNL     1       1.652  29.140  50.551  1.00  0.00     0.030 A 
ENDBRANCH  35  37
ENDBRANCH   5  35
TORSDOF 8
ENDMDL
