MODEL 1
REMARK VINA RESULT:      -8.6      0.000      0.000
REMARK  8 active torsions:
REMARK  status: ('A' for Active; 'I' for Inactive)
REMARK    1  A    between atoms: C_2  and  C_3 
REMARK    2  A    between atoms: C_3  and  O_4 
REMARK    3  A    between atoms: O_4  and  C_5 
REMARK    4  A    between atoms: C_8  and  C_9 
REMARK    5  A    between atoms: N_10  and  N_11 
REMARK       I    between atoms: N_11  and  C_12 
REMARK    6  A    between atoms: C_12  and  C_13 
REMARK    7  A    between atoms: C_17  and  C_18 
REMARK    8  A    between atoms: C_21  and  O_22 
ROOT
HETATM    1  N   UNL     1       4.062  29.300  54.600  1.00  0.00    -0.242 N 
HETATM    2  C   UNL     1       4.070  28.332  53.599  1.00  0.00     0.289 C 
HETATM    3  O   UNL     1       3.172  28.335  52.758  1.00  0.00    -0.264 OA
HETATM    4  H   UNL     1       3.267  29.931  54.588  1.00  0.00     0.192 HD
ENDROOT
BRANCH   2   5
HETATM    5  C   UNL     1       5.134  27.357  53.615  1.00  0.00     0.121 A 
HETATM    6  N   UNL     1       6.456  27.650  53.461  1.00  0.00    -0.272 N 
HETATM    7  H   UNL     1       6.843  28.582  53.344  1.00  0.00     0.189 HD
HETATM    8  N   UNL     1       7.278  26.596  53.534  1.00  0.00    -0.174 NA
HETATM    9  C   UNL     1       6.461  25.555  53.760  1.00  0.00     0.089 A 
HETATM   10  C   UNL     1       5.103  25.986  53.777  1.00  0.00     0.071 A 
BRANCH   9  11
HETATM   11  C   UNL     1       6.993  24.206  53.972  1.00  0.00    -0.005 A 
HETATM   12  C   UNL     1       7.093  23.662  55.258  1.00  0.00     0.016 A 
HETATM   13  C   UNL     1       7.640  22.388  55.445  1.00  0.00     0.037 A 
HETATM   14  C   UNL     1       8.089  21.634  54.359  1.00  0.00     0.068 A 
HETATM   15  C   UNL     1       7.989  22.168  53.074  1.00  0.00     0.037 A 
HETATM   16  C   UNL     1       7.448  23.445  52.886  1.00  0.00     0.016 A 
BRANCH  14  17
HETATM   17  O   UNL     1       8.604  20.410  54.684  1.00  0.00    -0.356 OA
HETATM   18  C   UNL     1       9.181  20.283  55.978  1.00  0.00     0.210 C 
ENDBRANCH  14  17
ENDBRANCH   9  11
ENDBRANCH   2   5
BRANCH   1  19
HETATM   19  N   UNL     1       4.869  29.228  55.697  1.00  0.00    -0.184 NA
HETATM   20  C   UNL     1       5.631  30.248  55.929  1.00  0.00     0.150 C 
BRANCH  20  21
HETATM   21  C   UNL     1       6.484  30.279  57.136  1.00  0.00    -0.017 A 
HETATM   22  C   UNL     1       6.387  31.344  58.039  1.00  0.00     0.016 A 
HETATM   23  C   UNL     1       7.200  31.380  59.174  1.00  0.00     0.037 A 
HETATM   24  C   UNL     1       8.116  30.356  59.412  1.00  0.00     0.068 A 
HETATM   25  C   UNL     1       8.216  29.300  58.498  1.00  0.00     0.037 A 
HETATM   26  C   UNL     1       7.404  29.255  57.360  1.00  0.00     0.016 A 
BRANCH  24  27
HETATM   27  O   UNL     1       8.965  30.279  60.482  1.00  0.00    -0.351 OA
BRANCH  27  28
HETATM   28  C   UNL     1       9.082  31.451  61.293  1.00  0.00     0.175 C 
BRANCH  28  29
HETATM   29  C   UNL     1       8.369  31.192  62.615  1.00  0.00     0.022 C 
HETATM   30  C   UNL     1       7.981  32.488  63.305  1.00  0.00     0.007 C 
ENDBRANCH  28  29
ENDBRANCH  27  28
ENDBRANCH  24  27
ENDBRANCH  20  21
ENDBRANCH   1  19
TORSDOF 8
ENDMDL
MODEL 2
REMARK VINA RESULT:      -8.6      1.345      8.747
REMARK  8 active torsions:
REMARK  status: ('A' for Active; 'I' for Inactive)
REMARK    1  A    between atoms: C_2  and  C_3 
REMARK    2  A    between atoms: C_3  and  O_4 
REMARK    3  A    between atoms: O_4  and  C_5 
REMARK    4  A    between atoms: C_8  and  C_9 
REMARK    5  A    between atoms: N_10  and  N_11 
REMARK       I    between atoms: N_11  and  C_12 
REMARK    6  A    between atoms: C_12  and  C_13 
REMARK    7  A    between atoms: C_17  and  C_18 
REMARK    8  A    between atoms: C_21  and  O_22 
ROOT
HETATM    1  N   UNL     1       3.973  28.133  54.025  1.00  0.00    -0.242 N 
HETATM    2  C   UNL     1       4.260  29.424  54.457  1.00  0.00     0.289 C 
HETATM    3  O   UNL     1       3.614  30.366  53.999  1.00  0.00    -0.264 OA
HETATM    4  H   UNL     1       3.258  28.064  53.308  1.00  0.00     0.192 HD
ENDROOT
BRANCH   2   5
HETATM    5  C   UNL     1       5.325  29.590  55.418  1.00  0.00     0.121 A 
HETATM    6  N   UNL     1       6.619  29.212  55.214  1.00  0.00    -0.272 N 
HETATM    7  H   UNL     1       6.983  28.796  54.362  1.00  0.00     0.189 HD
HETATM    8  N   UNL     1       7.450  29.482  56.228  1.00  0.00    -0.174 NA
HETATM    9  C   UNL     1       6.671  30.081  57.143  1.00  0.00     0.089 A 
HETATM   10  C   UNL     1       5.322  30.131  56.689  1.00  0.00     0.071 A 
BRANCH   9  11
HETATM   11  C   UNL     1       7.232  30.599  58.393  1.00  0.00    -0.005 A 
HETATM   12  C   UNL     1       8.349  30.000  58.987  1.00  0.00     0.016 A 
HETATM   13  C   UNL     1       8.849  30.484  60.201  1.00  0.00     0.037 A 
HETATM   14  C   UNL     1       8.249  31.572  60.840  1.00  0.00     0.068 A 
HETATM   15  C   UNL     1       7.138  32.176  60.253  1.00  0.00     0.037 A 
HETATM   16  C   UNL     1       6.634  31.689  59.041  1.00  0.00     0.016 A 
BRANCH  14  17
HETATM   17  O   UNL     1       8.835  31.938  62.020  1.00  0.00    -0.356 OA
HETATM   18  C   UNL     1       7.979  32.478  63.018  1.00  0.00     0.210 C 
ENDBRANCH  14  17
ENDBRANCH   9  11
ENDBRANCH   2   5
BRANCH   1  19
HETATM   19  N   UNL     1       4.785  27.071  54.293  1.00  0.00    -0.184 NA
HETATM   20  C   UNL     1       5.286  26.447  53.275  1.00  0.00     0.150 C 
BRANCH  20  21
HETATM   21  C   UNL     1       6.233  25.330  53.479  1.00  0.00    -0.017 A 
HETATM   22  C   UNL     1       6.369  24.745  54.743  1.00  0.00     0.016 A 
HETATM   23  C   UNL     1       7.271  23.697  54.938  1.00  0.00     0.037 A 
HETATM   24  C   UNL     1       8.043  23.229  53.876  1.00  0.00     0.068 A 
HETATM   25  C   UNL     1       7.909  23.827  52.617  1.00  0.00     0.037 A 
HETATM   26  C   UNL     1       7.007  24.876  52.412  1.00  0.00     0.016 A 
BRANCH  24  27
HETATM   27  O   UNL     1       8.958  22.214  53.941  1.00  0.00    -0.351 OA
BRANCH  27  28
HETATM   28  C   UNL     1       8.476  20.898  53.653  1.00  0.00     0.175 C 
BRANCH  28  29
HETATM   29  C   UNL     1       8.864  19.983  54.808  1.00  0.00     0.022 C 
HETATM   30  C   UNL     1       8.046  20.277  56.054  1.00  0.00     0.007 C 
ENDBRANCH  28  29
ENDBRANCH  27  28
ENDBRANCH  24  27
ENDBRANCH  20  21
ENDBRANCH   1  19
TORSDOF 8
ENDMDL
MODEL 3
REMARK VINA RESULT:      -8.5      1.500      8.161
REMARK  8 active torsions:
REMARK  status: ('A' for Active; 'I' for Inactive)
REMARK    1  A    between atoms: C_2  and  C_3 
REMARK    2  A    between atoms: C_3  and  O_4 
REMARK    3  A    between atoms: O_4  and  C_5 
REMARK    4  A    between atoms: C_8  and  C_9 
REMARK    5  A    between atoms: N_10  and  N_11 
REMARK       I    between atoms: N_11  and  C_12 
REMARK    6  A    between atoms: C_12  and  C_13 
REMARK    7  A    between atoms: C_17  and  C_18 
REMARK    8  A    between atoms: C_21  and  O_22 
ROOT
HETATM    1  N   UNL     1       3.900  26.792  53.128  1.00  0.00    -0.242 N 
HETATM    2  C   UNL     1       3.787  28.108  53.568  1.00  0.00     0.289 C 
HETATM    3  O   UNL     1       3.146  28.911  52.891  1.00  0.00    -0.264 OA
HETATM    4  H   UNL     1       3.468  26.595  52.231  1.00  0.00     0.192 HD
ENDROOT
BRANCH   2   5
HETATM    5  C   UNL     1       4.450  28.465  54.799  1.00  0.00     0.121 A 
HETATM    6  N   UNL     1       4.067  28.042  56.037  1.00  0.00    -0.272 N 
HETATM    7  H   UNL     1       3.294  27.413  56.231  1.00  0.00     0.189 HD
HETATM    8  N   UNL     1       4.839  28.473  57.043  1.00  0.00    -0.174 NA
HETATM    9  C   UNL     1       5.788  29.207  56.439  1.00  0.00     0.089 A 
HETATM   10  C   UNL     1       5.554  29.260  55.035  1.00  0.00     0.071 A 
BRANCH   9  11
HETATM   11  C   UNL     1       6.883  29.807  57.205  1.00  0.00    -0.005 A 
HETATM   12  C   UNL     1       6.635  30.782  58.178  1.00  0.00     0.016 A 
HETATM   13  C   UNL     1       7.696  31.374  58.873  1.00  0.00     0.037 A 
HETATM   14  C   UNL     1       9.017  31.000  58.616  1.00  0.00     0.068 A 
HETATM   15  C   UNL     1       9.272  30.027  57.651  1.00  0.00     0.037 A 
HETATM   16  C   UNL     1       8.212  29.439  56.950  1.00  0.00     0.016 A 
BRANCH  14  17
HETATM   17  O   UNL     1       9.954  31.659  59.362  1.00  0.00    -0.356 OA
HETATM   18  C   UNL     1       9.540  32.127  60.640  1.00  0.00     0.210 C 
ENDBRANCH  14  17
ENDBRANCH   9  11
ENDBRANCH   2   5
BRANCH   1  19
HETATM   19  N   UNL     1       4.778  25.906  53.681  1.00  0.00    -0.184 NA
HETATM   20  C   UNL     1       5.767  25.525  52.939  1.00  0.00     0.150 C 
BRANCH  20  21
HETATM   21  C   UNL     1       6.802  24.622  53.485  1.00  0.00    -0.017 A 
HETATM   22  C   UNL     1       7.255  24.783  54.799  1.00  0.00     0.016 A 
HETATM   23  C   UNL     1       8.241  23.938  55.312  1.00  0.00     0.037 A 
HETATM   24  C   UNL     1       8.782  22.929  54.517  1.00  0.00     0.068 A 
HETATM   25  C   UNL     1       8.331  22.780  53.199  1.00  0.00     0.037 A 
HETATM   26  C   UNL     1       7.343  23.622  52.678  1.00  0.00     0.016 A 
BRANCH  24  27
HETATM   27  O   UNL     1       9.749  22.041  54.902  1.00  0.00    -0.351 OA
BRANCH  27  28
HETATM   28  C   UNL     1       9.387  20.657  54.894  1.00  0.00     0.175 C 
BRANCH  28  29
HETATM   29  C   UNL     1       8.835  20.299  56.269  1.00  0.00     0.022 C 
HETATM   30  C   UNL     1       7.317  20.337  56.290  1.00  0.00     0.007 C 
ENDBRANCH  28  29
ENDBRANCH  27  28
ENDBRANCH  24  27
ENDBRANCH  20  21
ENDBRANCH   1  19
TORSDOF 8
ENDMDL
MODEL 4
REMARK VINA RESULT:      -8.3      3.715      7.651
REMARK  8 active torsions:
REMARK  status: ('A' for Active; 'I' for Inactive)
REMARK    1  A    between atoms: C_2  and  C_3 
REMARK    2  A    between atoms: C_3  and  O_4 
REMARK    3  A    between atoms: O_4  and  C_5 
REMARK    4  A    between atoms: C_8  and  C_9 
REMARK    5  A    between atoms: N_10  and  N_11 
REMARK       I    between atoms: N_11  and  C_12 
REMARK    6  A    between atoms: C_12  and  C_13 
REMARK    7  A    between atoms: C_17  and  C_18 
REMARK    8  A    between atoms: C_21  and  O_22 
ROOT
HETATM    1  N   UNL     1       4.571  28.237  56.853  1.00  0.00    -0.242 N 
HETATM    2  C   UNL     1       4.121  29.146  55.899  1.00  0.00     0.289 C 
HETATM    3  O   UNL     1       3.439  30.104  56.261  1.00  0.00    -0.264 OA
HETATM    4  H   UNL     1       4.258  28.413  57.802  1.00  0.00     0.192 HD
ENDROOT
BRANCH   2   5
HETATM    5  C   UNL     1       4.468  28.900  54.520  1.00  0.00     0.121 A 
HETATM    6  N   UNL     1       5.729  28.990  54.010  1.00  0.00    -0.272 N 
HETATM    7  H   UNL     1       6.565  29.213  54.542  1.00  0.00     0.189 HD
HETATM    8  N   UNL     1       5.832  28.695  52.708  1.00  0.00    -0.174 NA
HETATM    9  C   UNL     1       4.578  28.383  52.340  1.00  0.00     0.089 A 
HETATM   10  C   UNL     1       3.686  28.539  53.440  1.00  0.00     0.071 A 
BRANCH   9  11
HETATM   11  C   UNL     1       4.278  27.931  50.980  1.00  0.00    -0.005 A 
HETATM   12  C   UNL     1       4.880  26.784  50.450  1.00  0.00     0.016 A 
HETATM   13  C   UNL     1       4.613  26.389  49.134  1.00  0.00     0.037 A 
HETATM   14  C   UNL     1       3.739  27.123  48.329  1.00  0.00     0.068 A 
HETATM   15  C   UNL     1       3.132  28.265  48.851  1.00  0.00     0.037 A 
HETATM   16  C   UNL     1       3.404  28.665  50.165  1.00  0.00     0.016 A 
BRANCH  14  17
HETATM   17  O   UNL     1       3.571  26.629  47.066  1.00  0.00    -0.356 OA
HETATM   18  C   UNL     1       2.856  25.405  46.948  1.00  0.00     0.210 C 
ENDBRANCH  14  17
ENDBRANCH   9  11
ENDBRANCH   2   5
BRANCH   1  19
HETATM   19  N   UNL     1       5.119  27.034  56.519  1.00  0.00    -0.184 NA
HETATM   20  C   UNL     1       6.352  26.838  56.863  1.00  0.00     0.150 C 
BRANCH  20  21
HETATM   21  C   UNL     1       6.999  25.536  56.601  1.00  0.00    -0.017 A 
HETATM   22  C   UNL     1       6.520  24.703  55.584  1.00  0.00     0.016 A 
HETATM   23  C   UNL     1       7.125  23.467  55.343  1.00  0.00     0.037 A 
HETATM   24  C   UNL     1       8.208  23.054  56.118  1.00  0.00     0.068 A 
HETATM   25  C   UNL     1       8.675  23.888  57.142  1.00  0.00     0.037 A 
HETATM   26  C   UNL     1       8.076  25.128  57.388  1.00  0.00     0.016 A 
BRANCH  24  27
HETATM   27  O   UNL     1       8.881  21.871  55.982  1.00  0.00    -0.351 OA
BRANCH  27  28
HETATM   28  C   UNL     1       8.105  20.733  55.597  1.00  0.00     0.175 C 
BRANCH  28  29
HETATM   29  C   UNL     1       8.709  20.151  54.324  1.00  0.00     0.022 C 
HETATM   30  C   UNL     1       7.950  20.601  53.088  1.00  0.00     0.007 C 
ENDBRANCH  28  29
ENDBRANCH  27  28
ENDBRANCH  24  27
ENDBRANCH  20  21
ENDBRANCH   1  19
TORSDOF 8
ENDMDL
MODEL 5
REMARK VINA RESULT:      -8.0      7.519     12.034
REMARK  8 active torsions:
REMARK  status: ('A' for Active; 'I' for Inactive)
REMARK    1  A    between atoms: C_2  and  C_3 
REMARK    2  A    between atoms: C_3  and  O_4 
REMARK    3  A    between atoms: O_4  and  C_5 
REMARK    4  A    between atoms: C_8  and  C_9 
REMARK    5  A    between atoms: N_10  and  N_11 
REMARK       I    between atoms: N_11  and  C_12 
REMARK    6  A    between atoms: C_12  and  C_13 
REMARK    7  A    between atoms: C_17  and  C_18 
REMARK    8  A    between atoms: C_21  and  O_22 
ROOT
HETATM    1  N   UNL     1       6.786  33.724  66.114  1.00  0.00    -0.242 N 
HETATM    2  C   UNL     1       5.491  34.191  66.318  1.00  0.00     0.289 C 
HETATM    3  O   UNL     1       4.955  34.011  67.411  1.00  0.00    -0.264 OA
HETATM    4  H   UNL     1       7.191  33.214  66.893  1.00  0.00     0.192 HD
ENDROOT
BRANCH   2   5
HETATM    5  C   UNL     1       4.834  34.853  65.216  1.00  0.00     0.121 A 
HETATM    6  N   UNL     1       5.025  36.158  64.870  1.00  0.00    -0.272 N 
HETATM    7  H   UNL     1       5.665  36.800  65.329  1.00  0.00     0.189 HD
HETATM    8  N   UNL     1       4.334  36.563  63.798  1.00  0.00    -0.174 NA
HETATM    9  C   UNL     1       3.661  35.469  63.406  1.00  0.00     0.089 A 
HETATM   10  C   UNL     1       3.916  34.386  64.296  1.00  0.00     0.071 A 
BRANCH   9  11
HETATM   11  C   UNL     1       2.825  35.484  62.203  1.00  0.00    -0.005 A 
HETATM   12  C   UNL     1       1.687  34.675  62.103  1.00  0.00     0.016 A 
HETATM   13  C   UNL     1       0.923  34.673  60.931  1.00  0.00     0.037 A 
HETATM   14  C   UNL     1       1.275  35.479  59.845  1.00  0.00     0.068 A 
HETATM   15  C   UNL     1       2.405  36.290  59.939  1.00  0.00     0.037 A 
HETATM   16  C   UNL     1       3.174  36.288  61.108  1.00  0.00     0.016 A 
BRANCH  14  17
HETATM   17  O   UNL     1       0.445  35.376  58.763  1.00  0.00    -0.356 OA
HETATM   18  C   UNL     1       1.031  35.588  57.485  1.00  0.00     0.210 C 
ENDBRANCH  14  17
ENDBRANCH   9  11
ENDBRANCH   2   5
BRANCH   1  19
HETATM   19  N   UNL     1       7.360  33.666  64.878  1.00  0.00    -0.184 NA
HETATM   20  C   UNL     1       7.113  32.612  64.169  1.00  0.00     0.150 C 
BRANCH  20  21
HETATM   21  C   UNL     1       7.638  32.503  62.791  1.00  0.00    -0.017 A 
HETATM   22  C   UNL     1       8.908  31.961  62.563  1.00  0.00     0.016 A 
HETATM   23  C   UNL     1       9.409  31.867  61.263  1.00  0.00     0.037 A 
HETATM   24  C   UNL     1       8.648  32.316  60.184  1.00  0.00     0.068 A 
HETATM   25  C   UNL     1       7.382  32.867  60.421  1.00  0.00     0.037 A 
HETATM   26  C   UNL     1       6.873  32.963  61.720  1.00  0.00     0.016 A 
BRANCH  24  27
HETATM   27  O   UNL     1       9.027  32.279  58.870  1.00  0.00    -0.351 OA
BRANCH  27  28
HETATM   28  C   UNL     1      10.177  31.489  58.557  1.00  0.00     0.175 C 
BRANCH  28  29
HETATM   29  C   UNL     1       9.706  30.198  57.900  1.00  0.00     0.022 C 
HETATM   30  C   UNL     1      10.418  29.949  56.582  1.00  0.00     0.007 C 
ENDBRANCH  28  29
ENDBRANCH  27  28
ENDBRANCH  24  27
ENDBRANCH  20  21
ENDBRANCH   1  19
TORSDOF 8
ENDMDL
MODEL 6
REMARK VINA RESULT:      -8.0      3.371      7.594
REMARK  8 active torsions:
REMARK  status: ('A' for Active; 'I' for Inactive)
REMARK    1  A    between atoms: C_2  and  C_3 
REMARK    2  A    between atoms: C_3  and  O_4 
REMARK    3  A    between atoms: O_4  and  C_5 
REMARK    4  A    between atoms: C_8  and  C_9 
REMARK    5  A    between atoms: N_10  and  N_11 
REMARK       I    between atoms: N_11  and  C_12 
REMARK    6  A    between atoms: C_12  and  C_13 
REMARK    7  A    between atoms: C_17  and  C_18 
REMARK    8  A    between atoms: C_21  and  O_22 
ROOT
HETATM    1  N   UNL     1       4.470  29.480  55.612  1.00  0.00    -0.242 N 
HETATM    2  C   UNL     1       5.169  28.852  56.640  1.00  0.00     0.289 C 
HETATM    3  O   UNL     1       5.563  29.524  57.592  1.00  0.00    -0.264 OA
HETATM    4  H   UNL     1       4.372  30.486  55.706  1.00  0.00     0.192 HD
ENDROOT
BRANCH   2   5
HETATM    5  C   UNL     1       5.410  27.434  56.521  1.00  0.00     0.121 A 
HETATM    6  N   UNL     1       4.593  26.464  57.022  1.00  0.00    -0.272 N 
HETATM    7  H   UNL     1       3.717  26.627  57.511  1.00  0.00     0.189 HD
HETATM    8  N   UNL     1       4.992  25.210  56.776  1.00  0.00    -0.174 NA
HETATM    9  C   UNL     1       6.122  25.357  56.065  1.00  0.00     0.089 A 
HETATM   10  C   UNL     1       6.439  26.738  55.919  1.00  0.00     0.071 A 
BRANCH   9  11
HETATM   11  C   UNL     1       6.840  24.194  55.537  1.00  0.00    -0.005 A 
HETATM   12  C   UNL     1       7.593  23.367  56.378  1.00  0.00     0.016 A 
HETATM   13  C   UNL     1       8.305  22.283  55.851  1.00  0.00     0.037 A 
HETATM   14  C   UNL     1       8.274  22.004  54.482  1.00  0.00     0.068 A 
HETATM   15  C   UNL     1       7.523  22.821  53.639  1.00  0.00     0.037 A 
HETATM   16  C   UNL     1       6.815  23.909  54.165  1.00  0.00     0.016 A 
BRANCH  14  17
HETATM   17  O   UNL     1       9.016  20.920  54.102  1.00  0.00    -0.356 OA
HETATM   18  C   UNL     1       8.659  20.300  52.874  1.00  0.00     0.210 C 
ENDBRANCH  14  17
ENDBRANCH   9  11
ENDBRANCH   2   5
BRANCH   1  19
HETATM   19  N   UNL     1       4.210  28.869  54.422  1.00  0.00    -0.184 NA
HETATM   20  C   UNL     1       5.128  28.946  53.513  1.00  0.00     0.150 C 
BRANCH  20  21
HETATM   21  C   UNL     1       4.954  28.251  52.219  1.00  0.00    -0.017 A 
HETATM   22  C   UNL     1       5.445  26.952  52.046  1.00  0.00     0.016 A 
HETATM   23  C   UNL     1       5.291  26.299  50.822  1.00  0.00     0.037 A 
HETATM   24  C   UNL     1       4.650  26.940  49.762  1.00  0.00     0.068 A 
HETATM   25  C   UNL     1       4.171  28.244  49.939  1.00  0.00     0.037 A 
HETATM   26  C   UNL     1       4.320  28.904  51.163  1.00  0.00     0.016 A 
BRANCH  24  27
HETATM   27  O   UNL     1       4.439  26.409  48.519  1.00  0.00    -0.351 OA
BRANCH  27  28
HETATM   28  C   UNL     1       3.415  25.417  48.412  1.00  0.00     0.175 C 
BRANCH  28  29
HETATM   29  C   UNL     1       2.660  25.646  47.108  1.00  0.00     0.022 C 
HETATM   30  C   UNL     1       2.005  27.016  47.074  1.00  0.00     0.007 C 
ENDBRANCH  28  29
ENDBRANCH  27  28
ENDBRANCH  24  27
ENDBRANCH  20  21
ENDBRANCH   1  19
TORSDOF 8
ENDMDL
MODEL 7
REMARK VINA RESULT:      -7.8      2.988      7.493
REMARK  8 active torsions:
REMARK  status: ('A' for Active; 'I' for Inactive)
REMARK    1  A    between atoms: C_2  and  C_3 
REMARK    2  A    between atoms: C_3  and  O_4 
REMARK    3  A    between atoms: O_4  and  C_5 
REMARK    4  A    between atoms: C_8  and  C_9 
REMARK    5  A    between atoms: N_10  and  N_11 
REMARK       I    between atoms: N_11  and  C_12 
REMARK    6  A    between atoms: C_12  and  C_13 
REMARK    7  A    between atoms: C_17  and  C_18 
REMARK    8  A    between atoms: C_21  and  O_22 
ROOT
HETATM    1  N   UNL     1       7.450  28.734  57.964  1.00  0.00    -0.242 N 
HETATM    2  C   UNL     1       6.817  29.517  57.004  1.00  0.00     0.289 C 
HETATM    3  O   UNL     1       6.242  30.547  57.355  1.00  0.00    -0.264 OA
HETATM    4  H   UNL     1       7.351  29.056  58.922  1.00  0.00     0.192 HD
ENDROOT
BRANCH   2   5
HETATM    5  C   UNL     1       6.855  29.063  55.633  1.00  0.00     0.121 A 
HETATM    6  N   UNL     1       7.997  28.833  54.925  1.00  0.00    -0.272 N 
HETATM    7  H   UNL     1       8.942  28.930  55.284  1.00  0.00     0.189 HD
HETATM    8  N   UNL     1       7.805  28.391  53.676  1.00  0.00    -0.174 NA
HETATM    9  C   UNL     1       6.469  28.312  53.556  1.00  0.00     0.089 A 
HETATM   10  C   UNL     1       5.837  28.765  54.750  1.00  0.00     0.071 A 
BRANCH   9  11
HETATM   11  C   UNL     1       5.849  27.795  52.334  1.00  0.00    -0.005 A 
HETATM   12  C   UNL     1       5.736  26.418  52.107  1.00  0.00     0.016 A 
HETATM   13  C   UNL     1       5.176  25.942  50.917  1.00  0.00     0.037 A 
HETATM   14  C   UNL     1       4.714  26.825  49.938  1.00  0.00     0.068 A 
HETATM   15  C   UNL     1       4.819  28.198  50.159  1.00  0.00     0.037 A 
HETATM   16  C   UNL     1       5.385  28.676  51.347  1.00  0.00     0.016 A 
BRANCH  14  17
HETATM   17  O   UNL     1       4.194  26.226  48.825  1.00  0.00    -0.356 OA
HETATM   18  C   UNL     1       2.943  26.717  48.359  1.00  0.00     0.210 C 
ENDBRANCH  14  17
ENDBRANCH   9  11
ENDBRANCH   2   5
BRANCH   1  19
HETATM   19  N   UNL     1       7.897  27.472  57.704  1.00  0.00    -0.184 NA
HETATM   20  C   UNL     1       7.003  26.585  57.405  1.00  0.00     0.150 C 
BRANCH  20  21
HETATM   21  C   UNL     1       7.410  25.212  57.040  1.00  0.00    -0.017 A 
HETATM   22  C   UNL     1       6.783  24.550  55.979  1.00  0.00     0.016 A 
HETATM   23  C   UNL     1       7.159  23.248  55.641  1.00  0.00     0.037 A 
HETATM   24  C   UNL     1       8.161  22.599  56.362  1.00  0.00     0.068 A 
HETATM   25  C   UNL     1       8.776  23.264  57.430  1.00  0.00     0.037 A 
HETATM   26  C   UNL     1       8.406  24.568  57.774  1.00  0.00     0.016 A 
BRANCH  24  27
HETATM   27  O   UNL     1       8.615  21.330  56.130  1.00  0.00    -0.351 OA
BRANCH  27  28
HETATM   28  C   UNL     1       9.357  21.126  54.925  1.00  0.00     0.175 C 
BRANCH  28  29
HETATM   29  C   UNL     1       8.633  20.079  54.087  1.00  0.00     0.022 C 
HETATM   30  C   UNL     1       7.864  20.713  52.941  1.00  0.00     0.007 C 
ENDBRANCH  28  29
ENDBRANCH  27  28
ENDBRANCH  24  27
ENDBRANCH  20  21
ENDBRANCH   1  19
TORSDOF 8
ENDMDL
MODEL 8
REMARK VINA RESULT:      -7.7      3.322      4.006
REMARK  8 active torsions:
REMARK  status: ('A' for Active; 'I' for Inactive)
REMARK    1  A    between atoms: C_2  and  C_3 
REMARK    2  A    between atoms: C_3  and  O_4 
REMARK    3  A    between atoms: O_4  and  C_5 
REMARK    4  A    between atoms: C_8  and  C_9 
REMARK    5  A    between atoms: N_10  and  N_11 
REMARK       I    between atoms: N_11  and  C_12 
REMARK    6  A    between atoms: C_12  and  C_13 
REMARK    7  A    between atoms: C_17  and  C_18 
REMARK    8  A    between atoms: C_21  and  O_22 
ROOT
HETATM    1  N   UNL     1       4.199  28.296  50.632  1.00  0.00    -0.242 N 
HETATM    2  C   UNL     1       4.738  27.050  50.327  1.00  0.00     0.289 C 
HETATM    3  O   UNL     1       4.852  26.719  49.148  1.00  0.00    -0.264 OA
HETATM    4  H   UNL     1       3.889  28.841  49.834  1.00  0.00     0.192 HD
ENDROOT
BRANCH   2   5
HETATM    5  C   UNL     1       5.123  26.196  51.427  1.00  0.00     0.121 A 
HETATM    6  N   UNL     1       4.320  25.885  52.484  1.00  0.00    -0.272 N 
HETATM    7  H   UNL     1       3.360  26.195  52.605  1.00  0.00     0.189 HD
HETATM    8  N   UNL     1       4.867  25.055  53.380  1.00  0.00    -0.174 NA
HETATM    9  C   UNL     1       6.088  24.794  52.886  1.00  0.00     0.089 A 
HETATM   10  C   UNL     1       6.302  25.524  51.682  1.00  0.00     0.071 A 
BRANCH   9  11
HETATM   11  C   UNL     1       6.991  23.853  53.555  1.00  0.00    -0.005 A 
HETATM   12  C   UNL     1       7.835  23.014  52.820  1.00  0.00     0.016 A 
HETATM   13  C   UNL     1       8.662  22.094  53.474  1.00  0.00     0.037 A 
HETATM   14  C   UNL     1       8.666  22.000  54.868  1.00  0.00     0.068 A 
HETATM   15  C   UNL     1       7.831  22.836  55.608  1.00  0.00     0.037 A 
HETATM   16  C   UNL     1       6.998  23.752  54.954  1.00  0.00     0.016 A 
BRANCH  14  17
HETATM   17  O   UNL     1       9.518  21.058  55.376  1.00  0.00    -0.356 OA
HETATM   18  C   UNL     1       9.034  20.279  56.463  1.00  0.00     0.210 C 
ENDBRANCH  14  17
ENDBRANCH   9  11
ENDBRANCH   2   5
BRANCH   1  19
HETATM   19  N   UNL     1       3.818  28.643  51.895  1.00  0.00    -0.184 NA
HETATM   20  C   UNL     1       4.403  29.671  52.420  1.00  0.00     0.150 C 
BRANCH  20  21
HETATM   21  C   UNL     1       3.998  30.155  53.757  1.00  0.00    -0.017 A 
HETATM   22  C   UNL     1       3.249  31.330  53.883  1.00  0.00     0.016 A 
HETATM   23  C   UNL     1       2.876  31.793  55.146  1.00  0.00     0.037 A 
HETATM   24  C   UNL     1       3.250  31.089  56.290  1.00  0.00     0.068 A 
HETATM   25  C   UNL     1       4.009  29.920  56.156  1.00  0.00     0.037 A 
HETATM   26  C   UNL     1       4.386  29.448  54.895  1.00  0.00     0.016 A 
BRANCH  24  27
HETATM   27  O   UNL     1       2.948  31.440  57.577  1.00  0.00    -0.351 OA
BRANCH  27  28
HETATM   28  C   UNL     1       4.052  31.616  58.469  1.00  0.00     0.175 C 
BRANCH  28  29
HETATM   29  C   UNL     1       4.576  33.038  58.307  1.00  0.00     0.022 C 
HETATM   30  C   UNL     1       3.471  34.065  58.478  1.00  0.00     0.007 C 
ENDBRANCH  28  29
ENDBRANCH  27  28
ENDBRANCH  24  27
ENDBRANCH  20  21
ENDBRANCH   1  19
TORSDOF 8
ENDMDL
MODEL 9
REMARK VINA RESULT:      -7.6      3.117      5.963
REMARK  8 active torsions:
REMARK  status: ('A' for Active; 'I' for Inactive)
REMARK    1  A    between atoms: C_2  and  C_3 
REMARK    2  A    between atoms: C_3  and  O_4 
REMARK    3  A    between atoms: O_4  and  C_5 
REMARK    4  A    between atoms: C_8  and  C_9 
REMARK    5  A    between atoms: N_10  and  N_11 
REMARK       I    between atoms: N_11  and  C_12 
REMARK    6  A    between atoms: C_12  and  C_13 
REMARK    7  A    between atoms: C_17  and  C_18 
REMARK    8  A    between atoms: C_21  and  O_22 
ROOT
HETATM    1  N   UNL     1       7.871  24.059  54.958  1.00  0.00    -0.242 N 
HETATM    2  C   UNL     1       7.282  23.579  53.792  1.00  0.00     0.289 C 
HETATM    3  O   UNL     1       7.528  22.430  53.427  1.00  0.00    -0.264 OA
HETATM    4  H   UNL     1       8.516  23.421  55.413  1.00  0.00     0.192 HD
ENDROOT
BRANCH   2   5
HETATM    5  C   UNL     1       6.418  24.472  53.057  1.00  0.00     0.121 A 
HETATM    6  N   UNL     1       5.219  24.938  53.510  1.00  0.00    -0.272 N 
HETATM    7  H   UNL     1       4.812  24.730  54.417  1.00  0.00     0.189 HD
HETATM    8  N   UNL     1       4.591  25.777  52.678  1.00  0.00    -0.174 NA
HETATM    9  C   UNL     1       5.422  25.883  51.627  1.00  0.00     0.089 A 
HETATM   10  C   UNL     1       6.560  25.047  51.810  1.00  0.00     0.071 A 
BRANCH   9  11
HETATM   11  C   UNL     1       5.119  26.782  50.510  1.00  0.00    -0.005 A 
HETATM   12  C   UNL     1       4.553  26.297  49.326  1.00  0.00     0.016 A 
HETATM   13  C   UNL     1       4.306  27.162  48.254  1.00  0.00     0.037 A 
HETATM   14  C   UNL     1       4.612  28.522  48.347  1.00  0.00     0.068 A 
HETATM   15  C   UNL     1       5.172  29.013  49.525  1.00  0.00     0.037 A 
HETATM   16  C   UNL     1       5.426  28.147  50.595  1.00  0.00     0.016 A 
BRANCH  14  17
HETATM   17  O   UNL     1       4.324  29.251  47.227  1.00  0.00    -0.356 OA
HETATM   18  C   UNL     1       4.619  30.642  47.276  1.00  0.00     0.210 C 
ENDBRANCH  14  17
ENDBRANCH   9  11
ENDBRANCH   2   5
BRANCH   1  19
HETATM   19  N   UNL     1       7.847  25.378  55.303  1.00  0.00    -0.184 NA
HETATM   20  C   UNL     1       7.337  25.671  56.456  1.00  0.00     0.150 C 
BRANCH  20  21
HETATM   21  C   UNL     1       7.336  27.069  56.936  1.00  0.00    -0.017 A 
HETATM   22  C   UNL     1       6.130  27.764  57.078  1.00  0.00     0.016 A 
HETATM   23  C   UNL     1       6.129  29.088  57.521  1.00  0.00     0.037 A 
HETATM   24  C   UNL     1       7.331  29.727  57.823  1.00  0.00     0.068 A 
HETATM   25  C   UNL     1       8.535  29.029  57.668  1.00  0.00     0.037 A 
HETATM   26  C   UNL     1       8.545  27.701  57.226  1.00  0.00     0.016 A 
BRANCH  24  27
HETATM   27  O   UNL     1       7.462  31.016  58.263  1.00  0.00    -0.351 OA
BRANCH  27  28
HETATM   28  C   UNL     1       7.731  31.193  59.656  1.00  0.00     0.175 C 
BRANCH  28  29
HETATM   29  C   UNL     1       8.969  32.070  59.797  1.00  0.00     0.022 C 
HETATM   30  C   UNL     1       9.610  31.916  61.165  1.00  0.00     0.007 C 
ENDBRANCH  28  29
ENDBRANCH  27  28
ENDBRANCH  24  27
ENDBRANCH  20  21
ENDBRANCH   1  19
TORSDOF 8
ENDMDL
MODEL 10
REMARK VINA RESULT:      -7.6      7.318     13.366
REMARK  8 active torsions:
REMARK  status: ('A' for Active; 'I' for Inactive)
REMARK    1  A    between atoms: C_2  and  C_3 
REMARK    2  A    between atoms: C_3  and  O_4 
REMARK    3  A    between atoms: O_4  and  C_5 
REMARK    4  A    between atoms: C_8  and  C_9 
REMARK    5  A    between atoms: N_10  and  N_11 
REMARK       I    between atoms: N_11  and  C_12 
REMARK    6  A    between atoms: C_12  and  C_13 
REMARK    7  A    between atoms: C_17  and  C_18 
REMARK    8  A    between atoms: C_21  and  O_22 
ROOT
HETATM    1  N   UNL     1       4.189  33.829  65.651  1.00  0.00    -0.242 N 
HETATM    2  C   UNL     1       3.633  35.105  65.663  1.00  0.00     0.289 C 
HETATM    3  O   UNL     1       2.956  35.454  66.630  1.00  0.00    -0.264 OA
HETATM    4  H   UNL     1       3.951  33.245  66.445  1.00  0.00     0.192 HD
ENDROOT
BRANCH   2   5
HETATM    5  C   UNL     1       3.870  35.953  64.519  1.00  0.00     0.121 A 
HETATM    6  N   UNL     1       3.071  36.008  63.415  1.00  0.00    -0.272 N 
HETATM    7  H   UNL     1       2.213  35.481  63.284  1.00  0.00     0.189 HD
HETATM    8  N   UNL     1       3.462  36.883  62.481  1.00  0.00    -0.174 NA
HETATM    9  C   UNL     1       4.568  37.445  62.997  1.00  0.00     0.089 A 
HETATM   10  C   UNL     1       4.879  36.859  64.257  1.00  0.00     0.071 A 
BRANCH   9  11
HETATM   11  C   UNL     1       5.268  38.522  62.293  1.00  0.00    -0.005 A 
HETATM   12  C   UNL     1       4.569  39.605  61.749  1.00  0.00     0.016 A 
HETATM   13  C   UNL     1       5.250  40.605  61.046  1.00  0.00     0.037 A 
HETATM   14  C   UNL     1       6.635  40.546  60.879  1.00  0.00     0.068 A 
HETATM   15  C   UNL     1       7.340  39.472  61.421  1.00  0.00     0.037 A 
HETATM   16  C   UNL     1       6.659  38.468  62.119  1.00  0.00     0.016 A 
BRANCH  14  17
HETATM   17  O   UNL     1       7.171  41.585  60.169  1.00  0.00    -0.356 OA
HETATM   18  C   UNL     1       6.424  42.048  59.050  1.00  0.00     0.210 C 
ENDBRANCH  14  17
ENDBRANCH   9  11
ENDBRANCH   2   5
BRANCH   1  19
HETATM   19  N   UNL     1       4.743  33.281  64.532  1.00  0.00    -0.184 NA
HETATM   20  C   UNL     1       6.012  33.461  64.360  1.00  0.00     0.150 C 
BRANCH  20  21
HETATM   21  C   UNL     1       6.704  32.841  63.210  1.00  0.00    -0.017 A 
HETATM   22  C   UNL     1       7.967  32.263  63.376  1.00  0.00     0.016 A 
HETATM   23  C   UNL     1       8.626  31.686  62.288  1.00  0.00     0.037 A 
HETATM   24  C   UNL     1       8.029  31.685  61.028  1.00  0.00     0.068 A 
HETATM   25  C   UNL     1       6.769  32.274  60.867  1.00  0.00     0.037 A 
HETATM   26  C   UNL     1       6.102  32.853  61.952  1.00  0.00     0.016 A 
BRANCH  24  27
HETATM   27  O   UNL     1       8.570  31.154  59.890  1.00  0.00    -0.351 OA
BRANCH  27  28
HETATM   28  C   UNL     1       9.718  31.820  59.356  1.00  0.00     0.175 C 
BRANCH  28  29
HETATM   29  C   UNL     1      10.132  31.107  58.075  1.00  0.00     0.022 C 
HETATM   30  C   UNL     1       9.340  29.829  57.864  1.00  0.00     0.007 C 
ENDBRANCH  28  29
ENDBRANCH  27  28
ENDBRANCH  24  27
ENDBRANCH  20  21
ENDBRANCH   1  19
TORSDOF 8
ENDMDL
