MODEL 1
REMARK VINA RESULT:      -8.9      0.000      0.000
REMARK  7 active torsions:
REMARK  status: ('A' for Active; 'I' for Inactive)
REMARK    1  A    between atoms: C_7  and  C_8 
REMARK    2  A    between atoms: C_8  and  N_9 
REMARK       I    between atoms: N_9  and  C_10 
REMARK       I    between atoms: C_10  and  N_11 
REMARK    3  A    between atoms: N_11  and  C_12 
REMARK    4  A    between atoms: C_12  and  C_13 
REMARK    5  A    between atoms: C_13  and  C_14 
REMARK    6  A    between atoms: C_14  and  O_15 
REMARK    7  A    between atoms: C_14  and  C_16 
ROOT
HETATM    1  N   UNL     1       7.826  26.955  56.592  1.00  0.00    -0.337 N 
HETATM    2  C   UNL     1       8.331  28.212  56.371  1.00  0.00     0.316 C 
HETATM    3  N   UNL     1       9.074  28.661  57.426  1.00  0.00    -0.339 N 
HETATM    4  O   UNL     1       8.204  28.809  55.307  1.00  0.00    -0.247 OA
HETATM    5  H   UNL     1       7.751  26.700  57.567  1.00  0.00     0.164 HD
HETATM    6  H   UNL     1       8.843  28.295  58.340  1.00  0.00     0.164 HD
ENDROOT
BRANCH   1   7
HETATM    7  C   UNL     1       6.872  26.342  55.688  1.00  0.00     0.183 C 
BRANCH   7   8
HETATM    8  C   UNL     1       7.230  24.935  55.364  1.00  0.00     0.044 A 
HETATM    9  N   UNL     1       7.273  24.458  54.062  1.00  0.00    -0.343 N 
HETATM   10  C   UNL     1       7.584  23.173  54.029  1.00  0.00     0.112 A 
HETATM   11  H   UNL     1       7.142  25.070  53.247  1.00  0.00     0.167 HD
HETATM   12  N   UNL     1       7.756  22.762  55.301  1.00  0.00    -0.311 N 
HETATM   13  C   UNL     1       7.740  22.251  52.880  1.00  0.00     0.049 A 
HETATM   14  C   UNL     1       8.094  21.448  55.623  1.00  0.00     0.014 A 
HETATM   15  C   UNL     1       7.545  23.846  56.147  1.00  0.00     0.125 A 
HETATM   16  C   UNL     1       8.287  21.024  57.047  1.00  0.00     0.068 C 
HETATM   17  C   UNL     1       8.234  20.596  54.582  1.00  0.00     0.025 A 
HETATM   18  C   UNL     1       8.058  20.983  53.186  1.00  0.00     0.006 A 
ENDBRANCH   7   8
ENDBRANCH   1   7
BRANCH   3  19
HETATM   19  C   UNL     1       9.715  29.972  57.415  1.00  0.00     0.085 C 
HETATM   20  C   UNL     1      11.205  29.816  57.130  1.00  0.00     0.032 C 
BRANCH  19  21
HETATM   21  C   UNL     1       9.386  30.821  58.663  1.00  0.00     0.063 C 
BRANCH  21  22
HETATM   22  C   UNL     1       8.256  30.361  59.591  1.00  0.00     0.177 C 
BRANCH  22  23
HETATM   23  O   UNL     1       7.001  30.396  58.919  1.00  0.00    -0.389 OA
HETATM   24  H   UNL     1       7.177  30.241  57.975  1.00  0.00     0.210 HD
ENDBRANCH  22  23
BRANCH  22  25
HETATM   25  C   UNL     1       8.120  31.151  60.847  1.00  0.00     0.081 A 
HETATM   26  O   UNL     1       6.988  31.907  60.979  1.00  0.00    -0.324 OA
HETATM   27  C   UNL     1       7.098  32.594  62.144  1.00  0.00     0.142 A 
HETATM   28  C   UNL     1       8.274  32.277  62.781  1.00  0.00     0.027 A 
HETATM   29  C   UNL     1       8.935  31.346  61.946  1.00  0.00     0.037 A 
ENDBRANCH  22  25
ENDBRANCH  21  22
ENDBRANCH  19  21
ENDBRANCH   3  19
TORSDOF 7
ENDMDL
MODEL 2
REMARK VINA RESULT:      -8.5      1.457      2.064
REMARK  7 active torsions:
REMARK  status: ('A' for Active; 'I' for Inactive)
REMARK    1  A    between atoms: C_7  and  C_8 
REMARK    2  A    between atoms: C_8  and  N_9 
REMARK       I    between atoms: N_9  and  C_10 
REMARK       I    between atoms: C_10  and  N_11 
REMARK    3  A    between atoms: N_11  and  C_12 
REMARK    4  A    between atoms: C_12  and  C_13 
REMARK    5  A    between atoms: C_13  and  C_14 
REMARK    6  A    between atoms: C_14  and  O_15 
REMARK    7  A    between atoms: C_14  and  C_16 
ROOT
HETATM    1  N   UNL     1       7.401  27.745  57.732  1.00  0.00    -0.337 N 
HETATM    2  C   UNL     1       7.319  29.113  57.810  1.00  0.00     0.316 C 
HETATM    3  N   UNL     1       8.397  29.657  58.447  1.00  0.00    -0.339 N 
HETATM    4  O   UNL     1       6.425  29.764  57.278  1.00  0.00    -0.247 OA
HETATM    5  H   UNL     1       7.998  27.322  58.428  1.00  0.00     0.164 HD
HETATM    6  H   UNL     1       8.870  29.078  59.128  1.00  0.00     0.164 HD
ENDROOT
BRANCH   1   7
HETATM    7  C   UNL     1       6.296  26.938  57.250  1.00  0.00     0.183 C 
BRANCH   7   8
HETATM    8  C   UNL     1       6.737  25.913  56.267  1.00  0.00     0.044 A 
HETATM    9  N   UNL     1       6.974  26.213  54.933  1.00  0.00    -0.343 N 
HETATM   10  C   UNL     1       7.325  25.135  54.251  1.00  0.00     0.112 A 
HETATM   11  H   UNL     1       6.937  27.173  54.569  1.00  0.00     0.167 HD
HETATM   12  N   UNL     1       7.332  24.094  55.109  1.00  0.00    -0.311 N 
HETATM   13  C   UNL     1       7.665  24.972  52.819  1.00  0.00     0.049 A 
HETATM   14  C   UNL     1       7.662  22.800  54.710  1.00  0.00     0.014 A 
HETATM   15  C   UNL     1       6.975  24.559  56.370  1.00  0.00     0.125 A 
HETATM   16  C   UNL     1       7.671  21.666  55.689  1.00  0.00     0.068 C 
HETATM   17  C   UNL     1       7.970  22.638  53.403  1.00  0.00     0.025 A 
HETATM   18  C   UNL     1       7.976  23.725  52.429  1.00  0.00     0.006 A 
ENDBRANCH   7   8
ENDBRANCH   1   7
BRANCH   3  19
HETATM   19  C   UNL     1       8.531  31.097  58.644  1.00  0.00     0.085 C 
HETATM   20  C   UNL     1      10.000  31.498  58.547  1.00  0.00     0.032 C 
BRANCH  19  21
HETATM   21  C   UNL     1       7.810  31.608  59.910  1.00  0.00     0.063 C 
BRANCH  21  22
HETATM   22  C   UNL     1       8.463  31.374  61.277  1.00  0.00     0.177 C 
BRANCH  22  23
HETATM   23  O   UNL     1       8.638  29.982  61.525  1.00  0.00    -0.389 OA
HETATM   24  H   UNL     1       9.579  29.844  61.729  1.00  0.00     0.210 HD
ENDBRANCH  22  23
BRANCH  22  25
HETATM   25  C   UNL     1       7.719  31.950  62.432  1.00  0.00     0.081 A 
HETATM   26  O   UNL     1       6.362  31.782  62.436  1.00  0.00    -0.324 OA
HETATM   27  C   UNL     1       5.879  32.438  63.521  1.00  0.00     0.142 A 
HETATM   28  C   UNL     1       6.906  33.009  64.235  1.00  0.00     0.027 A 
HETATM   29  C   UNL     1       8.094  32.695  63.534  1.00  0.00     0.037 A 
ENDBRANCH  22  25
ENDBRANCH  21  22
ENDBRANCH  19  21
ENDBRANCH   3  19
TORSDOF 7
ENDMDL
MODEL 3
REMARK VINA RESULT:      -8.5      2.206      3.681
REMARK  7 active torsions:
REMARK  status: ('A' for Active; 'I' for Inactive)
REMARK    1  A    between atoms: C_7  and  C_8 
REMARK    2  A    between atoms: C_8  and  N_9 
REMARK       I    between atoms: N_9  and  C_10 
REMARK       I    between atoms: C_10  and  N_11 
REMARK    3  A    between atoms: N_11  and  C_12 
REMARK    4  A    between atoms: C_12  and  C_13 
REMARK    5  A    between atoms: C_13  and  C_14 
REMARK    6  A    between atoms: C_14  and  O_15 
REMARK    7  A    between atoms: C_14  and  C_16 
ROOT
HETATM    1  N   UNL     1       6.935  29.673  58.225  1.00  0.00    -0.337 N 
HETATM    2  C   UNL     1       7.904  30.422  58.844  1.00  0.00     0.316 C 
HETATM    3  N   UNL     1       7.659  30.580  60.178  1.00  0.00    -0.339 N 
HETATM    4  O   UNL     1       8.918  30.813  58.273  1.00  0.00    -0.247 OA
HETATM    5  H   UNL     1       6.047  29.659  58.705  1.00  0.00     0.164 HD
HETATM    6  H   UNL     1       6.693  30.545  60.475  1.00  0.00     0.164 HD
ENDROOT
BRANCH   1   7
HETATM    7  C   UNL     1       6.894  29.515  56.784  1.00  0.00     0.183 C 
BRANCH   7   8
HETATM    8  C   UNL     1       7.082  28.098  56.369  1.00  0.00     0.044 A 
HETATM    9  N   UNL     1       6.505  27.575  55.221  1.00  0.00    -0.343 N 
HETATM   10  C   UNL     1       6.791  26.291  55.080  1.00  0.00     0.112 A 
HETATM   11  H   UNL     1       5.985  28.155  54.552  1.00  0.00     0.167 HD
HETATM   12  N   UNL     1       7.562  25.928  56.125  1.00  0.00    -0.311 N 
HETATM   13  C   UNL     1       6.396  25.329  54.026  1.00  0.00     0.049 A 
HETATM   14  C   UNL     1       8.041  24.628  56.283  1.00  0.00     0.014 A 
HETATM   15  C   UNL     1       7.759  27.040  56.936  1.00  0.00     0.125 A 
HETATM   16  C   UNL     1       8.904  24.257  57.450  1.00  0.00     0.068 C 
HETATM   17  C   UNL     1       7.683  23.739  55.328  1.00  0.00     0.025 A 
HETATM   18  C   UNL     1       6.849  24.074  54.178  1.00  0.00     0.006 A 
ENDBRANCH   7   8
ENDBRANCH   1   7
BRANCH   3  19
HETATM   19  C   UNL     1       8.558  31.336  61.043  1.00  0.00     0.085 C 
HETATM   20  C   UNL     1       9.469  30.379  61.806  1.00  0.00     0.032 C 
BRANCH  19  21
HETATM   21  C   UNL     1       7.825  32.367  61.931  1.00  0.00     0.063 C 
BRANCH  21  22
HETATM   22  C   UNL     1       6.599  31.911  62.731  1.00  0.00     0.177 C 
BRANCH  22  23
HETATM   23  O   UNL     1       5.429  31.922  61.919  1.00  0.00    -0.389 OA
HETATM   24  H   UNL     1       5.018  31.044  61.998  1.00  0.00     0.210 HD
ENDBRANCH  22  23
BRANCH  22  25
HETATM   25  C   UNL     1       6.312  32.721  63.949  1.00  0.00     0.081 A 
HETATM   26  O   UNL     1       5.019  32.726  64.394  1.00  0.00    -0.324 OA
HETATM   27  C   UNL     1       4.963  33.573  65.453  1.00  0.00     0.142 A 
HETATM   28  C   UNL     1       6.205  34.098  65.717  1.00  0.00     0.027 A 
HETATM   29  C   UNL     1       7.077  33.549  64.747  1.00  0.00     0.037 A 
ENDBRANCH  22  25
ENDBRANCH  21  22
ENDBRANCH  19  21
ENDBRANCH   3  19
TORSDOF 7
ENDMDL
MODEL 4
REMARK VINA RESULT:      -8.5      4.931      8.240
REMARK  7 active torsions:
REMARK  status: ('A' for Active; 'I' for Inactive)
REMARK    1  A    between atoms: C_7  and  C_8 
REMARK    2  A    between atoms: C_8  and  N_9 
REMARK       I    between atoms: N_9  and  C_10 
REMARK       I    between atoms: C_10  and  N_11 
REMARK    3  A    between atoms: N_11  and  C_12 
REMARK    4  A    between atoms: C_12  and  C_13 
REMARK    5  A    between atoms: C_13  and  C_14 
REMARK    6  A    between atoms: C_14  and  O_15 
REMARK    7  A    between atoms: C_14  and  C_16 
ROOT
HETATM    1  N   UNL     1       6.099  24.865  53.029  1.00  0.00    -0.337 N 
HETATM    2  C   UNL     1       7.330  24.267  52.922  1.00  0.00     0.316 C 
HETATM    3  N   UNL     1       7.308  22.967  53.343  1.00  0.00    -0.339 N 
HETATM    4  O   UNL     1       8.302  24.816  52.414  1.00  0.00    -0.247 OA
HETATM    5  H   UNL     1       5.481  24.433  53.701  1.00  0.00     0.164 HD
HETATM    6  H   UNL     1       6.616  22.720  54.037  1.00  0.00     0.164 HD
ENDROOT
BRANCH   1   7
HETATM    7  C   UNL     1       5.916  26.285  52.801  1.00  0.00     0.183 C 
BRANCH   7   8
HETATM    8  C   UNL     1       5.336  26.569  51.461  1.00  0.00     0.044 A 
HETATM    9  N   UNL     1       4.633  25.618  50.736  1.00  0.00    -0.343 N 
HETATM   10  C   UNL     1       4.243  26.094  49.565  1.00  0.00     0.112 A 
HETATM   11  H   UNL     1       4.404  24.692  51.119  1.00  0.00     0.167 HD
HETATM   12  N   UNL     1       4.674  27.369  49.480  1.00  0.00    -0.311 N 
HETATM   13  C   UNL     1       3.481  25.450  48.472  1.00  0.00     0.049 A 
HETATM   14  C   UNL     1       4.429  28.166  48.363  1.00  0.00     0.014 A 
HETATM   15  C   UNL     1       5.351  27.686  50.653  1.00  0.00     0.125 A 
HETATM   16  C   UNL     1       4.913  29.583  48.302  1.00  0.00     0.068 C 
HETATM   17  C   UNL     1       3.737  27.587  47.355  1.00  0.00     0.025 A 
HETATM   18  C   UNL     1       3.250  26.212  47.390  1.00  0.00     0.006 A 
ENDBRANCH   7   8
ENDBRANCH   1   7
BRANCH   3  19
HETATM   19  C   UNL     1       8.502  22.128  53.317  1.00  0.00     0.085 C 
HETATM   20  C   UNL     1       8.129  20.711  52.896  1.00  0.00     0.032 C 
BRANCH  19  21
HETATM   21  C   UNL     1       9.334  22.213  54.616  1.00  0.00     0.063 C 
BRANCH  21  22
HETATM   22  C   UNL     1       8.605  22.155  55.964  1.00  0.00     0.177 C 
BRANCH  22  23
HETATM   23  O   UNL     1       7.416  21.377  55.866  1.00  0.00    -0.389 OA
HETATM   24  H   UNL     1       7.478  20.862  55.043  1.00  0.00     0.210 HD
ENDBRANCH  22  23
BRANCH  22  25
HETATM   25  C   UNL     1       8.234  23.482  56.530  1.00  0.00     0.081 A 
HETATM   26  O   UNL     1       7.000  23.970  56.196  1.00  0.00    -0.324 OA
HETATM   27  C   UNL     1       6.896  25.206  56.748  1.00  0.00     0.142 A 
HETATM   28  C   UNL     1       8.033  25.517  57.454  1.00  0.00     0.027 A 
HETATM   29  C   UNL     1       8.898  24.405  57.315  1.00  0.00     0.037 A 
ENDBRANCH  22  25
ENDBRANCH  21  22
ENDBRANCH  19  21
ENDBRANCH   3  19
TORSDOF 7
ENDMDL
MODEL 5
REMARK VINA RESULT:      -8.3      2.360      9.881
REMARK  7 active torsions:
REMARK  status: ('A' for Active; 'I' for Inactive)
REMARK    1  A    between atoms: C_7  and  C_8 
REMARK    2  A    between atoms: C_8  and  N_9 
REMARK       I    between atoms: N_9  and  C_10 
REMARK       I    between atoms: C_10  and  N_11 
REMARK    3  A    between atoms: N_11  and  C_12 
REMARK    4  A    between atoms: C_12  and  C_13 
REMARK    5  A    between atoms: C_13  and  C_14 
REMARK    6  A    between atoms: C_14  and  O_15 
REMARK    7  A    between atoms: C_14  and  C_16 
ROOT
HETATM    1  N   UNL     1       8.628  28.214  57.306  1.00  0.00    -0.337 N 
HETATM    2  C   UNL     1       7.547  27.780  56.580  1.00  0.00     0.316 C 
HETATM    3  N   UNL     1       7.411  26.421  56.623  1.00  0.00    -0.339 N 
HETATM    4  O   UNL     1       6.749  28.541  56.043  1.00  0.00    -0.247 OA
HETATM    5  H   UNL     1       9.343  27.515  57.449  1.00  0.00     0.164 HD
HETATM    6  H   UNL     1       8.251  25.879  56.768  1.00  0.00     0.164 HD
ENDROOT
BRANCH   1   7
HETATM    7  C   UNL     1       9.070  29.594  57.270  1.00  0.00     0.183 C 
BRANCH   7   8
HETATM    8  C   UNL     1       8.602  30.365  58.454  1.00  0.00     0.044 A 
HETATM    9  N   UNL     1       9.349  30.468  59.619  1.00  0.00    -0.343 N 
HETATM   10  C   UNL     1       8.714  31.176  60.538  1.00  0.00     0.112 A 
HETATM   11  H   UNL     1      10.300  30.088  59.699  1.00  0.00     0.167 HD
HETATM   12  N   UNL     1       7.533  31.562  60.012  1.00  0.00    -0.311 N 
HETATM   13  C   UNL     1       9.113  31.541  61.916  1.00  0.00     0.049 A 
HETATM   14  C   UNL     1       6.613  32.329  60.725  1.00  0.00     0.014 A 
HETATM   15  C   UNL     1       7.448  31.071  58.713  1.00  0.00     0.125 A 
HETATM   16  C   UNL     1       5.313  32.750  60.109  1.00  0.00     0.068 C 
HETATM   17  C   UNL     1       6.966  32.665  61.987  1.00  0.00     0.025 A 
HETATM   18  C   UNL     1       8.227  32.274  62.609  1.00  0.00     0.006 A 
ENDBRANCH   7   8
ENDBRANCH   1   7
BRANCH   3  19
HETATM   19  C   UNL     1       6.328  25.733  55.928  1.00  0.00     0.085 C 
HETATM   20  C   UNL     1       5.257  25.311  56.929  1.00  0.00     0.032 C 
BRANCH  19  21
HETATM   21  C   UNL     1       6.822  24.599  55.003  1.00  0.00     0.063 C 
BRANCH  21  22
HETATM   22  C   UNL     1       7.506  23.379  55.631  1.00  0.00     0.177 C 
BRANCH  22  23
HETATM   23  O   UNL     1       8.744  23.744  56.235  1.00  0.00    -0.389 OA
HETATM   24  H   UNL     1       8.823  23.233  57.058  1.00  0.00     0.210 HD
ENDBRANCH  22  23
BRANCH  22  25
HETATM   25  C   UNL     1       7.776  22.258  54.687  1.00  0.00     0.081 A 
HETATM   26  O   UNL     1       8.149  21.064  55.240  1.00  0.00    -0.324 OA
HETATM   27  C   UNL     1       8.416  20.215  54.215  1.00  0.00     0.142 A 
HETATM   28  C   UNL     1       8.197  20.832  53.007  1.00  0.00     0.027 A 
HETATM   29  C   UNL     1       7.784  22.151  53.309  1.00  0.00     0.037 A 
ENDBRANCH  22  25
ENDBRANCH  21  22
ENDBRANCH  19  21
ENDBRANCH   3  19
TORSDOF 7
ENDMDL
MODEL 6
REMARK VINA RESULT:      -8.3      3.093      5.512
REMARK  7 active torsions:
REMARK  status: ('A' for Active; 'I' for Inactive)
REMARK    1  A    between atoms: C_7  and  C_8 
REMARK    2  A    between atoms: C_8  and  N_9 
REMARK       I    between atoms: N_9  and  C_10 
REMARK       I    between atoms: C_10  and  N_11 
REMARK    3  A    between atoms: N_11  and  C_12 
REMARK    4  A    between atoms: C_12  and  C_13 
REMARK    5  A    between atoms: C_13  and  C_14 
REMARK    6  A    between atoms: C_14  and  O_15 
REMARK    7  A    between atoms: C_14  and  C_16 
ROOT
HETATM    1  N   UNL     1       7.368  25.842  57.882  1.00  0.00    -0.337 N 
HETATM    2  C   UNL     1       7.602  27.117  57.430  1.00  0.00     0.316 C 
HETATM    3  N   UNL     1       6.447  27.832  57.288  1.00  0.00    -0.339 N 
HETATM    4  O   UNL     1       8.728  27.577  57.272  1.00  0.00    -0.247 OA
HETATM    5  H   UNL     1       6.435  25.499  57.701  1.00  0.00     0.164 HD
HETATM    6  H   UNL     1       5.603  27.310  57.099  1.00  0.00     0.164 HD
ENDROOT
BRANCH   1   7
HETATM    7  C   UNL     1       8.421  24.848  57.948  1.00  0.00     0.183 C 
BRANCH   7   8
HETATM    8  C   UNL     1       8.363  23.892  56.809  1.00  0.00     0.044 A 
HETATM    9  N   UNL     1       8.473  22.520  56.981  1.00  0.00    -0.343 N 
HETATM   10  C   UNL     1       8.423  21.883  55.823  1.00  0.00     0.112 A 
HETATM   11  H   UNL     1       8.518  22.083  57.910  1.00  0.00     0.167 HD
HETATM   12  N   UNL     1       8.279  22.809  54.854  1.00  0.00    -0.311 N 
HETATM   13  C   UNL     1       8.504  20.436  55.518  1.00  0.00     0.049 A 
HETATM   14  C   UNL     1       8.192  22.470  53.504  1.00  0.00     0.014 A 
HETATM   15  C   UNL     1       8.233  24.066  55.448  1.00  0.00     0.125 A 
HETATM   16  C   UNL     1       8.022  23.522  52.451  1.00  0.00     0.068 C 
HETATM   17  C   UNL     1       8.269  21.151  53.213  1.00  0.00     0.025 A 
HETATM   18  C   UNL     1       8.429  20.106  54.219  1.00  0.00     0.006 A 
ENDBRANCH   7   8
ENDBRANCH   1   7
BRANCH   3  19
HETATM   19  C   UNL     1       6.449  29.216  56.825  1.00  0.00     0.085 C 
HETATM   20  C   UNL     1       5.903  30.129  57.918  1.00  0.00     0.032 C 
BRANCH  19  21
HETATM   21  C   UNL     1       5.778  29.397  55.445  1.00  0.00     0.063 C 
BRANCH  21  22
HETATM   22  C   UNL     1       4.499  28.611  55.137  1.00  0.00     0.177 C 
BRANCH  22  23
HETATM   23  O   UNL     1       3.845  28.215  56.339  1.00  0.00    -0.389 OA
HETATM   24  H   UNL     1       3.631  29.027  56.830  1.00  0.00     0.210 HD
ENDBRANCH  22  23
BRANCH  22  25
HETATM   25  C   UNL     1       4.700  27.390  54.308  1.00  0.00     0.081 A 
HETATM   26  O   UNL     1       5.175  26.280  54.951  1.00  0.00    -0.324 OA
HETATM   27  C   UNL     1       5.355  25.318  54.010  1.00  0.00     0.142 A 
HETATM   28  C   UNL     1       4.981  25.780  52.771  1.00  0.00     0.027 A 
HETATM   29  C   UNL     1       4.558  27.117  52.961  1.00  0.00     0.037 A 
ENDBRANCH  22  25
ENDBRANCH  21  22
ENDBRANCH  19  21
ENDBRANCH   3  19
TORSDOF 7
ENDMDL
MODEL 7
REMARK VINA RESULT:      -8.2      2.823     10.227
REMARK  7 active torsions:
REMARK  status: ('A' for Active; 'I' for Inactive)
REMARK    1  A    between atoms: C_7  and  C_8 
REMARK    2  A    between atoms: C_8  and  N_9 
REMARK       I    between atoms: N_9  and  C_10 
REMARK       I    between atoms: C_10  and  N_11 
REMARK    3  A    between atoms: N_11  and  C_12 
REMARK    4  A    between atoms: C_12  and  C_13 
REMARK    5  A    between atoms: C_13  and  C_14 
REMARK    6  A    between atoms: C_14  and  O_15 
REMARK    7  A    between atoms: C_14  and  C_16 
ROOT
HETATM    1  N   UNL     1       7.421  30.079  58.903  1.00  0.00    -0.337 N 
HETATM    2  C   UNL     1       7.653  29.051  58.023  1.00  0.00     0.316 C 
HETATM    3  N   UNL     1       6.534  28.721  57.312  1.00  0.00    -0.339 N 
HETATM    4  O   UNL     1       8.763  28.564  57.837  1.00  0.00    -0.247 OA
HETATM    5  H   UNL     1       6.453  30.192  59.168  1.00  0.00     0.164 HD
HETATM    6  H   UNL     1       5.642  28.902  57.750  1.00  0.00     0.164 HD
ENDROOT
BRANCH   1   7
HETATM    7  C   UNL     1       8.411  30.488  59.881  1.00  0.00     0.183 C 
BRANCH   7   8
HETATM    8  C   UNL     1       7.874  31.492  60.838  1.00  0.00     0.044 A 
HETATM    9  N   UNL     1       8.333  31.598  62.143  1.00  0.00    -0.343 N 
HETATM   10  C   UNL     1       7.684  32.540  62.807  1.00  0.00     0.112 A 
HETATM   11  H   UNL     1       9.124  31.045  62.495  1.00  0.00     0.167 HD
HETATM   12  N   UNL     1       6.781  33.084  61.966  1.00  0.00    -0.311 N 
HETATM   13  C   UNL     1       7.826  32.999  64.208  1.00  0.00     0.049 A 
HETATM   14  C   UNL     1       5.926  34.114  62.354  1.00  0.00     0.014 A 
HETATM   15  C   UNL     1       6.888  32.449  60.733  1.00  0.00     0.125 A 
HETATM   16  C   UNL     1       4.939  34.705  61.393  1.00  0.00     0.068 C 
HETATM   17  C   UNL     1       6.043  34.539  63.633  1.00  0.00     0.025 A 
HETATM   18  C   UNL     1       6.998  33.986  64.588  1.00  0.00     0.006 A 
ENDBRANCH   7   8
ENDBRANCH   1   7
BRANCH   3  19
HETATM   19  C   UNL     1       6.543  27.658  56.312  1.00  0.00     0.085 C 
HETATM   20  C   UNL     1       6.055  28.203  54.974  1.00  0.00     0.032 C 
BRANCH  19  21
HETATM   21  C   UNL     1       5.822  26.375  56.782  1.00  0.00     0.063 C 
BRANCH  21  22
HETATM   22  C   UNL     1       6.658  25.229  57.363  1.00  0.00     0.177 C 
BRANCH  22  23
HETATM   23  O   UNL     1       7.680  25.730  58.220  1.00  0.00    -0.389 OA
HETATM   24  H   UNL     1       8.335  25.019  58.330  1.00  0.00     0.210 HD
ENDBRANCH  22  23
BRANCH  22  25
HETATM   25  C   UNL     1       7.308  24.353  56.348  1.00  0.00     0.081 A 
HETATM   26  O   UNL     1       8.334  23.561  56.785  1.00  0.00    -0.324 OA
HETATM   27  C   UNL     1       8.826  22.909  55.701  1.00  0.00     0.142 A 
HETATM   28  C   UNL     1       8.119  23.247  54.572  1.00  0.00     0.027 A 
HETATM   29  C   UNL     1       7.139  24.179  54.987  1.00  0.00     0.037 A 
ENDBRANCH  22  25
ENDBRANCH  21  22
ENDBRANCH  19  21
ENDBRANCH   3  19
TORSDOF 7
ENDMDL
MODEL 8
REMARK VINA RESULT:      -8.2      2.366      3.739
REMARK  7 active torsions:
REMARK  status: ('A' for Active; 'I' for Inactive)
REMARK    1  A    between atoms: C_7  and  C_8 
REMARK    2  A    between atoms: C_8  and  N_9 
REMARK       I    between atoms: N_9  and  C_10 
REMARK       I    between atoms: C_10  and  N_11 
REMARK    3  A    between atoms: N_11  and  C_12 
REMARK    4  A    between atoms: C_12  and  C_13 
REMARK    5  A    between atoms: C_13  and  C_14 
REMARK    6  A    between atoms: C_14  and  O_15 
REMARK    7  A    between atoms: C_14  and  C_16 
ROOT
HETATM    1  N   UNL     1       5.506  26.123  55.535  1.00  0.00    -0.337 N 
HETATM    2  C   UNL     1       5.589  27.480  55.717  1.00  0.00     0.316 C 
HETATM    3  N   UNL     1       4.962  27.885  56.861  1.00  0.00    -0.339 N 
HETATM    4  O   UNL     1       6.238  28.218  54.983  1.00  0.00    -0.247 OA
HETATM    5  H   UNL     1       4.737  25.682  56.018  1.00  0.00     0.164 HD
HETATM    6  H   UNL     1       4.196  27.314  57.192  1.00  0.00     0.164 HD
ENDROOT
BRANCH   1   7
HETATM    7  C   UNL     1       5.951  25.486  54.310  1.00  0.00     0.183 C 
BRANCH   7   8
HETATM    8  C   UNL     1       6.642  24.194  54.568  1.00  0.00     0.044 A 
HETATM    9  N   UNL     1       7.047  23.805  55.836  1.00  0.00    -0.343 N 
HETATM   10  C   UNL     1       7.664  22.635  55.808  1.00  0.00     0.112 A 
HETATM   11  H   UNL     1       6.820  24.349  56.678  1.00  0.00     0.167 HD
HETATM   12  N   UNL     1       7.685  22.216  54.527  1.00  0.00    -0.311 N 
HETATM   13  C   UNL     1       8.264  21.839  56.903  1.00  0.00     0.049 A 
HETATM   14  C   UNL     1       8.267  21.008  54.145  1.00  0.00     0.014 A 
HETATM   15  C   UNL     1       7.048  23.170  53.739  1.00  0.00     0.125 A 
HETATM   16  C   UNL     1       8.266  20.565  52.714  1.00  0.00     0.068 C 
HETATM   17  C   UNL     1       8.823  20.274  55.137  1.00  0.00     0.025 A 
HETATM   18  C   UNL     1       8.833  20.678  56.539  1.00  0.00     0.006 A 
ENDBRANCH   7   8
ENDBRANCH   1   7
BRANCH   3  19
HETATM   19  C   UNL     1       4.924  29.287  57.265  1.00  0.00     0.085 C 
HETATM   20  C   UNL     1       3.799  30.007  56.528  1.00  0.00     0.032 C 
BRANCH  19  21
HETATM   21  C   UNL     1       6.299  29.984  57.174  1.00  0.00     0.063 C 
BRANCH  21  22
HETATM   22  C   UNL     1       7.354  29.678  58.243  1.00  0.00     0.177 C 
BRANCH  22  23
HETATM   23  O   UNL     1       7.245  30.583  59.338  1.00  0.00    -0.389 OA
HETATM   24  H   UNL     1       7.434  30.077  60.147  1.00  0.00     0.210 HD
ENDBRANCH  22  23
BRANCH  22  25
HETATM   25  C   UNL     1       8.763  29.718  57.760  1.00  0.00     0.081 A 
HETATM   26  O   UNL     1       9.490  30.833  58.076  1.00  0.00    -0.324 OA
HETATM   27  C   UNL     1      10.705  30.700  57.484  1.00  0.00     0.142 A 
HETATM   28  C   UNL     1      10.784  29.506  56.809  1.00  0.00     0.027 A 
HETATM   29  C   UNL     1       9.532  28.871  56.986  1.00  0.00     0.037 A 
ENDBRANCH  22  25
ENDBRANCH  21  22
ENDBRANCH  19  21
ENDBRANCH   3  19
TORSDOF 7
ENDMDL
MODEL 9
REMARK VINA RESULT:      -8.2      1.619      2.554
REMARK  7 active torsions:
REMARK  status: ('A' for Active; 'I' for Inactive)
REMARK    1  A    between atoms: C_7  and  C_8 
REMARK    2  A    between atoms: C_8  and  N_9 
REMARK       I    between atoms: N_9  and  C_10 
REMARK       I    between atoms: C_10  and  N_11 
REMARK    3  A    between atoms: N_11  and  C_12 
REMARK    4  A    between atoms: C_12  and  C_13 
REMARK    5  A    between atoms: C_13  and  C_14 
REMARK    6  A    between atoms: C_14  and  O_15 
REMARK    7  A    between atoms: C_14  and  C_16 
ROOT
HETATM    1  N   UNL     1       7.277  27.753  57.711  1.00  0.00    -0.337 N 
HETATM    2  C   UNL     1       7.941  28.846  57.214  1.00  0.00     0.316 C 
HETATM    3  N   UNL     1       8.839  29.353  58.110  1.00  0.00    -0.339 N 
HETATM    4  O   UNL     1       7.806  29.248  56.063  1.00  0.00    -0.247 OA
HETATM    5  H   UNL     1       7.256  27.699  58.719  1.00  0.00     0.164 HD
HETATM    6  H   UNL     1       8.643  29.207  59.090  1.00  0.00     0.164 HD
ENDROOT
BRANCH   1   7
HETATM    7  C   UNL     1       6.161  27.150  57.008  1.00  0.00     0.183 C 
BRANCH   7   8
HETATM    8  C   UNL     1       6.593  26.046  56.109  1.00  0.00     0.044 A 
HETATM    9  N   UNL     1       6.768  24.745  56.558  1.00  0.00    -0.343 N 
HETATM   10  C   UNL     1       7.184  23.951  55.585  1.00  0.00     0.112 A 
HETATM   11  H   UNL     1       6.530  24.456  57.514  1.00  0.00     0.167 HD
HETATM   12  N   UNL     1       7.296  24.699  54.468  1.00  0.00    -0.311 N 
HETATM   13  C   UNL     1       7.504  22.506  55.595  1.00  0.00     0.049 A 
HETATM   14  C   UNL     1       7.716  24.164  53.250  1.00  0.00     0.014 A 
HETATM   15  C   UNL     1       6.927  26.005  54.772  1.00  0.00     0.125 A 
HETATM   16  C   UNL     1       7.821  25.019  52.025  1.00  0.00     0.068 C 
HETATM   17  C   UNL     1       8.015  22.845  53.249  1.00  0.00     0.025 A 
HETATM   18  C   UNL     1       7.917  21.988  54.426  1.00  0.00     0.006 A 
ENDBRANCH   7   8
ENDBRANCH   1   7
BRANCH   3  19
HETATM   19  C   UNL     1       9.666  30.515  57.799  1.00  0.00     0.085 C 
HETATM   20  C   UNL     1      11.013  30.059  57.248  1.00  0.00     0.032 C 
BRANCH  19  21
HETATM   21  C   UNL     1       9.759  31.525  58.964  1.00  0.00     0.063 C 
BRANCH  21  22
HETATM   22  C   UNL     1       8.772  31.400  60.130  1.00  0.00     0.177 C 
BRANCH  22  23
HETATM   23  O   UNL     1       8.681  30.050  60.577  1.00  0.00    -0.389 OA
HETATM   24  H   UNL     1       7.801  29.939  60.976  1.00  0.00     0.210 HD
ENDBRANCH  22  23
BRANCH  22  25
HETATM   25  C   UNL     1       7.391  31.873  59.832  1.00  0.00     0.081 A 
HETATM   26  O   UNL     1       7.038  31.951  58.513  1.00  0.00    -0.324 OA
HETATM   27  C   UNL     1       5.784  32.468  58.464  1.00  0.00     0.142 A 
HETATM   28  C   UNL     1       5.309  32.704  59.732  1.00  0.00     0.027 A 
HETATM   29  C   UNL     1       6.345  32.320  60.616  1.00  0.00     0.037 A 
ENDBRANCH  22  25
ENDBRANCH  21  22
ENDBRANCH  19  21
ENDBRANCH   3  19
TORSDOF 7
ENDMDL
MODEL 10
REMARK VINA RESULT:      -8.1      2.330      3.488
REMARK  7 active torsions:
REMARK  status: ('A' for Active; 'I' for Inactive)
REMARK    1  A    between atoms: C_7  and  C_8 
REMARK    2  A    between atoms: C_8  and  N_9 
REMARK       I    between atoms: N_9  and  C_10 
REMARK       I    between atoms: C_10  and  N_11 
REMARK    3  A    between atoms: N_11  and  C_12 
REMARK    4  A    between atoms: C_12  and  C_13 
REMARK    5  A    between atoms: C_13  and  C_14 
REMARK    6  A    between atoms: C_14  and  O_15 
REMARK    7  A    between atoms: C_14  and  C_16 
ROOT
HETATM    1  N   UNL     1       6.812  28.407  53.949  1.00  0.00    -0.337 N 
HETATM    2  C   UNL     1       5.966  28.872  54.925  1.00  0.00     0.316 C 
HETATM    3  N   UNL     1       6.560  29.818  55.713  1.00  0.00    -0.339 N 
HETATM    4  O   UNL     1       4.787  28.542  55.006  1.00  0.00    -0.247 OA
HETATM    5  H   UNL     1       7.793  28.526  54.156  1.00  0.00     0.164 HD
HETATM    6  H   UNL     1       7.565  29.770  55.809  1.00  0.00     0.164 HD
ENDROOT
BRANCH   1   7
HETATM    7  C   UNL     1       6.459  27.283  53.103  1.00  0.00     0.183 C 
BRANCH   7   8
HETATM    8  C   UNL     1       7.065  26.010  53.579  1.00  0.00     0.044 A 
HETATM    9  N   UNL     1       7.175  24.889  52.770  1.00  0.00    -0.343 N 
HETATM   10  C   UNL     1       7.717  23.874  53.423  1.00  0.00     0.112 A 
HETATM   11  H   UNL     1       6.920  24.901  51.775  1.00  0.00     0.167 HD
HETATM   12  N   UNL     1       7.982  24.292  54.678  1.00  0.00    -0.311 N 
HETATM   13  C   UNL     1       8.021  22.496  52.976  1.00  0.00     0.049 A 
HETATM   14  C   UNL     1       8.561  23.460  55.635  1.00  0.00     0.014 A 
HETATM   15  C   UNL     1       7.589  25.621  54.793  1.00  0.00     0.125 A 
HETATM   16  C   UNL     1       8.853  23.956  57.018  1.00  0.00     0.068 C 
HETATM   17  C   UNL     1       8.840  22.197  55.238  1.00  0.00     0.025 A 
HETATM   18  C   UNL     1       8.572  21.689  53.896  1.00  0.00     0.006 A 
ENDBRANCH   7   8
ENDBRANCH   1   7
BRANCH   3  19
HETATM   19  C   UNL     1       5.850  30.460  56.814  1.00  0.00     0.085 C 
HETATM   20  C   UNL     1       5.044  31.644  56.290  1.00  0.00     0.032 C 
BRANCH  19  21
HETATM   21  C   UNL     1       6.762  30.788  58.017  1.00  0.00     0.063 C 
BRANCH  21  22
HETATM   22  C   UNL     1       7.729  29.712  58.525  1.00  0.00     0.177 C 
BRANCH  22  23
HETATM   23  O   UNL     1       7.923  29.825  59.931  1.00  0.00    -0.389 OA
HETATM   24  H   UNL     1       7.140  29.440  60.360  1.00  0.00     0.210 HD
ENDBRANCH  22  23
BRANCH  22  25
HETATM   25  C   UNL     1       9.072  29.725  57.879  1.00  0.00     0.081 A 
HETATM   26  O   UNL     1       9.864  30.812  58.128  1.00  0.00    -0.324 OA
HETATM   27  C   UNL     1      10.996  30.660  57.394  1.00  0.00     0.142 A 
HETATM   28  C   UNL     1      10.960  29.479  56.693  1.00  0.00     0.027 A 
HETATM   29  C   UNL     1       9.720  28.874  57.004  1.00  0.00     0.037 A 
ENDBRANCH  22  25
ENDBRANCH  21  22
ENDBRANCH  19  21
ENDBRANCH   3  19
TORSDOF 7
ENDMDL
