MODEL 1
REMARK VINA RESULT:      -9.6      0.000      0.000
REMARK  8 active torsions:
REMARK  status: ('A' for Active; 'I' for Inactive)
REMARK    1  A    between atoms: C_7  and  C_8 
REMARK    2  A    between atoms: C_10  and  O_11 
REMARK    3  A    between atoms: C_13  and  O_14 
REMARK    4  A    between atoms: O_14  and  C_15 
REMARK    5  A    between atoms: C_15  and  C_16 
REMARK       I    between atoms: C_16  and  N_17 
REMARK    6  A    between atoms: C_21  and  C_22 
REMARK       I    between atoms: C_22  and  N_23 
REMARK    7  A    between atoms: N_23  and  C_24 
REMARK    8  A    between atoms: C_24  and  C_25 
ROOT
HETATM    1  C   UNL     1       4.584  24.819  53.130  1.00  0.00     0.069 C 
HETATM    2  C   UNL     1       4.974  26.256  53.315  1.00  0.00     0.024 C 
HETATM    3  N   UNL     1       3.957  27.168  53.131  1.00  0.00    -0.312 N 
HETATM    4  C   UNL     1       4.117  28.519  53.049  1.00  0.00     0.321 C 
HETATM    5  O   UNL     1       3.171  29.269  52.837  1.00  0.00    -0.247 OA
HETATM    6  N   UNL     1       5.382  28.985  53.186  1.00  0.00    -0.330 N 
HETATM    7  C   UNL     1       6.504  28.198  53.665  1.00  0.00     0.160 C 
HETATM    8  C   UNL     1       6.208  26.725  53.584  1.00  0.00     0.059 C 
HETATM    9  H   UNL     1       3.016  26.849  52.938  1.00  0.00     0.170 HD
HETATM   10  H   UNL     1       5.475  29.991  53.148  1.00  0.00     0.165 HD
ENDROOT
BRANCH   7  11
HETATM   11  C   UNL     1       6.873  28.654  55.071  1.00  0.00    -0.028 A 
HETATM   12  C   UNL     1       8.206  28.625  55.523  1.00  0.00     0.049 A 
HETATM   13  C   UNL     1       8.553  29.001  56.831  1.00  0.00     0.102 A 
HETATM   14  C   UNL     1       7.545  29.456  57.696  1.00  0.00     0.102 A 
HETATM   15  C   UNL     1       6.217  29.489  57.246  1.00  0.00     0.040 A 
HETATM   16  C   UNL     1       5.880  29.097  55.950  1.00  0.00     0.012 A 
BRANCH  13  17
HETATM   17  O   UNL     1       9.839  28.948  57.295  1.00  0.00    -0.353 OA
HETATM   18  C   UNL     1      10.811  29.766  56.651  1.00  0.00     0.210 C 
ENDBRANCH  13  17
BRANCH  14  19
HETATM   19  O   UNL     1       7.664  29.860  59.001  1.00  0.00    -0.339 OA
BRANCH  19  20
HETATM   20  C   UNL     1       7.631  31.256  59.282  1.00  0.00     0.278 C 
BRANCH  20  21
HETATM   21  C   UNL     1       9.033  31.749  59.638  1.00  0.00     0.239 C 
HETATM   22  N   UNL     1       9.461  31.455  60.902  1.00  0.00    -0.368 N 
HETATM   23  H   UNL     1       8.794  31.137  61.595  1.00  0.00     0.159 HD
HETATM   24  H   UNL     1      10.356  31.818  61.199  1.00  0.00     0.159 HD
HETATM   25  O   UNL     1       9.769  32.325  58.843  1.00  0.00    -0.271 OA
ENDBRANCH  20  21
ENDBRANCH  19  20
ENDBRANCH  14  19
ENDBRANCH   7  11
BRANCH   8  26
HETATM   26  C   UNL     1       7.400  25.851  53.725  1.00  0.00     0.252 C 
HETATM   27  N   UNL     1       7.401  25.046  54.835  1.00  0.00    -0.353 N 
HETATM   28  H   UNL     1       6.742  25.229  55.579  1.00  0.00     0.163 HD
HETATM   29  O   UNL     1       8.322  25.920  52.921  1.00  0.00    -0.268 OA
BRANCH  27  30
HETATM   30  C   UNL     1       8.541  24.204  55.126  1.00  0.00     0.161 C 
BRANCH  30  31
HETATM   31  C   UNL     1       8.388  22.780  54.648  1.00  0.00    -0.041 A 
HETATM   32  C   UNL     1       8.109  22.456  53.312  1.00  0.00     0.009 A 
HETATM   33  C   UNL     1       8.031  21.122  52.900  1.00  0.00     0.001 A 
HETATM   34  C   UNL     1       8.256  20.095  53.812  1.00  0.00     0.000 A 
HETATM   35  C   UNL     1       8.557  20.399  55.137  1.00  0.00     0.001 A 
HETATM   36  C   UNL     1       8.625  21.731  55.551  1.00  0.00     0.009 A 
ENDBRANCH  30  31
ENDBRANCH  27  30
ENDBRANCH   8  26
TORSDOF 8
ENDMDL
MODEL 2
REMARK VINA RESULT:      -9.4      2.735      6.332
REMARK  8 active torsions:
REMARK  status: ('A' for Active; 'I' for Inactive)
REMARK    1  A    between atoms: C_7  and  C_8 
REMARK    2  A    between atoms: C_10  and  O_11 
REMARK    3  A    between atoms: C_13  and  O_14 
REMARK    4  A    between atoms: O_14  and  C_15 
REMARK    5  A    between atoms: C_15  and  C_16 
REMARK       I    between atoms: C_16  and  N_17 
REMARK    6  A    between atoms: C_21  and  C_22 
REMARK       I    between atoms: C_22  and  N_23 
REMARK    7  A    between atoms: N_23  and  C_24 
REMARK    8  A    between atoms: C_24  and  C_25 
ROOT
HETATM    1  C   UNL     1       7.963  28.853  58.065  1.00  0.00     0.069 C 
HETATM    2  C   UNL     1       6.741  28.412  57.312  1.00  0.00     0.024 C 
HETATM    3  N   UNL     1       5.707  29.323  57.290  1.00  0.00    -0.312 N 
HETATM    4  C   UNL     1       4.443  29.068  56.847  1.00  0.00     0.321 C 
HETATM    5  O   UNL     1       3.558  29.914  56.899  1.00  0.00    -0.247 OA
HETATM    6  N   UNL     1       4.212  27.820  56.372  1.00  0.00    -0.330 N 
HETATM    7  C   UNL     1       5.248  26.850  56.063  1.00  0.00     0.160 C 
HETATM    8  C   UNL     1       6.550  27.217  56.720  1.00  0.00     0.059 C 
HETATM    9  H   UNL     1       5.821  30.234  57.716  1.00  0.00     0.170 HD
HETATM   10  H   UNL     1       3.277  27.659  56.025  1.00  0.00     0.165 HD
ENDROOT
BRANCH   7  11
HETATM   11  C   UNL     1       5.364  26.704  54.551  1.00  0.00    -0.028 A 
HETATM   12  C   UNL     1       5.673  27.807  53.732  1.00  0.00     0.049 A 
HETATM   13  C   UNL     1       5.739  27.696  52.334  1.00  0.00     0.102 A 
HETATM   14  C   UNL     1       5.529  26.439  51.743  1.00  0.00     0.102 A 
HETATM   15  C   UNL     1       5.224  25.339  52.557  1.00  0.00     0.040 A 
HETATM   16  C   UNL     1       5.144  25.464  53.945  1.00  0.00     0.012 A 
BRANCH  13  17
HETATM   17  O   UNL     1       6.008  28.764  51.522  1.00  0.00    -0.353 OA
HETATM   18  C   UNL     1       5.061  29.827  51.488  1.00  0.00     0.210 C 
ENDBRANCH  13  17
BRANCH  14  19
HETATM   19  O   UNL     1       5.541  26.116  50.410  1.00  0.00    -0.339 OA
BRANCH  19  20
HETATM   20  C   UNL     1       4.478  26.594  49.590  1.00  0.00     0.278 C 
BRANCH  20  21
HETATM   21  C   UNL     1       5.038  27.126  48.272  1.00  0.00     0.239 C 
HETATM   22  N   UNL     1       5.806  28.253  48.365  1.00  0.00    -0.368 N 
HETATM   23  H   UNL     1       5.795  28.795  49.222  1.00  0.00     0.159 HD
HETATM   24  H   UNL     1       6.141  28.674  47.511  1.00  0.00     0.159 HD
HETATM   25  O   UNL     1       4.871  26.568  47.192  1.00  0.00    -0.271 OA
ENDBRANCH  20  21
ENDBRANCH  19  20
ENDBRANCH  14  19
ENDBRANCH   7  11
BRANCH   8  26
HETATM   26  C   UNL     1       7.555  26.125  56.744  1.00  0.00     0.252 C 
HETATM   27  N   UNL     1       7.035  24.857  56.773  1.00  0.00    -0.353 N 
HETATM   28  H   UNL     1       6.055  24.729  56.988  1.00  0.00     0.163 HD
HETATM   29  O   UNL     1       8.752  26.382  56.798  1.00  0.00    -0.268 OA
BRANCH  27  30
HETATM   30  C   UNL     1       7.909  23.710  56.876  1.00  0.00     0.161 C 
BRANCH  30  31
HETATM   31  C   UNL     1       7.966  22.869  55.622  1.00  0.00    -0.041 A 
HETATM   32  C   UNL     1       7.798  21.476  55.637  1.00  0.00     0.009 A 
HETATM   33  C   UNL     1       7.801  20.743  54.447  1.00  0.00     0.001 A 
HETATM   34  C   UNL     1       7.946  21.394  53.225  1.00  0.00     0.000 A 
HETATM   35  C   UNL     1       8.089  22.778  53.190  1.00  0.00     0.001 A 
HETATM   36  C   UNL     1       8.097  23.511  54.380  1.00  0.00     0.009 A 
ENDBRANCH  30  31
ENDBRANCH  27  30
ENDBRANCH   8  26
TORSDOF 8
ENDMDL
MODEL 3
REMARK VINA RESULT:      -9.1      2.360      2.908
REMARK  8 active torsions:
REMARK  status: ('A' for Active; 'I' for Inactive)
REMARK    1  A    between atoms: C_7  and  C_8 
REMARK    2  A    between atoms: C_10  and  O_11 
REMARK    3  A    between atoms: C_13  and  O_14 
REMARK    4  A    between atoms: O_14  and  C_15 
REMARK    5  A    between atoms: C_15  and  C_16 
REMARK       I    between atoms: C_16  and  N_17 
REMARK    6  A    between atoms: C_21  and  C_22 
REMARK       I    between atoms: C_22  and  N_23 
REMARK    7  A    between atoms: N_23  and  C_24 
REMARK    8  A    between atoms: C_24  and  C_25 
ROOT
HETATM    1  C   UNL     1       4.619  24.740  52.505  1.00  0.00     0.069 C 
HETATM    2  C   UNL     1       5.116  26.130  52.774  1.00  0.00     0.024 C 
HETATM    3  N   UNL     1       4.746  27.075  51.842  1.00  0.00    -0.312 N 
HETATM    4  C   UNL     1       5.239  28.343  51.768  1.00  0.00     0.321 C 
HETATM    5  O   UNL     1       4.898  29.118  50.882  1.00  0.00    -0.247 OA
HETATM    6  N   UNL     1       6.148  28.692  52.711  1.00  0.00    -0.330 N 
HETATM    7  C   UNL     1       6.424  27.925  53.913  1.00  0.00     0.160 C 
HETATM    8  C   UNL     1       5.916  26.515  53.787  1.00  0.00     0.059 C 
HETATM    9  H   UNL     1       4.137  26.821  51.073  1.00  0.00     0.170 HD
HETATM   10  H   UNL     1       6.481  29.644  52.655  1.00  0.00     0.165 HD
ENDROOT
BRANCH   7  11
HETATM   11  C   UNL     1       5.851  28.660  55.119  1.00  0.00    -0.028 A 
HETATM   12  C   UNL     1       6.691  29.270  56.070  1.00  0.00     0.049 A 
HETATM   13  C   UNL     1       6.177  29.911  57.209  1.00  0.00     0.102 A 
HETATM   14  C   UNL     1       4.784  29.978  57.379  1.00  0.00     0.102 A 
HETATM   15  C   UNL     1       3.946  29.374  56.431  1.00  0.00     0.040 A 
HETATM   16  C   UNL     1       4.468  28.724  55.311  1.00  0.00     0.012 A 
BRANCH  13  17
HETATM   17  O   UNL     1       6.980  30.482  58.159  1.00  0.00    -0.353 OA
HETATM   18  C   UNL     1       8.076  29.715  58.648  1.00  0.00     0.210 C 
ENDBRANCH  13  17
BRANCH  14  19
HETATM   19  O   UNL     1       4.081  30.544  58.411  1.00  0.00    -0.339 OA
BRANCH  19  20
HETATM   20  C   UNL     1       3.886  31.955  58.401  1.00  0.00     0.278 C 
BRANCH  20  21
HETATM   21  C   UNL     1       3.143  32.387  59.665  1.00  0.00     0.239 C 
HETATM   22  N   UNL     1       3.134  31.479  60.687  1.00  0.00    -0.368 N 
HETATM   23  H   UNL     1       3.409  30.521  60.506  1.00  0.00     0.159 HD
HETATM   24  H   UNL     1       2.600  31.698  61.515  1.00  0.00     0.159 HD
HETATM   25  O   UNL     1       2.626  33.491  59.801  1.00  0.00    -0.271 OA
ENDBRANCH  20  21
ENDBRANCH  19  20
ENDBRANCH  14  19
ENDBRANCH   7  11
BRANCH   8  26
HETATM   26  C   UNL     1       6.447  25.578  54.809  1.00  0.00     0.252 C 
HETATM   27  N   UNL     1       7.715  25.116  54.570  1.00  0.00    -0.353 N 
HETATM   28  H   UNL     1       8.126  25.249  53.655  1.00  0.00     0.163 HD
HETATM   29  O   UNL     1       5.747  25.218  55.748  1.00  0.00    -0.268 OA
BRANCH  27  30
HETATM   30  C   UNL     1       8.316  24.139  55.451  1.00  0.00     0.161 C 
BRANCH  30  31
HETATM   31  C   UNL     1       8.358  22.742  54.877  1.00  0.00    -0.041 A 
HETATM   32  C   UNL     1       8.557  21.603  55.672  1.00  0.00     0.009 A 
HETATM   33  C   UNL     1       8.532  20.324  55.108  1.00  0.00     0.001 A 
HETATM   34  C   UNL     1       8.283  20.165  53.748  1.00  0.00     0.000 A 
HETATM   35  C   UNL     1       8.059  21.283  52.948  1.00  0.00     0.001 A 
HETATM   36  C   UNL     1       8.094  22.562  53.510  1.00  0.00     0.009 A 
ENDBRANCH  30  31
ENDBRANCH  27  30
ENDBRANCH   8  26
TORSDOF 8
ENDMDL
MODEL 4
REMARK VINA RESULT:      -9.0      3.038      7.172
REMARK  8 active torsions:
REMARK  status: ('A' for Active; 'I' for Inactive)
REMARK    1  A    between atoms: C_7  and  C_8 
REMARK    2  A    between atoms: C_10  and  O_11 
REMARK    3  A    between atoms: C_13  and  O_14 
REMARK    4  A    between atoms: O_14  and  C_15 
REMARK    5  A    between atoms: C_15  and  C_16 
REMARK       I    between atoms: C_16  and  N_17 
REMARK    6  A    between atoms: C_21  and  C_22 
REMARK       I    between atoms: C_22  and  N_23 
REMARK    7  A    between atoms: N_23  and  C_24 
REMARK    8  A    between atoms: C_24  and  C_25 
ROOT
HETATM    1  C   UNL     1       5.552  30.058  51.331  1.00  0.00     0.069 C 
HETATM    2  C   UNL     1       5.305  28.577  51.312  1.00  0.00     0.024 C 
HETATM    3  N   UNL     1       5.251  28.009  50.058  1.00  0.00    -0.312 N 
HETATM    4  C   UNL     1       4.843  26.737  49.788  1.00  0.00     0.321 C 
HETATM    5  O   UNL     1       4.775  26.310  48.641  1.00  0.00    -0.247 OA
HETATM    6  N   UNL     1       4.491  25.978  50.854  1.00  0.00    -0.330 N 
HETATM    7  C   UNL     1       4.761  26.324  52.238  1.00  0.00     0.160 C 
HETATM    8  C   UNL     1       5.084  27.786  52.380  1.00  0.00     0.059 C 
HETATM    9  H   UNL     1       5.423  28.573  49.235  1.00  0.00     0.170 HD
HETATM   10  H   UNL     1       4.216  25.031  50.635  1.00  0.00     0.165 HD
ENDROOT
BRANCH   7  11
HETATM   11  C   UNL     1       5.862  25.417  52.775  1.00  0.00    -0.028 A 
HETATM   12  C   UNL     1       5.816  24.910  54.088  1.00  0.00     0.049 A 
HETATM   13  C   UNL     1       6.845  24.110  54.610  1.00  0.00     0.102 A 
HETATM   14  C   UNL     1       7.930  23.776  53.782  1.00  0.00     0.102 A 
HETATM   15  C   UNL     1       7.976  24.278  52.474  1.00  0.00     0.040 A 
HETATM   16  C   UNL     1       6.956  25.086  51.970  1.00  0.00     0.012 A 
BRANCH  13  17
HETATM   17  O   UNL     1       6.831  23.635  55.893  1.00  0.00    -0.353 OA
HETATM   18  C   UNL     1       7.364  24.470  56.916  1.00  0.00     0.210 C 
ENDBRANCH  13  17
BRANCH  14  19
HETATM   19  O   UNL     1       9.033  23.022  54.091  1.00  0.00    -0.339 OA
BRANCH  19  20
HETATM   20  C   UNL     1       9.091  21.682  53.610  1.00  0.00     0.278 C 
BRANCH  20  21
HETATM   21  C   UNL     1       8.929  20.704  54.773  1.00  0.00     0.239 C 
HETATM   22  N   UNL     1       8.957  21.258  56.022  1.00  0.00    -0.368 N 
HETATM   23  H   UNL     1       9.289  22.208  56.140  1.00  0.00     0.159 HD
HETATM   24  H   UNL     1       8.918  20.640  56.819  1.00  0.00     0.159 HD
HETATM   25  O   UNL     1       8.731  19.502  54.623  1.00  0.00    -0.271 OA
ENDBRANCH  20  21
ENDBRANCH  19  20
ENDBRANCH  14  19
ENDBRANCH   7  11
BRANCH   8  26
HETATM   26  C   UNL     1       5.038  28.293  53.774  1.00  0.00     0.252 C 
HETATM   27  N   UNL     1       6.258  28.425  54.385  1.00  0.00    -0.353 N 
HETATM   28  H   UNL     1       7.070  27.991  53.967  1.00  0.00     0.163 HD
HETATM   29  O   UNL     1       3.964  28.505  54.325  1.00  0.00    -0.268 OA
BRANCH  27  30
HETATM   30  C   UNL     1       6.343  28.837  55.769  1.00  0.00     0.161 C 
BRANCH  30  31
HETATM   31  C   UNL     1       7.746  29.157  56.227  1.00  0.00    -0.041 A 
HETATM   32  C   UNL     1       8.843  29.175  55.352  1.00  0.00     0.009 A 
HETATM   33  C   UNL     1      10.115  29.532  55.807  1.00  0.00     0.001 A 
HETATM   34  C   UNL     1      10.304  29.901  57.136  1.00  0.00     0.000 A 
HETATM   35  C   UNL     1       9.223  29.912  58.012  1.00  0.00     0.001 A 
HETATM   36  C   UNL     1       7.953  29.545  57.561  1.00  0.00     0.009 A 
ENDBRANCH  30  31
ENDBRANCH  27  30
ENDBRANCH   8  26
TORSDOF 8
ENDMDL
MODEL 5
REMARK VINA RESULT:      -8.8      2.684      5.360
REMARK  8 active torsions:
REMARK  status: ('A' for Active; 'I' for Inactive)
REMARK    1  A    between atoms: C_7  and  C_8 
REMARK    2  A    between atoms: C_10  and  O_11 
REMARK    3  A    between atoms: C_13  and  O_14 
REMARK    4  A    between atoms: O_14  and  C_15 
REMARK    5  A    between atoms: C_15  and  C_16 
REMARK       I    between atoms: C_16  and  N_17 
REMARK    6  A    between atoms: C_21  and  C_22 
REMARK       I    between atoms: C_22  and  N_23 
REMARK    7  A    between atoms: N_23  and  C_24 
REMARK    8  A    between atoms: C_24  and  C_25 
ROOT
HETATM    1  C   UNL     1       7.974  25.212  52.152  1.00  0.00     0.069 C 
HETATM    2  C   UNL     1       7.338  25.263  53.511  1.00  0.00     0.024 C 
HETATM    3  N   UNL     1       7.725  24.264  54.377  1.00  0.00    -0.312 N 
HETATM    4  C   UNL     1       7.138  23.992  55.577  1.00  0.00     0.321 C 
HETATM    5  O   UNL     1       7.506  23.056  56.278  1.00  0.00    -0.247 OA
HETATM    6  N   UNL     1       6.110  24.796  55.941  1.00  0.00    -0.330 N 
HETATM    7  C   UNL     1       5.772  26.049  55.289  1.00  0.00     0.160 C 
HETATM    8  C   UNL     1       6.407  26.142  53.929  1.00  0.00     0.059 C 
HETATM    9  H   UNL     1       8.430  23.593  54.098  1.00  0.00     0.170 HD
HETATM   10  H   UNL     1       5.706  24.594  56.844  1.00  0.00     0.165 HD
ENDROOT
BRANCH   7  11
HETATM   11  C   UNL     1       6.152  27.207  56.204  1.00  0.00    -0.028 A 
HETATM   12  C   UNL     1       5.199  28.160  56.612  1.00  0.00     0.049 A 
HETATM   13  C   UNL     1       5.545  29.256  57.418  1.00  0.00     0.102 A 
HETATM   14  C   UNL     1       6.872  29.380  57.860  1.00  0.00     0.102 A 
HETATM   15  C   UNL     1       7.822  28.430  57.458  1.00  0.00     0.040 A 
HETATM   16  C   UNL     1       7.471  27.354  56.643  1.00  0.00     0.012 A 
BRANCH  13  17
HETATM   17  O   UNL     1       4.637  30.207  57.797  1.00  0.00    -0.353 OA
HETATM   18  C   UNL     1       3.497  30.405  56.967  1.00  0.00     0.210 C 
ENDBRANCH  13  17
BRANCH  14  19
HETATM   19  O   UNL     1       7.418  30.367  58.640  1.00  0.00    -0.339 OA
BRANCH  19  20
HETATM   20  C   UNL     1       8.745  30.188  59.125  1.00  0.00     0.278 C 
BRANCH  20  21
HETATM   21  C   UNL     1       9.617  31.371  58.705  1.00  0.00     0.239 C 
HETATM   22  N   UNL     1      10.556  31.106  57.749  1.00  0.00    -0.368 N 
HETATM   23  H   UNL     1      10.783  30.144  57.525  1.00  0.00     0.159 HD
HETATM   24  H   UNL     1      11.195  31.843  57.490  1.00  0.00     0.159 HD
HETATM   25  O   UNL     1       9.469  32.508  59.142  1.00  0.00    -0.271 OA
ENDBRANCH  20  21
ENDBRANCH  19  20
ENDBRANCH  14  19
ENDBRANCH   7  11
BRANCH   8  26
HETATM   26  C   UNL     1       5.850  27.214  53.064  1.00  0.00     0.252 C 
HETATM   27  N   UNL     1       4.675  26.898  52.432  1.00  0.00    -0.353 N 
HETATM   28  H   UNL     1       4.371  25.934  52.405  1.00  0.00     0.163 HD
HETATM   29  O   UNL     1       6.460  28.264  52.904  1.00  0.00    -0.268 OA
BRANCH  27  30
HETATM   30  C   UNL     1       4.072  27.829  51.503  1.00  0.00     0.161 C 
BRANCH  30  31
HETATM   31  C   UNL     1       4.508  27.632  50.071  1.00  0.00    -0.041 A 
HETATM   32  C   UNL     1       4.293  26.435  49.371  1.00  0.00     0.009 A 
HETATM   33  C   UNL     1       4.662  26.315  48.028  1.00  0.00     0.001 A 
HETATM   34  C   UNL     1       5.227  27.397  47.360  1.00  0.00     0.000 A 
HETATM   35  C   UNL     1       5.426  28.600  48.031  1.00  0.00     0.001 A 
HETATM   36  C   UNL     1       5.067  28.717  49.376  1.00  0.00     0.009 A 
ENDBRANCH  30  31
ENDBRANCH  27  30
ENDBRANCH   8  26
TORSDOF 8
ENDMDL
MODEL 6
REMARK VINA RESULT:      -8.6      3.579      7.190
REMARK  8 active torsions:
REMARK  status: ('A' for Active; 'I' for Inactive)
REMARK    1  A    between atoms: C_7  and  C_8 
REMARK    2  A    between atoms: C_10  and  O_11 
REMARK    3  A    between atoms: C_13  and  O_14 
REMARK    4  A    between atoms: O_14  and  C_15 
REMARK    5  A    between atoms: C_15  and  C_16 
REMARK       I    between atoms: C_16  and  N_17 
REMARK    6  A    between atoms: C_21  and  C_22 
REMARK       I    between atoms: C_22  and  N_23 
REMARK    7  A    between atoms: N_23  and  C_24 
REMARK    8  A    between atoms: C_24  and  C_25 
ROOT
HETATM    1  C   UNL     1       7.778  27.231  55.159  1.00  0.00     0.069 C 
HETATM    2  C   UNL     1       6.503  27.263  54.367  1.00  0.00     0.024 C 
HETATM    3  N   UNL     1       5.548  28.142  54.830  1.00  0.00    -0.312 N 
HETATM    4  C   UNL     1       4.256  28.197  54.400  1.00  0.00     0.321 C 
HETATM    5  O   UNL     1       3.445  28.975  54.890  1.00  0.00    -0.247 OA
HETATM    6  N   UNL     1       3.909  27.327  53.420  1.00  0.00    -0.330 N 
HETATM    7  C   UNL     1       4.852  26.549  52.637  1.00  0.00     0.160 C 
HETATM    8  C   UNL     1       6.198  26.492  53.306  1.00  0.00     0.059 C 
HETATM    9  H   UNL     1       5.749  28.743  55.619  1.00  0.00     0.170 HD
HETATM   10  H   UNL     1       2.955  27.402  53.098  1.00  0.00     0.165 HD
ENDROOT
BRANCH   7  11
HETATM   11  C   UNL     1       4.914  27.113  51.222  1.00  0.00    -0.028 A 
HETATM   12  C   UNL     1       4.633  26.309  50.101  1.00  0.00     0.049 A 
HETATM   13  C   UNL     1       4.729  26.805  48.791  1.00  0.00     0.102 A 
HETATM   14  C   UNL     1       5.077  28.152  48.600  1.00  0.00     0.102 A 
HETATM   15  C   UNL     1       5.355  28.955  49.715  1.00  0.00     0.040 A 
HETATM   16  C   UNL     1       5.272  28.448  51.013  1.00  0.00     0.012 A 
BRANCH  13  17
HETATM   17  O   UNL     1       4.489  26.028  47.690  1.00  0.00    -0.353 OA
HETATM   18  C   UNL     1       3.134  25.719  47.379  1.00  0.00     0.210 C 
ENDBRANCH  13  17
BRANCH  14  19
HETATM   19  O   UNL     1       5.233  28.829  47.417  1.00  0.00    -0.339 OA
BRANCH  19  20
HETATM   20  C   UNL     1       4.168  29.662  46.970  1.00  0.00     0.278 C 
BRANCH  20  21
HETATM   21  C   UNL     1       4.709  31.041  46.593  1.00  0.00     0.239 C 
HETATM   22  N   UNL     1       4.817  31.936  47.620  1.00  0.00    -0.368 N 
HETATM   23  H   UNL     1       4.354  31.745  48.501  1.00  0.00     0.159 HD
HETATM   24  H   UNL     1       5.108  32.878  47.403  1.00  0.00     0.159 HD
HETATM   25  O   UNL     1       5.080  31.334  45.461  1.00  0.00    -0.271 OA
ENDBRANCH  20  21
ENDBRANCH  19  20
ENDBRANCH  14  19
ENDBRANCH   7  11
BRANCH   8  26
HETATM   26  C   UNL     1       7.110  25.454  52.762  1.00  0.00     0.252 C 
HETATM   27  N   UNL     1       6.823  24.170  53.146  1.00  0.00    -0.353 N 
HETATM   28  H   UNL     1       6.179  24.014  53.911  1.00  0.00     0.163 HD
HETATM   29  O   UNL     1       8.076  25.770  52.077  1.00  0.00    -0.268 OA
BRANCH  27  30
HETATM   30  C   UNL     1       7.682  23.077  52.746  1.00  0.00     0.161 C 
BRANCH  30  31
HETATM   31  C   UNL     1       8.058  22.149  53.876  1.00  0.00    -0.041 A 
HETATM   32  C   UNL     1       7.973  22.526  55.225  1.00  0.00     0.009 A 
HETATM   33  C   UNL     1       8.277  21.617  56.242  1.00  0.00     0.001 A 
HETATM   34  C   UNL     1       8.645  20.312  55.926  1.00  0.00     0.000 A 
HETATM   35  C   UNL     1       8.711  19.914  54.594  1.00  0.00     0.001 A 
HETATM   36  C   UNL     1       8.417  20.825  53.576  1.00  0.00     0.009 A 
ENDBRANCH  30  31
ENDBRANCH  27  30
ENDBRANCH   8  26
TORSDOF 8
ENDMDL
MODEL 7
REMARK VINA RESULT:      -8.3      2.541      7.171
REMARK  8 active torsions:
REMARK  status: ('A' for Active; 'I' for Inactive)
REMARK    1  A    between atoms: C_7  and  C_8 
REMARK    2  A    between atoms: C_10  and  O_11 
REMARK    3  A    between atoms: C_13  and  O_14 
REMARK    4  A    between atoms: O_14  and  C_15 
REMARK    5  A    between atoms: C_15  and  C_16 
REMARK       I    between atoms: C_16  and  N_17 
REMARK    6  A    between atoms: C_21  and  C_22 
REMARK       I    between atoms: C_22  and  N_23 
REMARK    7  A    between atoms: N_23  and  C_24 
REMARK    8  A    between atoms: C_24  and  C_25 
ROOT
HETATM    1  C   UNL     1       4.511  30.362  57.791  1.00  0.00     0.069 C 
HETATM    2  C   UNL     1       5.775  29.692  57.337  1.00  0.00     0.024 C 
HETATM    3  N   UNL     1       6.844  29.816  58.196  1.00  0.00    -0.312 N 
HETATM    4  C   UNL     1       8.130  29.469  57.906  1.00  0.00     0.321 C 
HETATM    5  O   UNL     1       9.043  29.650  58.704  1.00  0.00    -0.247 OA
HETATM    6  N   UNL     1       8.349  28.939  56.678  1.00  0.00    -0.330 N 
HETATM    7  C   UNL     1       7.305  28.483  55.779  1.00  0.00     0.160 C 
HETATM    8  C   UNL     1       5.966  29.046  56.170  1.00  0.00     0.059 C 
HETATM    9  H   UNL     1       6.732  30.287  59.085  1.00  0.00     0.170 HD
HETATM   10  H   UNL     1       9.304  28.665  56.493  1.00  0.00     0.165 HD
ENDROOT
BRANCH   7  11
HETATM   11  C   UNL     1       7.318  26.960  55.727  1.00  0.00    -0.028 A 
HETATM   12  C   UNL     1       7.548  26.271  54.521  1.00  0.00     0.049 A 
HETATM   13  C   UNL     1       7.519  24.869  54.452  1.00  0.00     0.102 A 
HETATM   14  C   UNL     1       7.293  24.137  55.629  1.00  0.00     0.102 A 
HETATM   15  C   UNL     1       7.066  24.821  56.831  1.00  0.00     0.040 A 
HETATM   16  C   UNL     1       7.081  26.215  56.886  1.00  0.00     0.012 A 
BRANCH  13  17
HETATM   17  O   UNL     1       7.711  24.185  53.282  1.00  0.00    -0.353 OA
HETATM   18  C   UNL     1       8.126  24.927  52.140  1.00  0.00     0.210 C 
ENDBRANCH  13  17
BRANCH  14  19
HETATM   19  O   UNL     1       7.218  22.775  55.780  1.00  0.00    -0.339 OA
BRANCH  19  20
HETATM   20  C   UNL     1       8.366  22.085  56.265  1.00  0.00     0.278 C 
BRANCH  20  21
HETATM   21  C   UNL     1       8.827  21.055  55.236  1.00  0.00     0.239 C 
HETATM   22  N   UNL     1       8.956  19.774  55.695  1.00  0.00    -0.368 N 
HETATM   23  H   UNL     1       8.960  19.600  56.693  1.00  0.00     0.159 HD
HETATM   24  H   UNL     1       9.321  19.075  55.064  1.00  0.00     0.159 HD
HETATM   25  O   UNL     1       9.024  21.321  54.054  1.00  0.00    -0.271 OA
ENDBRANCH  20  21
ENDBRANCH  19  20
ENDBRANCH  14  19
ENDBRANCH   7  11
BRANCH   8  26
HETATM   26  C   UNL     1       4.916  28.915  55.129  1.00  0.00     0.252 C 
HETATM   27  N   UNL     1       5.172  29.584  53.960  1.00  0.00    -0.353 N 
HETATM   28  H   UNL     1       5.909  30.276  53.936  1.00  0.00     0.163 HD
HETATM   29  O   UNL     1       3.883  28.298  55.359  1.00  0.00    -0.268 OA
BRANCH  27  30
HETATM   30  C   UNL     1       4.192  29.598  52.896  1.00  0.00     0.161 C 
BRANCH  30  31
HETATM   31  C   UNL     1       4.431  28.556  51.830  1.00  0.00    -0.041 A 
HETATM   32  C   UNL     1       5.013  27.309  52.107  1.00  0.00     0.009 A 
HETATM   33  C   UNL     1       5.165  26.351  51.101  1.00  0.00     0.001 A 
HETATM   34  C   UNL     1       4.714  26.615  49.811  1.00  0.00     0.000 A 
HETATM   35  C   UNL     1       4.112  27.837  49.523  1.00  0.00     0.001 A 
HETATM   36  C   UNL     1       3.969  28.799  50.526  1.00  0.00     0.009 A 
ENDBRANCH  30  31
ENDBRANCH  27  30
ENDBRANCH   8  26
TORSDOF 8
ENDMDL
MODEL 8
REMARK VINA RESULT:      -7.9      2.674      7.489
REMARK  8 active torsions:
REMARK  status: ('A' for Active; 'I' for Inactive)
REMARK    1  A    between atoms: C_7  and  C_8 
REMARK    2  A    between atoms: C_10  and  O_11 
REMARK    3  A    between atoms: C_13  and  O_14 
REMARK    4  A    between atoms: O_14  and  C_15 
REMARK    5  A    between atoms: C_15  and  C_16 
REMARK       I    between atoms: C_16  and  N_17 
REMARK    6  A    between atoms: C_21  and  C_22 
REMARK       I    between atoms: C_22  and  N_23 
REMARK    7  A    between atoms: N_23  and  C_24 
REMARK    8  A    between atoms: C_24  and  C_25 
ROOT
HETATM    1  C   UNL     1       3.890  30.111  57.266  1.00  0.00     0.069 C 
HETATM    2  C   UNL     1       5.199  29.523  56.826  1.00  0.00     0.024 C 
HETATM    3  N   UNL     1       6.112  29.305  57.834  1.00  0.00    -0.312 N 
HETATM    4  C   UNL     1       7.422  28.973  57.652  1.00  0.00     0.321 C 
HETATM    5  O   UNL     1       8.192  28.840  58.596  1.00  0.00    -0.247 OA
HETATM    6  N   UNL     1       7.832  28.824  56.369  1.00  0.00    -0.330 N 
HETATM    7  C   UNL     1       6.944  28.735  55.224  1.00  0.00     0.160 C 
HETATM    8  C   UNL     1       5.570  29.246  55.561  1.00  0.00     0.059 C 
HETATM    9  H   UNL     1       5.862  29.493  58.797  1.00  0.00     0.170 HD
HETATM   10  H   UNL     1       8.799  28.553  56.256  1.00  0.00     0.165 HD
ENDROOT
BRANCH   7  11
HETATM   11  C   UNL     1       6.936  27.302  54.707  1.00  0.00    -0.028 A 
HETATM   12  C   UNL     1       6.815  26.208  55.585  1.00  0.00     0.049 A 
HETATM   13  C   UNL     1       6.851  24.881  55.126  1.00  0.00     0.102 A 
HETATM   14  C   UNL     1       6.970  24.645  53.747  1.00  0.00     0.102 A 
HETATM   15  C   UNL     1       7.087  25.732  52.870  1.00  0.00     0.040 A 
HETATM   16  C   UNL     1       7.067  27.047  53.339  1.00  0.00     0.012 A 
BRANCH  13  17
HETATM   17  O   UNL     1       6.766  23.807  55.970  1.00  0.00    -0.353 OA
HETATM   18  C   UNL     1       7.895  23.515  56.787  1.00  0.00     0.210 C 
ENDBRANCH  13  17
BRANCH  14  19
HETATM   19  O   UNL     1       7.031  23.439  53.095  1.00  0.00    -0.339 OA
BRANCH  19  20
HETATM   20  C   UNL     1       8.251  22.706  53.145  1.00  0.00     0.278 C 
BRANCH  20  21
HETATM   21  C   UNL     1       7.967  21.245  53.492  1.00  0.00     0.239 C 
HETATM   22  N   UNL     1       8.218  20.340  52.499  1.00  0.00    -0.368 N 
HETATM   23  H   UNL     1       8.361  20.666  51.551  1.00  0.00     0.159 HD
HETATM   24  H   UNL     1       7.982  19.373  52.665  1.00  0.00     0.159 HD
HETATM   25  O   UNL     1       7.589  20.875  54.599  1.00  0.00    -0.271 OA
ENDBRANCH  20  21
ENDBRANCH  19  20
ENDBRANCH  14  19
ENDBRANCH   7  11
BRANCH   8  26
HETATM   26  C   UNL     1       4.707  29.510  54.382  1.00  0.00     0.252 C 
HETATM   27  N   UNL     1       4.093  28.404  53.852  1.00  0.00    -0.353 N 
HETATM   28  H   UNL     1       4.408  27.484  54.129  1.00  0.00     0.163 HD
HETATM   29  O   UNL     1       4.626  30.637  53.909  1.00  0.00    -0.268 OA
BRANCH  27  30
HETATM   30  C   UNL     1       3.287  28.517  52.656  1.00  0.00     0.161 C 
BRANCH  30  31
HETATM   31  C   UNL     1       4.082  28.448  51.374  1.00  0.00    -0.041 A 
HETATM   32  C   UNL     1       4.450  27.233  50.776  1.00  0.00     0.009 A 
HETATM   33  C   UNL     1       5.137  27.214  49.559  1.00  0.00     0.001 A 
HETATM   34  C   UNL     1       5.443  28.408  48.911  1.00  0.00     0.000 A 
HETATM   35  C   UNL     1       5.065  29.621  49.478  1.00  0.00     0.001 A 
HETATM   36  C   UNL     1       4.387  29.641  50.700  1.00  0.00     0.009 A 
ENDBRANCH  30  31
ENDBRANCH  27  30
ENDBRANCH   8  26
TORSDOF 8
ENDMDL
MODEL 9
REMARK VINA RESULT:      -7.9      3.180      6.820
REMARK  8 active torsions:
REMARK  status: ('A' for Active; 'I' for Inactive)
REMARK    1  A    between atoms: C_7  and  C_8 
REMARK    2  A    between atoms: C_10  and  O_11 
REMARK    3  A    between atoms: C_13  and  O_14 
REMARK    4  A    between atoms: O_14  and  C_15 
REMARK    5  A    between atoms: C_15  and  C_16 
REMARK       I    between atoms: C_16  and  N_17 
REMARK    6  A    between atoms: C_21  and  C_22 
REMARK       I    between atoms: C_22  and  N_23 
REMARK    7  A    between atoms: N_23  and  C_24 
REMARK    8  A    between atoms: C_24  and  C_25 
ROOT
HETATM    1  C   UNL     1       7.867  27.762  55.447  1.00  0.00     0.069 C 
HETATM    2  C   UNL     1       6.578  28.354  54.955  1.00  0.00     0.024 C 
HETATM    3  N   UNL     1       6.285  29.608  55.445  1.00  0.00    -0.312 N 
HETATM    4  C   UNL     1       5.092  30.250  55.300  1.00  0.00     0.321 C 
HETATM    5  O   UNL     1       4.884  31.349  55.803  1.00  0.00    -0.247 OA
HETATM    6  N   UNL     1       4.138  29.597  54.592  1.00  0.00    -0.330 N 
HETATM    7  C   UNL     1       4.377  28.418  53.779  1.00  0.00     0.160 C 
HETATM    8  C   UNL     1       5.682  27.763  54.142  1.00  0.00     0.059 C 
HETATM    9  H   UNL     1       6.942  30.085  56.050  1.00  0.00     0.170 HD
HETATM   10  H   UNL     1       3.270  30.100  54.474  1.00  0.00     0.165 HD
ENDROOT
BRANCH   7  11
HETATM   11  C   UNL     1       4.293  28.800  52.306  1.00  0.00    -0.028 A 
HETATM   12  C   UNL     1       5.344  29.483  51.666  1.00  0.00     0.049 A 
HETATM   13  C   UNL     1       5.260  29.880  50.322  1.00  0.00     0.102 A 
HETATM   14  C   UNL     1       4.110  29.548  49.588  1.00  0.00     0.102 A 
HETATM   15  C   UNL     1       3.062  28.865  50.223  1.00  0.00     0.040 A 
HETATM   16  C   UNL     1       3.149  28.490  51.564  1.00  0.00     0.012 A 
BRANCH  13  17
HETATM   17  O   UNL     1       6.260  30.572  49.694  1.00  0.00    -0.353 OA
HETATM   18  C   UNL     1       6.146  31.989  49.628  1.00  0.00     0.210 C 
ENDBRANCH  13  17
BRANCH  14  19
HETATM   19  O   UNL     1       3.823  29.843  48.279  1.00  0.00    -0.339 OA
BRANCH  19  20
HETATM   20  C   UNL     1       4.767  29.467  47.280  1.00  0.00     0.278 C 
BRANCH  20  21
HETATM   21  C   UNL     1       4.840  27.944  47.181  1.00  0.00     0.239 C 
HETATM   22  N   UNL     1       6.095  27.407  47.217  1.00  0.00    -0.368 N 
HETATM   23  H   UNL     1       6.900  28.009  47.090  1.00  0.00     0.159 HD
HETATM   24  H   UNL     1       6.192  26.410  47.090  1.00  0.00     0.159 HD
HETATM   25  O   UNL     1       3.848  27.222  47.126  1.00  0.00    -0.271 OA
ENDBRANCH  20  21
ENDBRANCH  19  20
ENDBRANCH  14  19
ENDBRANCH   7  11
BRANCH   8  26
HETATM   26  C   UNL     1       5.845  26.385  53.613  1.00  0.00     0.252 C 
HETATM   27  N   UNL     1       7.034  26.145  52.975  1.00  0.00    -0.353 N 
HETATM   28  H   UNL     1       7.620  26.926  52.711  1.00  0.00     0.163 HD
HETATM   29  O   UNL     1       4.934  25.571  53.705  1.00  0.00    -0.268 OA
BRANCH  27  30
HETATM   30  C   UNL     1       7.283  24.865  52.349  1.00  0.00     0.161 C 
BRANCH  30  31
HETATM   31  C   UNL     1       7.833  23.820  53.290  1.00  0.00    -0.041 A 
HETATM   32  C   UNL     1       8.215  24.114  54.608  1.00  0.00     0.009 A 
HETATM   33  C   UNL     1       8.667  23.106  55.464  1.00  0.00     0.001 A 
HETATM   34  C   UNL     1       8.719  21.787  55.023  1.00  0.00     0.000 A 
HETATM   35  C   UNL     1       8.322  21.473  53.726  1.00  0.00     0.001 A 
HETATM   36  C   UNL     1       7.880  22.482  52.867  1.00  0.00     0.009 A 
ENDBRANCH  30  31
ENDBRANCH  27  30
ENDBRANCH   8  26
TORSDOF 8
ENDMDL
MODEL 10
REMARK VINA RESULT:      -7.8      3.853      8.221
REMARK  8 active torsions:
REMARK  status: ('A' for Active; 'I' for Inactive)
REMARK    1  A    between atoms: C_7  and  C_8 
REMARK    2  A    between atoms: C_10  and  O_11 
REMARK    3  A    between atoms: C_13  and  O_14 
REMARK    4  A    between atoms: O_14  and  C_15 
REMARK    5  A    between atoms: C_15  and  C_16 
REMARK       I    between atoms: C_16  and  N_17 
REMARK    6  A    between atoms: C_21  and  C_22 
REMARK       I    between atoms: C_22  and  N_23 
REMARK    7  A    between atoms: N_23  and  C_24 
REMARK    8  A    between atoms: C_24  and  C_25 
ROOT
HETATM    1  C   UNL     1       5.760  29.928  50.291  1.00  0.00     0.069 C 
HETATM    2  C   UNL     1       5.417  28.481  50.495  1.00  0.00     0.024 C 
HETATM    3  N   UNL     1       5.301  27.739  49.340  1.00  0.00    -0.312 N 
HETATM    4  C   UNL     1       4.805  26.471  49.265  1.00  0.00     0.321 C 
HETATM    5  O   UNL     1       4.687  25.886  48.195  1.00  0.00    -0.247 OA
HETATM    6  N   UNL     1       4.425  25.904  50.436  1.00  0.00    -0.330 N 
HETATM    7  C   UNL     1       4.745  26.431  51.750  1.00  0.00     0.160 C 
HETATM    8  C   UNL     1       5.165  27.873  51.670  1.00  0.00     0.059 C 
HETATM    9  H   UNL     1       5.493  28.163  48.440  1.00  0.00     0.170 HD
HETATM   10  H   UNL     1       4.086  24.955  50.362  1.00  0.00     0.165 HD
ENDROOT
BRANCH   7  11
HETATM   11  C   UNL     1       5.795  25.541  52.405  1.00  0.00    -0.028 A 
HETATM   12  C   UNL     1       5.617  25.039  53.708  1.00  0.00     0.049 A 
HETATM   13  C   UNL     1       6.596  24.255  54.340  1.00  0.00     0.102 A 
HETATM   14  C   UNL     1       7.766  23.932  53.633  1.00  0.00     0.102 A 
HETATM   15  C   UNL     1       7.943  24.428  52.334  1.00  0.00     0.040 A 
HETATM   16  C   UNL     1       6.971  25.221  51.721  1.00  0.00     0.012 A 
BRANCH  13  17
HETATM   17  O   UNL     1       6.453  23.785  55.617  1.00  0.00    -0.353 OA
HETATM   18  C   UNL     1       6.792  24.660  56.688  1.00  0.00     0.210 C 
ENDBRANCH  13  17
BRANCH  14  19
HETATM   19  O   UNL     1       8.839  23.193  54.061  1.00  0.00    -0.339 OA
BRANCH  19  20
HETATM   20  C   UNL     1       8.963  21.851  53.599  1.00  0.00     0.278 C 
BRANCH  20  21
HETATM   21  C   UNL     1       8.779  20.881  54.765  1.00  0.00     0.239 C 
HETATM   22  N   UNL     1       8.532  21.454  55.980  1.00  0.00    -0.368 N 
HETATM   23  H   UNL     1       8.692  22.447  56.106  1.00  0.00     0.159 HD
HETATM   24  H   UNL     1       8.468  20.852  56.788  1.00  0.00     0.159 HD
HETATM   25  O   UNL     1       8.792  19.660  54.637  1.00  0.00    -0.271 OA
ENDBRANCH  20  21
ENDBRANCH  19  20
ENDBRANCH  14  19
ENDBRANCH   7  11
BRANCH   8  26
HETATM   26  C   UNL     1       5.180  28.582  52.974  1.00  0.00     0.252 C 
HETATM   27  N   UNL     1       3.979  29.124  53.354  1.00  0.00    -0.353 N 
HETATM   28  H   UNL     1       3.236  29.207  52.673  1.00  0.00     0.163 HD
HETATM   29  O   UNL     1       6.223  28.706  53.604  1.00  0.00    -0.268 OA
BRANCH  27  30
HETATM   30  C   UNL     1       3.880  29.905  54.568  1.00  0.00     0.161 C 
BRANCH  30  31
HETATM   31  C   UNL     1       4.056  31.390  54.356  1.00  0.00    -0.041 A 
HETATM   32  C   UNL     1       3.500  32.069  53.261  1.00  0.00     0.009 A 
HETATM   33  C   UNL     1       3.639  33.454  53.133  1.00  0.00     0.001 A 
HETATM   34  C   UNL     1       4.312  34.182  54.110  1.00  0.00     0.000 A 
HETATM   35  C   UNL     1       4.849  33.528  55.215  1.00  0.00     0.001 A 
HETATM   36  C   UNL     1       4.719  32.142  55.338  1.00  0.00     0.009 A 
ENDBRANCH  30  31
ENDBRANCH  27  30
ENDBRANCH   8  26
TORSDOF 8
ENDMDL
