MODEL 1
REMARK VINA RESULT:      -8.5      0.000      0.000
REMARK  8 active torsions:
REMARK  status: ('A' for Active; 'I' for Inactive)
REMARK    1  A    between atoms: C_2  and  N_3 
REMARK    2  A    between atoms: N_3  and  C_5 
REMARK    3  A    between atoms: N_3  and  C_29 
REMARK    4  A    between atoms: C_5  and  C_6 
REMARK    5  A    between atoms: C_6  and  N_7 
REMARK       I    between atoms: N_7  and  C_8 
REMARK    6  A    between atoms: C_8  and  C_9 
REMARK    7  A    between atoms: C_9  and  O_10 
REMARK    8  A    between atoms: N_11  and  C_12 
ROOT
HETATM    1  C   UNL     1       7.165  24.821  54.107  1.00  0.00     0.256 C 
HETATM    2  N   UNL     1       6.940  25.453  55.425  1.00  0.00    -0.254 N 
HETATM    3  C   UNL     1       7.274  24.774  56.592  1.00  0.00     0.330 C 
HETATM    4  O   UNL     1       7.316  25.264  57.719  1.00  0.00    -0.246 OA
HETATM    5  N   UNL     1       7.557  23.447  56.504  1.00  0.00    -0.308 N 
HETATM    6  C   UNL     1       7.626  22.698  55.345  1.00  0.00     0.048 A 
HETATM    7  C   UNL     1       7.448  23.334  54.129  1.00  0.00     0.034 A 
HETATM    8  C   UNL     1       7.906  21.333  55.417  1.00  0.00     0.030 A 
HETATM    9  C   UNL     1       8.018  20.587  54.246  1.00  0.00     0.002 A 
HETATM   10  C   UNL     1       7.872  21.212  53.010  1.00  0.00     0.001 A 
HETATM   11  C   UNL     1       7.601  22.580  52.950  1.00  0.00     0.015 A 
HETATM   12  H   UNL     1       7.780  23.017  57.395  1.00  0.00     0.170 HD
ENDROOT
BRANCH   1  13
HETATM   13  C   UNL     1       5.827  25.012  53.235  1.00  0.00     0.279 C 
HETATM   14  N   UNL     1       5.959  25.757  52.063  1.00  0.00    -0.355 N 
HETATM   15  H   UNL     1       6.921  25.839  51.736  1.00  0.00     0.162 HD
HETATM   16  O   UNL     1       4.716  24.628  53.602  1.00  0.00    -0.268 OA
BRANCH  14  17
HETATM   17  C   UNL     1       4.935  25.678  51.030  1.00  0.00     0.150 C 
BRANCH  17  18
HETATM   18  C   UNL     1       4.843  26.840  50.014  1.00  0.00     0.254 C 
BRANCH  18  19
HETATM   19  N   UNL     1       3.550  26.897  49.196  1.00  0.00    -0.070 N 
HETATM   20  H   UNL     1       2.896  26.315  49.734  1.00  0.00     0.279 HD
BRANCH  19  21
HETATM   21  C   UNL     1       3.631  26.287  47.814  1.00  0.00     0.230 C 
HETATM   22  C   UNL     1       3.046  24.886  47.801  1.00  0.00     0.034 C 
ENDBRANCH  19  21
BRANCH  19  23
HETATM   23  C   UNL     1       2.930  28.283  49.197  1.00  0.00     0.230 C 
HETATM   24  C   UNL     1       1.462  28.216  48.809  1.00  0.00     0.034 C 
ENDBRANCH  19  23
ENDBRANCH  18  19
ENDBRANCH  17  18
ENDBRANCH  14  17
ENDBRANCH   1  13
BRANCH   1  25
HETATM   25  O   UNL     1       8.330  25.398  53.549  1.00  0.00    -0.359 OA
HETATM   26  H   UNL     1       8.483  24.921  52.716  1.00  0.00     0.213 HD
ENDBRANCH   1  25
BRANCH   2  27
HETATM   27  C   UNL     1       6.436  26.822  55.484  1.00  0.00     0.043 A 
HETATM   28  C   UNL     1       5.101  27.116  55.826  1.00  0.00     0.031 A 
HETATM   29  C   UNL     1       4.642  28.437  55.939  1.00  0.00     0.026 A 
HETATM   30  C   UNL     1       5.510  29.497  55.714  1.00  0.00     0.034 A 
HETATM   31 CL   UNL     1       4.954  31.113  55.874  1.00  0.00    -0.084 Cl
HETATM   32  C   UNL     1       6.832  29.244  55.376  1.00  0.00     0.026 A 
HETATM   33  C   UNL     1       7.286  27.922  55.267  1.00  0.00     0.031 A 
ENDBRANCH   2  27
TORSDOF 8
ENDMDL
MODEL 2
REMARK VINA RESULT:      -8.5      2.610      5.303
REMARK  8 active torsions:
REMARK  status: ('A' for Active; 'I' for Inactive)
REMARK    1  A    between atoms: C_2  and  N_3 
REMARK    2  A    between atoms: N_3  and  C_5 
REMARK    3  A    between atoms: N_3  and  C_29 
REMARK    4  A    between atoms: C_5  and  C_6 
REMARK    5  A    between atoms: C_6  and  N_7 
REMARK       I    between atoms: N_7  and  C_8 
REMARK    6  A    between atoms: C_8  and  C_9 
REMARK    7  A    between atoms: C_9  and  O_10 
REMARK    8  A    between atoms: N_11  and  C_12 
ROOT
HETATM    1  C   UNL     1       5.691  26.075  55.634  1.00  0.00     0.256 C 
HETATM    2  N   UNL     1       7.026  25.453  55.775  1.00  0.00    -0.254 N 
HETATM    3  C   UNL     1       7.953  25.981  56.669  1.00  0.00     0.330 C 
HETATM    4  O   UNL     1       9.004  25.444  57.012  1.00  0.00    -0.246 OA
HETATM    5  N   UNL     1       7.705  27.208  57.199  1.00  0.00    -0.308 N 
HETATM    6  C   UNL     1       6.571  27.973  57.004  1.00  0.00     0.048 A 
HETATM    7  C   UNL     1       5.539  27.453  56.244  1.00  0.00     0.034 A 
HETATM    8  C   UNL     1       6.472  29.231  57.601  1.00  0.00     0.030 A 
HETATM    9  C   UNL     1       5.311  29.984  57.438  1.00  0.00     0.002 A 
HETATM   10  C   UNL     1       4.248  29.467  56.702  1.00  0.00     0.001 A 
HETATM   11  C   UNL     1       4.355  28.204  56.118  1.00  0.00     0.015 A 
HETATM   12  H   UNL     1       8.429  27.534  57.831  1.00  0.00     0.170 HD
ENDROOT
BRANCH   1  13
HETATM   13  C   UNL     1       5.390  26.241  54.064  1.00  0.00     0.279 C 
HETATM   14  N   UNL     1       5.985  27.336  53.437  1.00  0.00    -0.355 N 
HETATM   15  H   UNL     1       6.770  27.728  53.955  1.00  0.00     0.162 HD
HETATM   16  O   UNL     1       4.603  25.525  53.443  1.00  0.00    -0.268 OA
BRANCH  14  17
HETATM   17  C   UNL     1       6.093  27.375  51.985  1.00  0.00     0.150 C 
BRANCH  17  18
HETATM   18  C   UNL     1       5.104  28.278  51.211  1.00  0.00     0.254 C 
BRANCH  18  19
HETATM   19  N   UNL     1       4.054  27.540  50.377  1.00  0.00    -0.070 N 
HETATM   20  H   UNL     1       3.391  27.185  51.078  1.00  0.00     0.279 HD
BRANCH  19  21
HETATM   21  C   UNL     1       4.561  26.333  49.618  1.00  0.00     0.230 C 
HETATM   22  C   UNL     1       3.578  25.913  48.541  1.00  0.00     0.034 C 
ENDBRANCH  19  21
BRANCH  19  23
HETATM   23  C   UNL     1       3.239  28.484  49.512  1.00  0.00     0.230 C 
HETATM   24  C   UNL     1       1.976  28.921  50.236  1.00  0.00     0.034 C 
ENDBRANCH  19  23
ENDBRANCH  18  19
ENDBRANCH  17  18
ENDBRANCH  14  17
ENDBRANCH   1  13
BRANCH   1  25
HETATM   25  O   UNL     1       4.767  25.269  56.339  1.00  0.00    -0.359 OA
HETATM   26  H   UNL     1       3.970  25.817  56.443  1.00  0.00     0.213 HD
ENDBRANCH   1  25
BRANCH   2  27
HETATM   27  C   UNL     1       7.331  24.237  55.026  1.00  0.00     0.043 A 
HETATM   28  C   UNL     1       7.791  24.272  53.696  1.00  0.00     0.031 A 
HETATM   29  C   UNL     1       8.138  23.102  53.004  1.00  0.00     0.026 A 
HETATM   30  C   UNL     1       8.035  21.867  53.630  1.00  0.00     0.034 A 
HETATM   31 CL   UNL     1       8.480  20.437  52.791  1.00  0.00    -0.084 Cl
HETATM   32  C   UNL     1       7.584  21.796  54.940  1.00  0.00     0.026 A 
HETATM   33  C   UNL     1       7.241  22.969  55.628  1.00  0.00     0.031 A 
ENDBRANCH   2  27
TORSDOF 8
ENDMDL
MODEL 3
REMARK VINA RESULT:      -8.2      3.460      7.341
REMARK  8 active torsions:
REMARK  status: ('A' for Active; 'I' for Inactive)
REMARK    1  A    between atoms: C_2  and  N_3 
REMARK    2  A    between atoms: N_3  and  C_5 
REMARK    3  A    between atoms: N_3  and  C_29 
REMARK    4  A    between atoms: C_5  and  C_6 
REMARK    5  A    between atoms: C_6  and  N_7 
REMARK       I    between atoms: N_7  and  C_8 
REMARK    6  A    between atoms: C_8  and  C_9 
REMARK    7  A    between atoms: C_9  and  O_10 
REMARK    8  A    between atoms: N_11  and  C_12 
ROOT
HETATM    1  C   UNL     1       5.240  27.431  55.654  1.00  0.00     0.256 C 
HETATM    2  N   UNL     1       4.450  28.385  54.846  1.00  0.00    -0.254 N 
HETATM    3  C   UNL     1       3.916  27.991  53.623  1.00  0.00     0.330 C 
HETATM    4  O   UNL     1       3.091  28.623  52.966  1.00  0.00    -0.246 OA
HETATM    5  N   UNL     1       4.350  26.824  53.079  1.00  0.00    -0.308 N 
HETATM    6  C   UNL     1       5.227  25.925  53.657  1.00  0.00     0.048 A 
HETATM    7  C   UNL     1       5.690  26.175  54.936  1.00  0.00     0.034 A 
HETATM    8  C   UNL     1       5.598  24.774  52.961  1.00  0.00     0.030 A 
HETATM    9  C   UNL     1       6.449  23.848  53.561  1.00  0.00     0.002 A 
HETATM   10  C   UNL     1       6.903  24.064  54.859  1.00  0.00     0.001 A 
HETATM   11  C   UNL     1       6.517  25.215  55.549  1.00  0.00     0.015 A 
HETATM   12  H   UNL     1       3.927  26.608  52.183  1.00  0.00     0.170 HD
ENDROOT
BRANCH   1  13
HETATM   13  C   UNL     1       6.580  28.181  56.131  1.00  0.00     0.279 C 
HETATM   14  N   UNL     1       6.671  28.468  57.494  1.00  0.00    -0.355 N 
HETATM   15  H   UNL     1       6.039  27.915  58.071  1.00  0.00     0.162 HD
HETATM   16  O   UNL     1       7.445  28.588  55.354  1.00  0.00    -0.268 OA
BRANCH  14  17
HETATM   17  C   UNL     1       7.962  28.792  58.086  1.00  0.00     0.150 C 
BRANCH  17  18
HETATM   18  C   UNL     1       8.206  30.253  58.531  1.00  0.00     0.254 C 
BRANCH  18  19
HETATM   19  N   UNL     1       7.845  30.566  59.984  1.00  0.00    -0.070 N 
HETATM   20  H   UNL     1       7.282  29.757  60.276  1.00  0.00     0.279 HD
BRANCH  19  21
HETATM   21  C   UNL     1       6.976  31.788  60.187  1.00  0.00     0.230 C 
HETATM   22  C   UNL     1       6.214  32.132  58.920  1.00  0.00     0.034 C 
ENDBRANCH  19  21
BRANCH  19  23
HETATM   23  C   UNL     1       9.059  30.545  60.896  1.00  0.00     0.230 C 
HETATM   24  C   UNL     1       9.555  31.956  61.164  1.00  0.00     0.034 C 
ENDBRANCH  19  23
ENDBRANCH  18  19
ENDBRANCH  17  18
ENDBRANCH  14  17
ENDBRANCH   1  13
BRANCH   1  25
HETATM   25  O   UNL     1       4.410  26.965  56.700  1.00  0.00    -0.359 OA
HETATM   26  H   UNL     1       4.400  27.678  57.362  1.00  0.00     0.213 HD
ENDBRANCH   1  25
BRANCH   2  27
HETATM   27  C   UNL     1       4.174  29.715  55.381  1.00  0.00     0.043 A 
HETATM   28  C   UNL     1       4.608  30.888  54.734  1.00  0.00     0.031 A 
HETATM   29  C   UNL     1       4.286  32.163  55.223  1.00  0.00     0.026 A 
HETATM   30  C   UNL     1       3.518  32.294  56.372  1.00  0.00     0.034 A 
HETATM   31 CL   UNL     1       3.106  33.854  56.958  1.00  0.00    -0.084 Cl
HETATM   32  C   UNL     1       3.074  31.160  57.035  1.00  0.00     0.026 A 
HETATM   33  C   UNL     1       3.397  29.888  56.541  1.00  0.00     0.031 A 
ENDBRANCH   2  27
TORSDOF 8
ENDMDL
MODEL 4
REMARK VINA RESULT:      -8.0      2.772      5.619
REMARK  8 active torsions:
REMARK  status: ('A' for Active; 'I' for Inactive)
REMARK    1  A    between atoms: C_2  and  N_3 
REMARK    2  A    between atoms: N_3  and  C_5 
REMARK    3  A    between atoms: N_3  and  C_29 
REMARK    4  A    between atoms: C_5  and  C_6 
REMARK    5  A    between atoms: C_6  and  N_7 
REMARK       I    between atoms: N_7  and  C_8 
REMARK    6  A    between atoms: C_8  and  C_9 
REMARK    7  A    between atoms: C_9  and  O_10 
REMARK    8  A    between atoms: N_11  and  C_12 
ROOT
HETATM    1  C   UNL     1       5.273  27.553  55.955  1.00  0.00     0.256 C 
HETATM    2  N   UNL     1       6.623  26.982  56.153  1.00  0.00    -0.254 N 
HETATM    3  C   UNL     1       7.492  27.548  57.081  1.00  0.00     0.330 C 
HETATM    4  O   UNL     1       8.547  27.050  57.470  1.00  0.00    -0.246 OA
HETATM    5  N   UNL     1       7.178  28.766  57.595  1.00  0.00    -0.308 N 
HETATM    6  C   UNL     1       6.025  29.488  57.350  1.00  0.00     0.048 A 
HETATM    7  C   UNL     1       5.045  28.927  56.551  1.00  0.00     0.034 A 
HETATM    8  C   UNL     1       5.855  30.743  57.936  1.00  0.00     0.030 A 
HETATM    9  C   UNL     1       4.674  31.451  57.723  1.00  0.00     0.002 A 
HETATM   10  C   UNL     1       3.662  30.893  56.946  1.00  0.00     0.001 A 
HETATM   11  C   UNL     1       3.840  29.632  56.373  1.00  0.00     0.015 A 
HETATM   12  H   UNL     1       7.862  29.120  58.254  1.00  0.00     0.170 HD
ENDROOT
BRANCH   1  13
HETATM   13  C   UNL     1       5.030  27.703  54.372  1.00  0.00     0.279 C 
HETATM   14  N   UNL     1       5.747  28.716  53.734  1.00  0.00    -0.355 N 
HETATM   15  H   UNL     1       6.553  29.043  54.265  1.00  0.00     0.162 HD
HETATM   16  O   UNL     1       4.192  27.050  53.748  1.00  0.00    -0.268 OA
BRANCH  14  17
HETATM   17  C   UNL     1       5.896  28.702  52.285  1.00  0.00     0.150 C 
BRANCH  17  18
HETATM   18  C   UNL     1       4.776  29.350  51.438  1.00  0.00     0.254 C 
BRANCH  18  19
HETATM   19  N   UNL     1       3.708  28.387  50.914  1.00  0.00    -0.070 N 
HETATM   20  H   UNL     1       3.687  27.639  51.617  1.00  0.00     0.279 HD
BRANCH  19  21
HETATM   21  C   UNL     1       4.027  27.724  49.592  1.00  0.00     0.230 C 
HETATM   22  C   UNL     1       4.670  26.365  49.805  1.00  0.00     0.034 C 
ENDBRANCH  19  21
BRANCH  19  23
HETATM   23  C   UNL     1       2.317  28.996  50.950  1.00  0.00     0.230 C 
HETATM   24  C   UNL     1       1.627  28.839  49.606  1.00  0.00     0.034 C 
ENDBRANCH  19  23
ENDBRANCH  18  19
ENDBRANCH  17  18
ENDBRANCH  14  17
ENDBRANCH   1  13
BRANCH   1  25
HETATM   25  O   UNL     1       4.351  26.716  56.625  1.00  0.00    -0.359 OA
HETATM   26  H   UNL     1       3.500  27.184  56.588  1.00  0.00     0.213 HD
ENDBRANCH   1  25
BRANCH   2  27
HETATM   27  C   UNL     1       7.003  25.776  55.423  1.00  0.00     0.043 A 
HETATM   28  C   UNL     1       6.755  24.485  55.927  1.00  0.00     0.031 A 
HETATM   29  C   UNL     1       7.069  23.332  55.191  1.00  0.00     0.026 A 
HETATM   30  C   UNL     1       7.639  23.446  53.930  1.00  0.00     0.034 A 
HETATM   31 CL   UNL     1       8.005  22.036  53.021  1.00  0.00    -0.084 Cl
HETATM   32  C   UNL     1       7.898  24.703  53.404  1.00  0.00     0.026 A 
HETATM   33  C   UNL     1       7.579  25.851  54.142  1.00  0.00     0.031 A 
ENDBRANCH   2  27
TORSDOF 8
ENDMDL
MODEL 5
REMARK VINA RESULT:      -8.0      3.059      6.637
REMARK  8 active torsions:
REMARK  status: ('A' for Active; 'I' for Inactive)
REMARK    1  A    between atoms: C_2  and  N_3 
REMARK    2  A    between atoms: N_3  and  C_5 
REMARK    3  A    between atoms: N_3  and  C_29 
REMARK    4  A    between atoms: C_5  and  C_6 
REMARK    5  A    between atoms: C_6  and  N_7 
REMARK       I    between atoms: N_7  and  C_8 
REMARK    6  A    between atoms: C_8  and  C_9 
REMARK    7  A    between atoms: C_9  and  O_10 
REMARK    8  A    between atoms: N_11  and  C_12 
ROOT
HETATM    1  C   UNL     1       6.020  26.415  54.870  1.00  0.00     0.256 C 
HETATM    2  N   UNL     1       5.517  26.353  53.481  1.00  0.00    -0.254 N 
HETATM    3  C   UNL     1       5.536  25.149  52.783  1.00  0.00     0.330 C 
HETATM    4  O   UNL     1       4.972  24.933  51.712  1.00  0.00    -0.246 OA
HETATM    5  N   UNL     1       6.255  24.118  53.302  1.00  0.00    -0.308 N 
HETATM    6  C   UNL     1       6.922  24.110  54.512  1.00  0.00     0.048 A 
HETATM    7  C   UNL     1       6.829  25.221  55.331  1.00  0.00     0.034 A 
HETATM    8  C   UNL     1       7.641  22.978  54.899  1.00  0.00     0.030 A 
HETATM    9  C   UNL     1       8.277  22.955  56.138  1.00  0.00     0.002 A 
HETATM   10  C   UNL     1       8.173  24.050  56.992  1.00  0.00     0.001 A 
HETATM   11  C   UNL     1       7.443  25.173  56.597  1.00  0.00     0.015 A 
HETATM   12  H   UNL     1       6.233  23.278  52.734  1.00  0.00     0.170 HD
ENDROOT
BRANCH   1  13
HETATM   13  C   UNL     1       6.994  27.690  54.983  1.00  0.00     0.279 C 
HETATM   14  N   UNL     1       6.565  28.717  55.825  1.00  0.00    -0.355 N 
HETATM   15  H   UNL     1       5.854  28.427  56.495  1.00  0.00     0.162 HD
HETATM   16  O   UNL     1       8.011  27.832  54.302  1.00  0.00    -0.268 OA
BRANCH  14  17
HETATM   17  C   UNL     1       7.513  29.721  56.290  1.00  0.00     0.150 C 
BRANCH  17  18
HETATM   18  C   UNL     1       8.398  29.370  57.508  1.00  0.00     0.254 C 
BRANCH  18  19
HETATM   19  N   UNL     1       9.098  30.555  58.176  1.00  0.00    -0.070 N 
HETATM   20  H   UNL     1       8.584  31.372  57.823  1.00  0.00     0.279 HD
BRANCH  19  21
HETATM   21  C   UNL     1      10.546  30.757  57.785  1.00  0.00     0.230 C 
HETATM   22  C   UNL     1      11.046  29.607  56.930  1.00  0.00     0.034 C 
ENDBRANCH  19  21
BRANCH  19  23
HETATM   23  C   UNL     1       8.881  30.579  59.679  1.00  0.00     0.230 C 
HETATM   24  C   UNL     1       9.400  31.876  60.276  1.00  0.00     0.034 C 
ENDBRANCH  19  23
ENDBRANCH  18  19
ENDBRANCH  17  18
ENDBRANCH  14  17
ENDBRANCH   1  13
BRANCH   1  25
HETATM   25  O   UNL     1       4.898  26.440  55.731  1.00  0.00    -0.359 OA
HETATM   26  H   UNL     1       4.692  25.509  55.917  1.00  0.00     0.213 HD
ENDBRANCH   1  25
BRANCH   2  27
HETATM   27  C   UNL     1       4.930  27.547  52.879  1.00  0.00     0.043 A 
HETATM   28  C   UNL     1       3.701  28.079  53.314  1.00  0.00     0.031 A 
HETATM   29  C   UNL     1       3.175  29.261  52.770  1.00  0.00     0.026 A 
HETATM   30  C   UNL     1       3.869  29.940  51.777  1.00  0.00     0.034 A 
HETATM   31 CL   UNL     1       3.236  31.397  51.127  1.00  0.00    -0.084 Cl
HETATM   32  C   UNL     1       5.082  29.443  51.325  1.00  0.00     0.026 A 
HETATM   33  C   UNL     1       5.605  28.263  51.873  1.00  0.00     0.031 A 
ENDBRANCH   2  27
TORSDOF 8
ENDMDL
MODEL 6
REMARK VINA RESULT:      -7.9      2.168      2.938
REMARK  8 active torsions:
REMARK  status: ('A' for Active; 'I' for Inactive)
REMARK    1  A    between atoms: C_2  and  N_3 
REMARK    2  A    between atoms: N_3  and  C_5 
REMARK    3  A    between atoms: N_3  and  C_29 
REMARK    4  A    between atoms: C_5  and  C_6 
REMARK    5  A    between atoms: C_6  and  N_7 
REMARK       I    between atoms: N_7  and  C_8 
REMARK    6  A    between atoms: C_8  and  C_9 
REMARK    7  A    between atoms: C_9  and  O_10 
REMARK    8  A    between atoms: N_11  and  C_12 
ROOT
HETATM    1  C   UNL     1       7.200  27.378  54.566  1.00  0.00     0.256 C 
HETATM    2  N   UNL     1       7.132  27.415  56.042  1.00  0.00    -0.254 N 
HETATM    3  C   UNL     1       7.586  26.334  56.791  1.00  0.00     0.330 C 
HETATM    4  O   UNL     1       7.761  26.329  58.008  1.00  0.00    -0.246 OA
HETATM    5  N   UNL     1       7.840  25.167  56.143  1.00  0.00    -0.308 N 
HETATM    6  C   UNL     1       7.769  24.952  54.780  1.00  0.00     0.048 A 
HETATM    7  C   UNL     1       7.464  26.018  53.953  1.00  0.00     0.034 A 
HETATM    8  C   UNL     1       8.037  23.684  54.263  1.00  0.00     0.030 A 
HETATM    9  C   UNL     1       8.007  23.479  52.885  1.00  0.00     0.002 A 
HETATM   10  C   UNL     1       7.732  24.545  52.032  1.00  0.00     0.001 A 
HETATM   11  C   UNL     1       7.474  25.811  52.561  1.00  0.00     0.015 A 
HETATM   12  H   UNL     1       8.155  24.421  56.754  1.00  0.00     0.170 HD
ENDROOT
BRANCH   1  13
HETATM   13  C   UNL     1       5.775  27.860  53.996  1.00  0.00     0.279 C 
HETATM   14  N   UNL     1       5.734  29.144  53.452  1.00  0.00    -0.355 N 
HETATM   15  H   UNL     1       6.651  29.512  53.202  1.00  0.00     0.162 HD
HETATM   16  O   UNL     1       4.739  27.203  54.111  1.00  0.00    -0.268 OA
BRANCH  14  17
HETATM   17  C   UNL     1       4.629  29.534  52.586  1.00  0.00     0.150 C 
BRANCH  17  18
HETATM   18  C   UNL     1       4.936  29.785  51.092  1.00  0.00     0.254 C 
BRANCH  18  19
HETATM   19  N   UNL     1       5.392  28.558  50.299  1.00  0.00    -0.070 N 
HETATM   20  H   UNL     1       6.302  28.324  50.713  1.00  0.00     0.279 HD
BRANCH  19  21
HETATM   21  C   UNL     1       5.639  28.793  48.825  1.00  0.00     0.230 C 
HETATM   22  C   UNL     1       4.829  29.973  48.318  1.00  0.00     0.034 C 
ENDBRANCH  19  21
BRANCH  19  23
HETATM   23  C   UNL     1       4.519  27.344  50.567  1.00  0.00     0.230 C 
HETATM   24  C   UNL     1       4.608  26.354  49.417  1.00  0.00     0.034 C 
ENDBRANCH  19  23
ENDBRANCH  18  19
ENDBRANCH  17  18
ENDBRANCH  14  17
ENDBRANCH   1  13
BRANCH   1  25
HETATM   25  O   UNL     1       8.302  28.170  54.167  1.00  0.00    -0.359 OA
HETATM   26  H   UNL     1       8.714  28.477  54.992  1.00  0.00     0.213 HD
ENDBRANCH   1  25
BRANCH   2  27
HETATM   27  C   UNL     1       6.656  28.626  56.705  1.00  0.00     0.043 A 
HETATM   28  C   UNL     1       5.305  28.805  57.061  1.00  0.00     0.031 A 
HETATM   29  C   UNL     1       4.868  29.946  57.751  1.00  0.00     0.026 A 
HETATM   30  C   UNL     1       5.775  30.936  58.104  1.00  0.00     0.034 A 
HETATM   31 CL   UNL     1       5.245  32.321  58.968  1.00  0.00    -0.084 Cl
HETATM   32  C   UNL     1       7.114  30.792  57.769  1.00  0.00     0.026 A 
HETATM   33  C   UNL     1       7.546  29.649  57.082  1.00  0.00     0.031 A 
ENDBRANCH   2  27
TORSDOF 8
ENDMDL
MODEL 7
REMARK VINA RESULT:      -7.6      2.962      6.289
REMARK  8 active torsions:
REMARK  status: ('A' for Active; 'I' for Inactive)
REMARK    1  A    between atoms: C_2  and  N_3 
REMARK    2  A    between atoms: N_3  and  C_5 
REMARK    3  A    between atoms: N_3  and  C_29 
REMARK    4  A    between atoms: C_5  and  C_6 
REMARK    5  A    between atoms: C_6  and  N_7 
REMARK       I    between atoms: N_7  and  C_8 
REMARK    6  A    between atoms: C_8  and  C_9 
REMARK    7  A    between atoms: C_9  and  O_10 
REMARK    8  A    between atoms: N_11  and  C_12 
ROOT
HETATM    1  C   UNL     1       5.923  26.171  55.029  1.00  0.00     0.256 C 
HETATM    2  N   UNL     1       5.763  27.486  54.372  1.00  0.00    -0.254 N 
HETATM    3  C   UNL     1       6.029  27.626  53.013  1.00  0.00     0.330 C 
HETATM    4  O   UNL     1       5.747  28.606  52.326  1.00  0.00    -0.246 OA
HETATM    5  N   UNL     1       6.678  26.615  52.379  1.00  0.00    -0.308 N 
HETATM    6  C   UNL     1       7.044  25.401  52.930  1.00  0.00     0.048 A 
HETATM    7  C   UNL     1       6.685  25.128  54.238  1.00  0.00     0.034 A 
HETATM    8  C   UNL     1       7.731  24.467  52.154  1.00  0.00     0.030 A 
HETATM    9  C   UNL     1       8.062  23.227  52.697  1.00  0.00     0.002 A 
HETATM   10  C   UNL     1       7.684  22.919  54.001  1.00  0.00     0.001 A 
HETATM   11  C   UNL     1       6.988  23.858  54.765  1.00  0.00     0.015 A 
HETATM   12  H   UNL     1       6.849  26.792  51.396  1.00  0.00     0.170 HD
ENDROOT
BRANCH   1  13
HETATM   13  C   UNL     1       6.751  26.398  56.389  1.00  0.00     0.279 C 
HETATM   14  N   UNL     1       8.021  26.958  56.248  1.00  0.00    -0.355 N 
HETATM   15  H   UNL     1       8.163  27.432  55.357  1.00  0.00     0.162 HD
HETATM   16  O   UNL     1       6.362  26.016  57.494  1.00  0.00    -0.268 OA
BRANCH  14  17
HETATM   17  C   UNL     1       8.691  27.545  57.400  1.00  0.00     0.150 C 
BRANCH  17  18
HETATM   18  C   UNL     1       8.134  28.875  57.959  1.00  0.00     0.254 C 
BRANCH  18  19
HETATM   19  N   UNL     1       8.978  30.117  57.664  1.00  0.00    -0.070 N 
HETATM   20  H   UNL     1       8.302  30.784  57.270  1.00  0.00     0.279 HD
BRANCH  19  21
HETATM   21  C   UNL     1      10.058  29.933  56.621  1.00  0.00     0.230 C 
HETATM   22  C   UNL     1      11.433  29.882  57.262  1.00  0.00     0.034 C 
ENDBRANCH  19  21
BRANCH  19  23
HETATM   23  C   UNL     1       9.486  30.781  58.932  1.00  0.00     0.230 C 
HETATM   24  C   UNL     1       8.497  31.824  59.425  1.00  0.00     0.034 C 
ENDBRANCH  19  23
ENDBRANCH  18  19
ENDBRANCH  17  18
ENDBRANCH  14  17
ENDBRANCH   1  13
BRANCH   1  25
HETATM   25  O   UNL     1       4.632  25.617  55.200  1.00  0.00    -0.359 OA
HETATM   26  H   UNL     1       4.753  24.850  55.785  1.00  0.00     0.213 HD
ENDBRANCH   1  25
BRANCH   2  27
HETATM   27  C   UNL     1       5.249  28.613  55.146  1.00  0.00     0.043 A 
HETATM   28  C   UNL     1       3.961  28.607  55.715  1.00  0.00     0.031 A 
HETATM   29  C   UNL     1       3.499  29.670  56.507  1.00  0.00     0.026 A 
HETATM   30  C   UNL     1       4.319  30.764  56.749  1.00  0.00     0.034 A 
HETATM   31 CL   UNL     1       3.762  32.054  57.735  1.00  0.00    -0.084 Cl
HETATM   32  C   UNL     1       5.594  30.803  56.203  1.00  0.00     0.026 A 
HETATM   33  C   UNL     1       6.051  29.737  55.415  1.00  0.00     0.031 A 
ENDBRANCH   2  27
TORSDOF 8
ENDMDL
MODEL 8
REMARK VINA RESULT:      -7.5      2.988      4.260
REMARK  8 active torsions:
REMARK  status: ('A' for Active; 'I' for Inactive)
REMARK    1  A    between atoms: C_2  and  N_3 
REMARK    2  A    between atoms: N_3  and  C_5 
REMARK    3  A    between atoms: N_3  and  C_29 
REMARK    4  A    between atoms: C_5  and  C_6 
REMARK    5  A    between atoms: C_6  and  N_7 
REMARK       I    between atoms: N_7  and  C_8 
REMARK    6  A    between atoms: C_8  and  C_9 
REMARK    7  A    between atoms: C_9  and  O_10 
REMARK    8  A    between atoms: N_11  and  C_12 
ROOT
HETATM    1  C   UNL     1       7.029  27.581  54.539  1.00  0.00     0.256 C 
HETATM    2  N   UNL     1       6.939  27.619  56.015  1.00  0.00    -0.254 N 
HETATM    3  C   UNL     1       7.423  26.558  56.773  1.00  0.00     0.330 C 
HETATM    4  O   UNL     1       7.580  26.562  57.992  1.00  0.00    -0.246 OA
HETATM    5  N   UNL     1       7.728  25.399  56.132  1.00  0.00    -0.308 N 
HETATM    6  C   UNL     1       7.684  25.178  54.769  1.00  0.00     0.048 A 
HETATM    7  C   UNL     1       7.352  26.230  53.934  1.00  0.00     0.034 A 
HETATM    8  C   UNL     1       8.006  23.920  54.259  1.00  0.00     0.030 A 
HETATM    9  C   UNL     1       8.002  23.710  52.882  1.00  0.00     0.002 A 
HETATM   10  C   UNL     1       7.700  24.763  52.022  1.00  0.00     0.001 A 
HETATM   11  C   UNL     1       7.389  26.020  52.543  1.00  0.00     0.015 A 
HETATM   12  H   UNL     1       8.063  24.666  56.749  1.00  0.00     0.170 HD
ENDROOT
BRANCH   1  13
HETATM   13  C   UNL     1       5.596  28.008  53.948  1.00  0.00     0.279 C 
HETATM   14  N   UNL     1       5.539  29.250  53.314  1.00  0.00    -0.355 N 
HETATM   15  H   UNL     1       6.450  29.607  53.030  1.00  0.00     0.162 HD
HETATM   16  O   UNL     1       4.567  27.353  54.119  1.00  0.00    -0.268 OA
BRANCH  14  17
HETATM   17  C   UNL     1       4.424  29.567  52.432  1.00  0.00     0.150 C 
BRANCH  17  18
HETATM   18  C   UNL     1       3.718  30.931  52.621  1.00  0.00     0.254 C 
BRANCH  18  19
HETATM   19  N   UNL     1       4.568  32.026  53.269  1.00  0.00    -0.070 N 
HETATM   20  H   UNL     1       5.522  31.644  53.241  1.00  0.00     0.279 HD
BRANCH  19  21
HETATM   21  C   UNL     1       4.263  32.309  54.723  1.00  0.00     0.230 C 
HETATM   22  C   UNL     1       2.854  31.871  55.080  1.00  0.00     0.034 C 
ENDBRANCH  19  21
BRANCH  19  23
HETATM   23  C   UNL     1       4.628  33.284  52.420  1.00  0.00     0.230 C 
HETATM   24  C   UNL     1       5.283  32.997  51.079  1.00  0.00     0.034 C 
ENDBRANCH  19  23
ENDBRANCH  18  19
ENDBRANCH  17  18
ENDBRANCH  14  17
ENDBRANCH   1  13
BRANCH   1  25
HETATM   25  O   UNL     1       8.107  28.411  54.153  1.00  0.00    -0.359 OA
HETATM   26  H   UNL     1       8.192  29.073  54.860  1.00  0.00     0.213 HD
ENDBRANCH   1  25
BRANCH   2  27
HETATM   27  C   UNL     1       6.410  28.814  56.667  1.00  0.00     0.043 A 
HETATM   28  C   UNL     1       5.061  28.920  57.057  1.00  0.00     0.031 A 
HETATM   29  C   UNL     1       4.575  30.047  57.737  1.00  0.00     0.026 A 
HETATM   30  C   UNL     1       5.431  31.096  58.046  1.00  0.00     0.034 A 
HETATM   31 CL   UNL     1       4.843  32.465  58.897  1.00  0.00    -0.084 Cl
HETATM   32  C   UNL     1       6.767  31.024  57.676  1.00  0.00     0.026 A 
HETATM   33  C   UNL     1       7.247  29.895  56.999  1.00  0.00     0.031 A 
ENDBRANCH   2  27
TORSDOF 8
ENDMDL
MODEL 9
REMARK VINA RESULT:      -7.4      2.862      6.726
REMARK  8 active torsions:
REMARK  status: ('A' for Active; 'I' for Inactive)
REMARK    1  A    between atoms: C_2  and  N_3 
REMARK    2  A    between atoms: N_3  and  C_5 
REMARK    3  A    between atoms: N_3  and  C_29 
REMARK    4  A    between atoms: C_5  and  C_6 
REMARK    5  A    between atoms: C_6  and  N_7 
REMARK       I    between atoms: N_7  and  C_8 
REMARK    6  A    between atoms: C_8  and  C_9 
REMARK    7  A    between atoms: C_9  and  O_10 
REMARK    8  A    between atoms: N_11  and  C_12 
ROOT
HETATM    1  C   UNL     1       5.230  27.088  53.215  1.00  0.00     0.256 C 
HETATM    2  N   UNL     1       5.136  27.515  51.803  1.00  0.00    -0.254 N 
HETATM    3  C   UNL     1       5.440  26.622  50.780  1.00  0.00     0.330 C 
HETATM    4  O   UNL     1       5.213  26.798  49.584  1.00  0.00    -0.246 OA
HETATM    5  N   UNL     1       6.064  25.460  51.107  1.00  0.00    -0.308 N 
HETATM    6  C   UNL     1       6.370  25.023  52.382  1.00  0.00     0.048 A 
HETATM    7  C   UNL     1       5.970  25.789  53.462  1.00  0.00     0.034 A 
HETATM    8  C   UNL     1       7.038  23.811  52.558  1.00  0.00     0.030 A 
HETATM    9  C   UNL     1       7.308  23.351  53.845  1.00  0.00     0.002 A 
HETATM   10  C   UNL     1       6.888  24.091  54.947  1.00  0.00     0.001 A 
HETATM   11  C   UNL     1       6.211  25.297  54.759  1.00  0.00     0.015 A 
HETATM   12  H   UNL     1       6.265  24.865  50.311  1.00  0.00     0.170 HD
ENDROOT
BRANCH   1  13
HETATM   13  C   UNL     1       6.034  28.224  54.020  1.00  0.00     0.279 C 
HETATM   14  N   UNL     1       5.302  28.935  54.972  1.00  0.00    -0.355 N 
HETATM   15  H   UNL     1       4.446  28.467  55.264  1.00  0.00     0.162 HD
HETATM   16  O   UNL     1       7.195  28.546  53.765  1.00  0.00    -0.268 OA
BRANCH  14  17
HETATM   17  C   UNL     1       5.995  29.703  55.999  1.00  0.00     0.150 C 
BRANCH  17  18
HETATM   18  C   UNL     1       6.149  29.063  57.398  1.00  0.00     0.254 C 
BRANCH  18  19
HETATM   19  N   UNL     1       7.586  28.937  57.909  1.00  0.00    -0.070 N 
HETATM   20  H   UNL     1       7.490  28.403  58.781  1.00  0.00     0.279 HD
BRANCH  19  21
HETATM   21  C   UNL     1       8.259  30.241  58.277  1.00  0.00     0.230 C 
HETATM   22  C   UNL     1       8.420  30.367  59.782  1.00  0.00     0.034 C 
ENDBRANCH  19  21
BRANCH  19  23
HETATM   23  C   UNL     1       8.442  28.063  57.009  1.00  0.00     0.230 C 
HETATM   24  C   UNL     1       8.253  26.594  57.351  1.00  0.00     0.034 C 
ENDBRANCH  19  23
ENDBRANCH  18  19
ENDBRANCH  17  18
ENDBRANCH  14  17
ENDBRANCH   1  13
BRANCH   1  25
HETATM   25  O   UNL     1       3.916  26.843  53.677  1.00  0.00    -0.359 OA
HETATM   26  H   UNL     1       3.974  26.034  54.213  1.00  0.00     0.213 HD
ENDBRANCH   1  25
BRANCH   2  27
HETATM   27  C   UNL     1       4.649  28.856  51.493  1.00  0.00     0.043 A 
HETATM   28  C   UNL     1       5.490  29.857  50.970  1.00  0.00     0.031 A 
HETATM   29  C   UNL     1       5.000  31.124  50.619  1.00  0.00     0.026 A 
HETATM   30  C   UNL     1       3.653  31.419  50.782  1.00  0.00     0.034 A 
HETATM   31 CL   UNL     1       3.049  32.962  50.333  1.00  0.00    -0.084 Cl
HETATM   32  C   UNL     1       2.796  30.456  51.295  1.00  0.00     0.026 A 
HETATM   33  C   UNL     1       3.291  29.191  51.642  1.00  0.00     0.031 A 
ENDBRANCH   2  27
TORSDOF 8
ENDMDL
MODEL 10
REMARK VINA RESULT:      -7.3      2.183      6.675
REMARK  8 active torsions:
REMARK  status: ('A' for Active; 'I' for Inactive)
REMARK    1  A    between atoms: C_2  and  N_3 
REMARK    2  A    between atoms: N_3  and  C_5 
REMARK    3  A    between atoms: N_3  and  C_29 
REMARK    4  A    between atoms: C_5  and  C_6 
REMARK    5  A    between atoms: C_6  and  N_7 
REMARK       I    between atoms: N_7  and  C_8 
REMARK    6  A    between atoms: C_8  and  C_9 
REMARK    7  A    between atoms: C_9  and  O_10 
REMARK    8  A    between atoms: N_11  and  C_12 
ROOT
HETATM    1  C   UNL     1       4.942  27.071  51.612  1.00  0.00     0.256 C 
HETATM    2  N   UNL     1       5.584  28.343  52.007  1.00  0.00    -0.254 N 
HETATM    3  C   UNL     1       5.637  29.408  51.112  1.00  0.00     0.330 C 
HETATM    4  O   UNL     1       5.962  30.560  51.389  1.00  0.00    -0.246 OA
HETATM    5  N   UNL     1       5.330  29.167  49.810  1.00  0.00    -0.308 N 
HETATM    6  C   UNL     1       4.887  27.971  49.279  1.00  0.00     0.048 A 
HETATM    7  C   UNL     1       4.670  26.903  50.131  1.00  0.00     0.034 A 
HETATM    8  C   UNL     1       4.635  27.871  47.910  1.00  0.00     0.030 A 
HETATM    9  C   UNL     1       4.148  26.678  47.381  1.00  0.00     0.002 A 
HETATM   10  C   UNL     1       3.893  25.600  48.225  1.00  0.00     0.001 A 
HETATM   11  C   UNL     1       4.140  25.714  49.594  1.00  0.00     0.015 A 
HETATM   12  H   UNL     1       5.402  29.985  49.215  1.00  0.00     0.170 HD
ENDROOT
BRANCH   1  13
HETATM   13  C   UNL     1       5.930  25.872  52.027  1.00  0.00     0.279 C 
HETATM   14  N   UNL     1       5.592  25.171  53.185  1.00  0.00    -0.355 N 
HETATM   15  H   UNL     1       4.620  25.289  53.466  1.00  0.00     0.162 HD
HETATM   16  O   UNL     1       6.986  25.627  51.441  1.00  0.00    -0.268 OA
BRANCH  14  17
HETATM   17  C   UNL     1       6.180  23.863  53.442  1.00  0.00     0.150 C 
BRANCH  17  18
HETATM   18  C   UNL     1       7.193  23.742  54.604  1.00  0.00     0.254 C 
BRANCH  18  19
HETATM   19  N   UNL     1       7.856  22.372  54.758  1.00  0.00    -0.070 N 
HETATM   20  H   UNL     1       7.064  21.717  54.775  1.00  0.00     0.279 HD
BRANCH  19  21
HETATM   21  C   UNL     1       8.615  22.160  56.050  1.00  0.00     0.230 C 
HETATM   22  C   UNL     1       8.271  20.819  56.671  1.00  0.00     0.034 C 
ENDBRANCH  19  21
BRANCH  19  23
HETATM   23  C   UNL     1       8.658  21.980  53.529  1.00  0.00     0.230 C 
HETATM   24  C   UNL     1       8.176  20.649  52.975  1.00  0.00     0.034 C 
ENDBRANCH  19  23
ENDBRANCH  18  19
ENDBRANCH  17  18
ENDBRANCH  14  17
ENDBRANCH   1  13
BRANCH   1  25
HETATM   25  O   UNL     1       3.664  27.029  52.216  1.00  0.00    -0.359 OA
HETATM   26  H   UNL     1       3.458  27.949  52.454  1.00  0.00     0.213 HD
ENDBRANCH   1  25
BRANCH   2  27
HETATM   27  C   UNL     1       6.090  28.495  53.368  1.00  0.00     0.043 A 
HETATM   28  C   UNL     1       5.257  28.865  54.441  1.00  0.00     0.031 A 
HETATM   29  C   UNL     1       5.740  28.950  55.756  1.00  0.00     0.026 A 
HETATM   30  C   UNL     1       7.071  28.665  56.028  1.00  0.00     0.034 A 
HETATM   31 CL   UNL     1       7.657  28.748  57.639  1.00  0.00    -0.084 Cl
HETATM   32  C   UNL     1       7.920  28.297  54.994  1.00  0.00     0.026 A 
HETATM   33  C   UNL     1       7.432  28.211  53.683  1.00  0.00     0.031 A 
ENDBRANCH   2  27
TORSDOF 8
ENDMDL
