MODEL 1
REMARK VINA RESULT:     -10.3      0.000      0.000
REMARK  3 active torsions:
REMARK  status: ('A' for Active; 'I' for Inactive)
REMARK    1  A    between atoms: N_7  and  N_8 
REMARK       I    between atoms: N_8  and  C_9 
REMARK    2  A    between atoms: C_9  and  C_10 
REMARK    3  A    between atoms: C_14  and  C_15 
ROOT
HETATM    1  N   UNL     1       6.213  28.040  56.737  1.00  0.00    -0.241 N 
HETATM    2  C   UNL     1       5.367  27.639  55.711  1.00  0.00     0.289 C 
HETATM    3  O   UNL     1       4.410  28.288  55.300  1.00  0.00    -0.264 OA
HETATM    4  H   UNL     1       6.823  27.356  57.154  1.00  0.00     0.192 HD
ENDROOT
BRANCH   2   5
HETATM    5  C   UNL     1       5.689  26.353  55.144  1.00  0.00     0.121 A 
HETATM    6  N   UNL     1       5.058  25.895  54.021  1.00  0.00    -0.272 N 
HETATM    7  H   UNL     1       4.333  26.375  53.494  1.00  0.00     0.189 HD
HETATM    8  N   UNL     1       5.463  24.682  53.619  1.00  0.00    -0.174 NA
HETATM    9  C   UNL     1       6.437  24.346  54.479  1.00  0.00     0.089 A 
HETATM   10  C   UNL     1       6.597  25.363  55.463  1.00  0.00     0.071 A 
BRANCH   9  11
HETATM   11  C   UNL     1       7.180  23.089  54.346  1.00  0.00    -0.005 A 
HETATM   12  C   UNL     1       7.572  22.611  53.085  1.00  0.00     0.017 A 
HETATM   13  C   UNL     1       8.277  21.408  52.970  1.00  0.00     0.043 A 
HETATM   14  C   UNL     1       8.590  20.682  54.114  1.00  0.00     0.116 A 
HETATM   15  F   UNL     1       9.265  19.532  53.999  1.00  0.00    -0.206 F 
HETATM   16  C   UNL     1       8.211  21.134  55.370  1.00  0.00     0.043 A 
HETATM   17  C   UNL     1       7.505  22.333  55.486  1.00  0.00     0.017 A 
ENDBRANCH   9  11
ENDBRANCH   2   5
BRANCH   1  18
HETATM   18  N   UNL     1       5.962  29.195  57.410  1.00  0.00    -0.165 NA
HETATM   19  C   UNL     1       6.937  29.964  57.780  1.00  0.00     0.157 A 
HETATM   20  C   UNL     1       8.393  29.947  57.563  1.00  0.00     0.027 A 
HETATM   21  C   UNL     1       6.664  31.204  58.661  1.00  0.00     0.277 A 
HETATM   22  C   UNL     1       9.230  29.155  56.797  1.00  0.00     0.016 A 
HETATM   23  C   UNL     1       8.906  31.018  58.301  1.00  0.00     0.048 A 
HETATM   24  C   UNL     1      10.603  29.431  56.830  1.00  0.00     0.001 A 
HETATM   25  C   UNL     1      11.112  30.492  57.600  1.00  0.00     0.002 A 
HETATM   26  C   UNL     1      10.255  31.308  58.341  1.00  0.00     0.030 A 
HETATM   27  N   UNL     1       7.901  31.735  58.937  1.00  0.00    -0.321 N 
HETATM   28  H   UNL     1       8.021  32.565  59.499  1.00  0.00     0.169 HD
HETATM   29  O   UNL     1       5.585  31.606  59.035  1.00  0.00    -0.266 OA
ENDBRANCH   1  18
TORSDOF 3
ENDMDL
MODEL 2
REMARK VINA RESULT:     -10.0      5.086      7.456
REMARK  3 active torsions:
REMARK  status: ('A' for Active; 'I' for Inactive)
REMARK    1  A    between atoms: N_7  and  N_8 
REMARK       I    between atoms: N_8  and  C_9 
REMARK    2  A    between atoms: C_9  and  C_10 
REMARK    3  A    between atoms: C_14  and  C_15 
ROOT
HETATM    1  N   UNL     1       6.326  26.602  54.469  1.00  0.00    -0.241 N 
HETATM    2  C   UNL     1       6.806  27.584  53.613  1.00  0.00     0.289 C 
HETATM    3  O   UNL     1       7.838  28.224  53.792  1.00  0.00    -0.264 OA
HETATM    4  H   UNL     1       5.374  26.293  54.362  1.00  0.00     0.192 HD
ENDROOT
BRANCH   2   5
HETATM    5  C   UNL     1       5.977  27.824  52.458  1.00  0.00     0.121 A 
HETATM    6  N   UNL     1       5.811  29.082  51.952  1.00  0.00    -0.272 N 
HETATM    7  H   UNL     1       6.223  29.940  52.311  1.00  0.00     0.189 HD
HETATM    8  N   UNL     1       5.007  29.143  50.881  1.00  0.00    -0.174 NA
HETATM    9  C   UNL     1       4.669  27.868  50.636  1.00  0.00     0.089 A 
HETATM   10  C   UNL     1       5.245  27.010  51.616  1.00  0.00     0.071 A 
BRANCH   9  11
HETATM   11  C   UNL     1       3.824  27.502  49.496  1.00  0.00    -0.005 A 
HETATM   12  C   UNL     1       2.702  28.274  49.150  1.00  0.00     0.017 A 
HETATM   13  C   UNL     1       1.900  27.912  48.063  1.00  0.00     0.043 A 
HETATM   14  C   UNL     1       2.216  26.780  47.320  1.00  0.00     0.116 A 
HETATM   15  F   UNL     1       1.446  26.438  46.281  1.00  0.00    -0.206 F 
HETATM   16  C   UNL     1       3.318  26.000  47.645  1.00  0.00     0.043 A 
HETATM   17  C   UNL     1       4.118  26.359  48.732  1.00  0.00     0.017 A 
ENDBRANCH   9  11
ENDBRANCH   2   5
BRANCH   1  18
HETATM   18  N   UNL     1       6.975  26.343  55.636  1.00  0.00    -0.165 NA
HETATM   19  C   UNL     1       7.626  25.234  55.794  1.00  0.00     0.157 A 
HETATM   20  C   UNL     1       7.944  24.100  54.912  1.00  0.00     0.027 A 
HETATM   21  C   UNL     1       8.246  24.880  57.164  1.00  0.00     0.277 A 
HETATM   22  C   UNL     1       7.749  23.861  53.562  1.00  0.00     0.016 A 
HETATM   23  C   UNL     1       8.611  23.165  55.709  1.00  0.00     0.048 A 
HETATM   24  C   UNL     1       8.191  22.639  53.042  1.00  0.00     0.001 A 
HETATM   25  C   UNL     1       8.835  21.693  53.861  1.00  0.00     0.002 A 
HETATM   26  C   UNL     1       9.060  21.957  55.213  1.00  0.00     0.030 A 
HETATM   27  N   UNL     1       8.777  23.622  57.010  1.00  0.00    -0.321 N 
HETATM   28  H   UNL     1       9.253  23.139  57.758  1.00  0.00     0.169 HD
HETATM   29  O   UNL     1       8.249  25.568  58.160  1.00  0.00    -0.266 OA
ENDBRANCH   1  18
TORSDOF 3
ENDMDL
MODEL 3
REMARK VINA RESULT:      -9.7      3.955      8.745
REMARK  3 active torsions:
REMARK  status: ('A' for Active; 'I' for Inactive)
REMARK    1  A    between atoms: N_7  and  N_8 
REMARK       I    between atoms: N_8  and  C_9 
REMARK    2  A    between atoms: C_9  and  C_10 
REMARK    3  A    between atoms: C_14  and  C_15 
ROOT
HETATM    1  N   UNL     1       6.518  27.772  55.681  1.00  0.00    -0.241 N 
HETATM    2  C   UNL     1       7.685  28.504  55.507  1.00  0.00     0.289 C 
HETATM    3  O   UNL     1       8.302  28.594  54.450  1.00  0.00    -0.264 OA
HETATM    4  H   UNL     1       6.209  27.572  56.618  1.00  0.00     0.192 HD
ENDROOT
BRANCH   2   5
HETATM    5  C   UNL     1       8.153  29.169  56.697  1.00  0.00     0.121 A 
HETATM    6  N   UNL     1       9.474  29.474  56.867  1.00  0.00    -0.272 N 
HETATM    7  H   UNL     1      10.231  29.277  56.217  1.00  0.00     0.189 HD
HETATM    8  N   UNL     1       9.752  30.086  58.027  1.00  0.00    -0.174 NA
HETATM    9  C   UNL     1       8.561  30.239  58.625  1.00  0.00     0.089 A 
HETATM   10  C   UNL     1       7.533  29.660  57.829  1.00  0.00     0.071 A 
BRANCH   9  11
HETATM   11  C   UNL     1       8.431  30.922  59.916  1.00  0.00    -0.005 A 
HETATM   12  C   UNL     1       7.551  32.005  60.076  1.00  0.00     0.017 A 
HETATM   13  C   UNL     1       7.438  32.651  61.311  1.00  0.00     0.043 A 
HETATM   14  C   UNL     1       8.206  32.219  62.387  1.00  0.00     0.116 A 
HETATM   15  F   UNL     1       8.095  32.841  63.567  1.00  0.00    -0.206 F 
HETATM   16  C   UNL     1       9.085  31.153  62.252  1.00  0.00     0.043 A 
HETATM   17  C   UNL     1       9.200  30.508  61.018  1.00  0.00     0.017 A 
ENDBRANCH   9  11
ENDBRANCH   2   5
BRANCH   1  18
HETATM   18  N   UNL     1       6.023  27.030  54.653  1.00  0.00    -0.165 NA
HETATM   19  C   UNL     1       6.358  25.786  54.521  1.00  0.00     0.157 A 
HETATM   20  C   UNL     1       7.155  24.849  55.328  1.00  0.00     0.027 A 
HETATM   21  C   UNL     1       5.906  24.982  53.280  1.00  0.00     0.277 A 
HETATM   22  C   UNL     1       7.749  24.937  56.576  1.00  0.00     0.016 A 
HETATM   23  C   UNL     1       7.215  23.660  54.595  1.00  0.00     0.048 A 
HETATM   24  C   UNL     1       8.450  23.820  57.048  1.00  0.00     0.001 A 
HETATM   25  C   UNL     1       8.529  22.639  56.288  1.00  0.00     0.002 A 
HETATM   26  C   UNL     1       7.897  22.547  55.046  1.00  0.00     0.030 A 
HETATM   27  N   UNL     1       6.496  23.748  53.411  1.00  0.00    -0.321 N 
HETATM   28  H   UNL     1       6.367  23.012  52.733  1.00  0.00     0.169 HD
HETATM   29  O   UNL     1       5.193  25.372  52.383  1.00  0.00    -0.266 OA
ENDBRANCH   1  18
TORSDOF 3
ENDMDL
MODEL 4
REMARK VINA RESULT:      -9.7      4.065      8.818
REMARK  3 active torsions:
REMARK  status: ('A' for Active; 'I' for Inactive)
REMARK    1  A    between atoms: N_7  and  N_8 
REMARK       I    between atoms: N_8  and  C_9 
REMARK    2  A    between atoms: C_9  and  C_10 
REMARK    3  A    between atoms: C_14  and  C_15 
ROOT
HETATM    1  N   UNL     1       7.010  28.586  54.697  1.00  0.00    -0.241 N 
HETATM    2  C   UNL     1       6.202  29.111  55.697  1.00  0.00     0.289 C 
HETATM    3  O   UNL     1       4.990  29.275  55.602  1.00  0.00    -0.264 OA
HETATM    4  H   UNL     1       8.008  28.696  54.775  1.00  0.00     0.192 HD
ENDROOT
BRANCH   2   5
HETATM    5  C   UNL     1       6.908  29.478  56.900  1.00  0.00     0.121 A 
HETATM    6  N   UNL     1       8.182  29.045  57.134  1.00  0.00    -0.272 N 
HETATM    7  H   UNL     1       8.742  28.449  56.529  1.00  0.00     0.189 HD
HETATM    8  N   UNL     1       8.700  29.466  58.297  1.00  0.00    -0.174 NA
HETATM    9  C   UNL     1       7.751  30.251  58.829  1.00  0.00     0.089 A 
HETATM   10  C   UNL     1       6.602  30.270  57.988  1.00  0.00     0.071 A 
BRANCH   9  11
HETATM   11  C   UNL     1       7.956  30.953  60.099  1.00  0.00    -0.005 A 
HETATM   12  C   UNL     1       8.960  30.549  60.995  1.00  0.00     0.017 A 
HETATM   13  C   UNL     1       9.144  31.224  62.206  1.00  0.00     0.043 A 
HETATM   14  C   UNL     1       8.326  32.302  62.524  1.00  0.00     0.116 A 
HETATM   15  F   UNL     1       8.505  32.944  63.685  1.00  0.00    -0.206 F 
HETATM   16  C   UNL     1       7.325  32.717  61.657  1.00  0.00     0.043 A 
HETATM   17  C   UNL     1       7.139  32.042  60.448  1.00  0.00     0.017 A 
ENDBRANCH   9  11
ENDBRANCH   2   5
BRANCH   1  18
HETATM   18  N   UNL     1       6.476  28.282  53.483  1.00  0.00    -0.165 NA
HETATM   19  C   UNL     1       6.592  27.087  52.996  1.00  0.00     0.157 A 
HETATM   20  C   UNL     1       7.140  25.821  53.510  1.00  0.00     0.027 A 
HETATM   21  C   UNL     1       6.106  26.776  51.562  1.00  0.00     0.277 A 
HETATM   22  C   UNL     1       7.636  25.430  54.742  1.00  0.00     0.016 A 
HETATM   23  C   UNL     1       7.046  24.904  52.458  1.00  0.00     0.048 A 
HETATM   24  C   UNL     1       8.084  24.111  54.879  1.00  0.00     0.001 A 
HETATM   25  C   UNL     1       8.012  23.205  53.805  1.00  0.00     0.002 A 
HETATM   26  C   UNL     1       7.477  23.598  52.577  1.00  0.00     0.030 A 
HETATM   27  N   UNL     1       6.452  25.466  51.336  1.00  0.00    -0.321 N 
HETATM   28  H   UNL     1       6.249  24.994  50.467  1.00  0.00     0.169 HD
HETATM   29  O   UNL     1       5.550  27.538  50.803  1.00  0.00    -0.266 OA
ENDBRANCH   1  18
TORSDOF 3
ENDMDL
MODEL 5
REMARK VINA RESULT:      -9.4      3.300      5.051
REMARK  3 active torsions:
REMARK  status: ('A' for Active; 'I' for Inactive)
REMARK    1  A    between atoms: N_7  and  N_8 
REMARK       I    between atoms: N_8  and  C_9 
REMARK    2  A    between atoms: C_9  and  C_10 
REMARK    3  A    between atoms: C_14  and  C_15 
ROOT
HETATM    1  N   UNL     1       5.786  31.391  59.242  1.00  0.00    -0.241 N 
HETATM    2  C   UNL     1       5.893  30.975  57.921  1.00  0.00     0.289 C 
HETATM    3  O   UNL     1       5.524  31.629  56.950  1.00  0.00    -0.264 OA
HETATM    4  H   UNL     1       5.904  30.710  59.973  1.00  0.00     0.192 HD
ENDROOT
BRANCH   2   5
HETATM    5  C   UNL     1       6.477  29.668  57.755  1.00  0.00     0.121 A 
HETATM    6  N   UNL     1       7.575  29.285  58.474  1.00  0.00    -0.272 N 
HETATM    7  H   UNL     1       8.076  29.843  59.161  1.00  0.00     0.189 HD
HETATM    8  N   UNL     1       8.003  28.043  58.204  1.00  0.00    -0.174 NA
HETATM    9  C   UNL     1       7.124  27.567  57.310  1.00  0.00     0.089 A 
HETATM   10  C   UNL     1       6.160  28.564  56.989  1.00  0.00     0.071 A 
BRANCH   9  11
HETATM   11  C   UNL     1       7.219  26.198  56.793  1.00  0.00    -0.005 A 
HETATM   12  C   UNL     1       8.145  25.286  57.326  1.00  0.00     0.017 A 
HETATM   13  C   UNL     1       8.229  23.984  56.822  1.00  0.00     0.043 A 
HETATM   14  C   UNL     1       7.391  23.592  55.785  1.00  0.00     0.116 A 
HETATM   15  F   UNL     1       7.475  22.345  55.305  1.00  0.00    -0.206 F 
HETATM   16  C   UNL     1       6.470  24.477  55.240  1.00  0.00     0.043 A 
HETATM   17  C   UNL     1       6.386  25.778  55.741  1.00  0.00     0.017 A 
ENDBRANCH   9  11
ENDBRANCH   2   5
BRANCH   1  18
HETATM   18  N   UNL     1       5.173  32.570  59.534  1.00  0.00    -0.165 NA
HETATM   19  C   UNL     1       5.425  33.183  60.647  1.00  0.00     0.157 A 
HETATM   20  C   UNL     1       6.364  32.946  61.756  1.00  0.00     0.027 A 
HETATM   21  C   UNL     1       4.630  34.448  61.041  1.00  0.00     0.277 A 
HETATM   22  C   UNL     1       7.389  32.038  61.956  1.00  0.00     0.016 A 
HETATM   23  C   UNL     1       6.086  33.926  62.714  1.00  0.00     0.048 A 
HETATM   24  C   UNL     1       8.095  32.102  63.163  1.00  0.00     0.001 A 
HETATM   25  C   UNL     1       7.787  33.074  64.133  1.00  0.00     0.002 A 
HETATM   26  C   UNL     1       6.775  34.009  63.907  1.00  0.00     0.030 A 
HETATM   27  N   UNL     1       5.079  34.786  62.295  1.00  0.00    -0.321 N 
HETATM   28  H   UNL     1       4.728  35.587  62.799  1.00  0.00     0.169 HD
HETATM   29  O   UNL     1       3.783  35.008  60.381  1.00  0.00    -0.266 OA
ENDBRANCH   1  18
TORSDOF 3
ENDMDL
MODEL 6
REMARK VINA RESULT:      -9.4      5.226      7.986
REMARK  3 active torsions:
REMARK  status: ('A' for Active; 'I' for Inactive)
REMARK    1  A    between atoms: N_7  and  N_8 
REMARK       I    between atoms: N_8  and  C_9 
REMARK    2  A    between atoms: C_9  and  C_10 
REMARK    3  A    between atoms: C_14  and  C_15 
ROOT
HETATM    1  N   UNL     1       7.182  26.110  54.198  1.00  0.00    -0.241 N 
HETATM    2  C   UNL     1       5.894  26.598  54.024  1.00  0.00     0.289 C 
HETATM    3  O   UNL     1       5.124  26.878  54.938  1.00  0.00    -0.264 OA
HETATM    4  H   UNL     1       7.654  25.701  53.408  1.00  0.00     0.192 HD
ENDROOT
BRANCH   2   5
HETATM    5  C   UNL     1       5.497  26.750  52.647  1.00  0.00     0.121 A 
HETATM    6  N   UNL     1       5.545  25.700  51.774  1.00  0.00    -0.272 N 
HETATM    7  H   UNL     1       5.851  24.752  51.981  1.00  0.00     0.189 HD
HETATM    8  N   UNL     1       5.149  26.001  50.529  1.00  0.00    -0.174 NA
HETATM    9  C   UNL     1       4.773  27.287  50.593  1.00  0.00     0.089 A 
HETATM   10  C   UNL     1       4.993  27.799  51.903  1.00  0.00     0.071 A 
BRANCH   9  11
HETATM   11  C   UNL     1       4.223  27.986  49.428  1.00  0.00    -0.005 A 
HETATM   12  C   UNL     1       2.859  28.316  49.360  1.00  0.00     0.017 A 
HETATM   13  C   UNL     1       2.344  28.979  48.241  1.00  0.00     0.043 A 
HETATM   14  C   UNL     1       3.189  29.312  47.189  1.00  0.00     0.116 A 
HETATM   15  F   UNL     1       2.692  29.946  46.120  1.00  0.00    -0.206 F 
HETATM   16  C   UNL     1       4.540  28.994  47.233  1.00  0.00     0.043 A 
HETATM   17  C   UNL     1       5.055  28.330  48.348  1.00  0.00     0.017 A 
ENDBRANCH   9  11
ENDBRANCH   2   5
BRANCH   1  18
HETATM   18  N   UNL     1       7.643  25.842  55.450  1.00  0.00    -0.165 NA
HETATM   19  C   UNL     1       7.888  24.623  55.812  1.00  0.00     0.157 A 
HETATM   20  C   UNL     1       7.872  23.326  55.117  1.00  0.00     0.027 A 
HETATM   21  C   UNL     1       8.280  24.305  57.273  1.00  0.00     0.277 A 
HETATM   22  C   UNL     1       7.688  22.958  53.795  1.00  0.00     0.016 A 
HETATM   23  C   UNL     1       8.152  22.362  56.090  1.00  0.00     0.048 A 
HETATM   24  C   UNL     1       7.740  21.594  53.482  1.00  0.00     0.001 A 
HETATM   25  C   UNL     1       7.992  20.630  54.474  1.00  0.00     0.002 A 
HETATM   26  C   UNL     1       8.212  21.013  55.799  1.00  0.00     0.030 A 
HETATM   27  N   UNL     1       8.381  22.936  57.334  1.00  0.00    -0.321 N 
HETATM   28  H   UNL     1       8.630  22.448  58.181  1.00  0.00     0.169 HD
HETATM   29  O   UNL     1       8.448  25.101  58.169  1.00  0.00    -0.266 OA
ENDBRANCH   1  18
TORSDOF 3
ENDMDL
MODEL 7
REMARK VINA RESULT:      -9.4      5.887      8.418
REMARK  3 active torsions:
REMARK  status: ('A' for Active; 'I' for Inactive)
REMARK    1  A    between atoms: N_7  and  N_8 
REMARK       I    between atoms: N_8  and  C_9 
REMARK    2  A    between atoms: C_9  and  C_10 
REMARK    3  A    between atoms: C_14  and  C_15 
ROOT
HETATM    1  N   UNL     1       5.450  27.826  49.607  1.00  0.00    -0.241 N 
HETATM    2  C   UNL     1       5.381  27.898  50.992  1.00  0.00     0.289 C 
HETATM    3  O   UNL     1       5.165  28.924  51.628  1.00  0.00    -0.264 OA
HETATM    4  H   UNL     1       5.849  27.002  49.186  1.00  0.00     0.192 HD
ENDROOT
BRANCH   2   5
HETATM    5  C   UNL     1       5.600  26.641  51.664  1.00  0.00     0.121 A 
HETATM    6  N   UNL     1       4.684  25.630  51.593  1.00  0.00    -0.272 N 
HETATM    7  H   UNL     1       3.798  25.647  51.094  1.00  0.00     0.189 HD
HETATM    8  N   UNL     1       5.029  24.527  52.275  1.00  0.00    -0.174 NA
HETATM    9  C   UNL     1       6.244  24.801  52.773  1.00  0.00     0.089 A 
HETATM   10  C   UNL     1       6.631  26.127  52.426  1.00  0.00     0.071 A 
BRANCH   9  11
HETATM   11  C   UNL     1       6.996  23.813  53.552  1.00  0.00    -0.005 A 
HETATM   12  C   UNL     1       7.102  23.921  54.948  1.00  0.00     0.017 A 
HETATM   13  C   UNL     1       7.826  22.974  55.680  1.00  0.00     0.043 A 
HETATM   14  C   UNL     1       8.445  21.920  55.019  1.00  0.00     0.116 A 
HETATM   15  F   UNL     1       9.138  21.016  55.724  1.00  0.00    -0.206 F 
HETATM   16  C   UNL     1       8.357  21.794  53.640  1.00  0.00     0.043 A 
HETATM   17  C   UNL     1       7.637  22.740  52.907  1.00  0.00     0.017 A 
ENDBRANCH   9  11
ENDBRANCH   2   5
BRANCH   1  18
HETATM   18  N   UNL     1       5.345  28.960  48.863  1.00  0.00    -0.165 NA
HETATM   19  C   UNL     1       4.298  29.169  48.129  1.00  0.00     0.157 A 
HETATM   20  C   UNL     1       3.024  28.458  47.938  1.00  0.00     0.027 A 
HETATM   21  C   UNL     1       4.239  30.387  47.180  1.00  0.00     0.277 A 
HETATM   22  C   UNL     1       2.445  27.362  48.555  1.00  0.00     0.016 A 
HETATM   23  C   UNL     1       2.340  29.152  46.936  1.00  0.00     0.048 A 
HETATM   24  C   UNL     1       1.184  26.948  48.107  1.00  0.00     0.001 A 
HETATM   25  C   UNL     1       0.519  27.636  47.077  1.00  0.00     0.002 A 
HETATM   26  C   UNL     1       1.094  28.762  46.484  1.00  0.00     0.030 A 
HETATM   27  N   UNL     1       3.051  30.262  46.500  1.00  0.00    -0.321 N 
HETATM   28  H   UNL     1       2.750  30.932  45.808  1.00  0.00     0.169 HD
HETATM   29  O   UNL     1       5.073  31.256  47.061  1.00  0.00    -0.266 OA
ENDBRANCH   1  18
TORSDOF 3
ENDMDL
MODEL 8
REMARK VINA RESULT:      -9.3      6.220     10.933
REMARK  3 active torsions:
REMARK  status: ('A' for Active; 'I' for Inactive)
REMARK    1  A    between atoms: N_7  and  N_8 
REMARK       I    between atoms: N_8  and  C_9 
REMARK    2  A    between atoms: C_9  and  C_10 
REMARK    3  A    between atoms: C_14  and  C_15 
ROOT
HETATM    1  N   UNL     1       8.636  31.693  59.531  1.00  0.00    -0.241 N 
HETATM    2  C   UNL     1       8.656  31.122  60.797  1.00  0.00     0.289 C 
HETATM    3  O   UNL     1       9.374  30.183  61.128  1.00  0.00    -0.264 OA
HETATM    4  H   UNL     1       7.869  32.299  59.288  1.00  0.00     0.192 HD
ENDROOT
BRANCH   2   5
HETATM    5  C   UNL     1       7.735  31.717  61.733  1.00  0.00     0.121 A 
HETATM    6  N   UNL     1       6.394  31.761  61.477  1.00  0.00    -0.272 N 
HETATM    7  H   UNL     1       5.922  31.407  60.649  1.00  0.00     0.189 HD
HETATM    8  N   UNL     1       5.670  32.350  62.440  1.00  0.00    -0.174 NA
HETATM    9  C   UNL     1       6.560  32.660  63.394  1.00  0.00     0.089 A 
HETATM   10  C   UNL     1       7.872  32.294  62.980  1.00  0.00     0.071 A 
BRANCH   9  11
HETATM   11  C   UNL     1       6.150  33.285  64.655  1.00  0.00    -0.005 A 
HETATM   12  C   UNL     1       4.795  33.531  64.933  1.00  0.00     0.017 A 
HETATM   13  C   UNL     1       4.415  34.131  66.138  1.00  0.00     0.043 A 
HETATM   14  C   UNL     1       5.387  34.487  67.066  1.00  0.00     0.116 A 
HETATM   15  F   UNL     1       5.019  35.062  68.217  1.00  0.00    -0.206 F 
HETATM   16  C   UNL     1       6.733  34.257  66.812  1.00  0.00     0.043 A 
HETATM   17  C   UNL     1       7.113  33.660  65.608  1.00  0.00     0.017 A 
ENDBRANCH   9  11
ENDBRANCH   2   5
BRANCH   1  18
HETATM   18  N   UNL     1       9.398  31.165  58.536  1.00  0.00    -0.165 NA
HETATM   19  C   UNL     1       8.869  30.385  57.647  1.00  0.00     0.157 A 
HETATM   20  C   UNL     1       7.493  29.945  57.361  1.00  0.00     0.027 A 
HETATM   21  C   UNL     1       9.757  29.676  56.600  1.00  0.00     0.277 A 
HETATM   22  C   UNL     1       6.258  30.291  57.879  1.00  0.00     0.016 A 
HETATM   23  C   UNL     1       7.592  29.027  56.311  1.00  0.00     0.048 A 
HETATM   24  C   UNL     1       5.126  29.655  57.354  1.00  0.00     0.001 A 
HETATM   25  C   UNL     1       5.240  28.710  56.318  1.00  0.00     0.002 A 
HETATM   26  C   UNL     1       6.487  28.394  55.776  1.00  0.00     0.030 A 
HETATM   27  N   UNL     1       8.904  28.874  55.881  1.00  0.00    -0.321 N 
HETATM   28  H   UNL     1       9.220  28.293  55.119  1.00  0.00     0.169 HD
HETATM   29  O   UNL     1      10.953  29.800  56.459  1.00  0.00    -0.266 OA
ENDBRANCH   1  18
TORSDOF 3
ENDMDL
MODEL 9
REMARK VINA RESULT:      -9.1      4.131      4.906
REMARK  3 active torsions:
REMARK  status: ('A' for Active; 'I' for Inactive)
REMARK    1  A    between atoms: N_7  and  N_8 
REMARK       I    between atoms: N_8  and  C_9 
REMARK    2  A    between atoms: C_9  and  C_10 
REMARK    3  A    between atoms: C_14  and  C_15 
ROOT
HETATM    1  N   UNL     1       5.561  27.991  52.129  1.00  0.00    -0.241 N 
HETATM    2  C   UNL     1       5.405  26.782  51.463  1.00  0.00     0.289 C 
HETATM    3  O   UNL     1       4.643  26.597  50.519  1.00  0.00    -0.264 OA
HETATM    4  H   UNL     1       6.031  27.994  53.020  1.00  0.00     0.192 HD
ENDROOT
BRANCH   2   5
HETATM    5  C   UNL     1       6.219  25.710  51.980  1.00  0.00     0.121 A 
HETATM    6  N   UNL     1       7.553  25.630  51.693  1.00  0.00    -0.272 N 
HETATM    7  H   UNL     1       8.089  26.274  51.116  1.00  0.00     0.189 HD
HETATM    8  N   UNL     1       8.171  24.575  52.242  1.00  0.00    -0.174 NA
HETATM    9  C   UNL     1       7.221  23.960  52.963  1.00  0.00     0.089 A 
HETATM   10  C   UNL     1       5.975  24.634  52.810  1.00  0.00     0.071 A 
BRANCH   9  11
HETATM   11  C   UNL     1       7.514  22.770  53.767  1.00  0.00    -0.005 A 
HETATM   12  C   UNL     1       7.452  22.812  55.170  1.00  0.00     0.017 A 
HETATM   13  C   UNL     1       7.738  21.671  55.927  1.00  0.00     0.043 A 
HETATM   14  C   UNL     1       8.089  20.489  55.285  1.00  0.00     0.116 A 
HETATM   15  F   UNL     1       8.363  19.400  56.014  1.00  0.00    -0.206 F 
HETATM   16  C   UNL     1       8.160  20.425  53.900  1.00  0.00     0.043 A 
HETATM   17  C   UNL     1       7.877  21.564  53.143  1.00  0.00     0.017 A 
ENDBRANCH   9  11
ENDBRANCH   2   5
BRANCH   1  18
HETATM   18  N   UNL     1       4.786  29.056  51.791  1.00  0.00    -0.165 NA
HETATM   19  C   UNL     1       4.195  29.755  52.707  1.00  0.00     0.157 A 
HETATM   20  C   UNL     1       4.215  29.740  54.179  1.00  0.00     0.027 A 
HETATM   21  C   UNL     1       3.206  30.878  52.318  1.00  0.00     0.277 A 
HETATM   22  C   UNL     1       4.957  29.036  55.111  1.00  0.00     0.016 A 
HETATM   23  C   UNL     1       3.285  30.700  54.588  1.00  0.00     0.048 A 
HETATM   24  C   UNL     1       4.706  29.281  56.467  1.00  0.00     0.001 A 
HETATM   25  C   UNL     1       3.747  30.228  56.868  1.00  0.00     0.002 A 
HETATM   26  C   UNL     1       3.028  30.959  55.920  1.00  0.00     0.030 A 
HETATM   27  N   UNL     1       2.703  31.349  53.507  1.00  0.00    -0.321 N 
HETATM   28  H   UNL     1       2.028  32.098  53.551  1.00  0.00     0.169 HD
HETATM   29  O   UNL     1       2.932  31.249  51.199  1.00  0.00    -0.266 OA
ENDBRANCH   1  18
TORSDOF 3
ENDMDL
MODEL 10
REMARK VINA RESULT:      -8.7      4.551      9.008
REMARK  3 active torsions:
REMARK  status: ('A' for Active; 'I' for Inactive)
REMARK    1  A    between atoms: N_7  and  N_8 
REMARK       I    between atoms: N_8  and  C_9 
REMARK    2  A    between atoms: C_9  and  C_10 
REMARK    3  A    between atoms: C_14  and  C_15 
ROOT
HETATM    1  N   UNL     1       7.318  27.572  55.253  1.00  0.00    -0.241 N 
HETATM    2  C   UNL     1       8.133  28.680  55.444  1.00  0.00     0.289 C 
HETATM    3  O   UNL     1       9.068  28.995  54.714  1.00  0.00    -0.264 OA
HETATM    4  H   UNL     1       6.731  27.269  56.012  1.00  0.00     0.192 HD
ENDROOT
BRANCH   2   5
HETATM    5  C   UNL     1       7.807  29.464  56.609  1.00  0.00     0.121 A 
HETATM    6  N   UNL     1       6.582  30.053  56.748  1.00  0.00    -0.272 N 
HETATM    7  H   UNL     1       5.811  30.012  56.087  1.00  0.00     0.189 HD
HETATM    8  N   UNL     1       6.433  30.752  57.883  1.00  0.00    -0.174 NA
HETATM    9  C   UNL     1       7.587  30.575  58.545  1.00  0.00     0.089 A 
HETATM   10  C   UNL     1       8.483  29.786  57.770  1.00  0.00     0.071 A 
BRANCH   9  11
HETATM   11  C   UNL     1       7.805  31.150  59.876  1.00  0.00    -0.005 A 
HETATM   12  C   UNL     1       6.984  32.180  60.362  1.00  0.00     0.017 A 
HETATM   13  C   UNL     1       7.204  32.724  61.632  1.00  0.00     0.043 A 
HETATM   14  C   UNL     1       8.244  32.239  62.417  1.00  0.00     0.116 A 
HETATM   15  F   UNL     1       8.451  32.763  63.632  1.00  0.00    -0.206 F 
HETATM   16  C   UNL     1       9.070  31.223  61.957  1.00  0.00     0.043 A 
HETATM   17  C   UNL     1       8.853  30.682  60.688  1.00  0.00     0.017 A 
ENDBRANCH   9  11
ENDBRANCH   2   5
BRANCH   1  18
HETATM   18  N   UNL     1       7.578  26.706  54.236  1.00  0.00    -0.165 NA
HETATM   19  C   UNL     1       6.879  26.745  53.147  1.00  0.00     0.157 A 
HETATM   20  C   UNL     1       5.818  27.631  52.642  1.00  0.00     0.027 A 
HETATM   21  C   UNL     1       7.082  25.675  52.049  1.00  0.00     0.277 A 
HETATM   22  C   UNL     1       5.260  28.808  53.111  1.00  0.00     0.016 A 
HETATM   23  C   UNL     1       5.407  27.087  51.421  1.00  0.00     0.048 A 
HETATM   24  C   UNL     1       4.241  29.398  52.352  1.00  0.00     0.001 A 
HETATM   25  C   UNL     1       3.815  28.825  51.140  1.00  0.00     0.002 A 
HETATM   26  C   UNL     1       4.409  27.658  50.656  1.00  0.00     0.030 A 
HETATM   27  N   UNL     1       6.139  25.954  51.089  1.00  0.00    -0.321 N 
HETATM   28  H   UNL     1       6.046  25.408  50.246  1.00  0.00     0.169 HD
HETATM   29  O   UNL     1       7.895  24.779  52.051  1.00  0.00    -0.266 OA
ENDBRANCH   1  18
TORSDOF 3
ENDMDL
