MODEL 1
REMARK VINA RESULT:     -11.9      0.000      0.000
REMARK  4 active torsions:
REMARK  status: ('A' for Active; 'I' for Inactive)
REMARK    1  A    between atoms: C_2  and  N_3 
REMARK    2  A    between atoms: C_7  and  N_8 
REMARK       I    between atoms: N_8  and  C_9 
REMARK    3  A    between atoms: C_9  and  C_10 
REMARK    4  A    between atoms: C_10  and  N_11 
ROOT
HETATM    1  N   UNL     1       7.750  30.245  57.954  1.00  0.00    -0.326 N 
HETATM    2  C   UNL     1       7.295  29.043  57.450  1.00  0.00     0.242 C 
HETATM    3  O   UNL     1       6.179  28.559  57.638  1.00  0.00    -0.271 OA
HETATM    4  H   UNL     1       8.715  30.463  57.706  1.00  0.00     0.169 HD
ENDROOT
BRANCH   2   5
HETATM    5  C   UNL     1       8.358  28.221  56.717  1.00  0.00     0.257 C 
BRANCH   5   6
HETATM    6  N   UNL     1       7.963  26.930  56.150  1.00  0.00    -0.224 N 
HETATM    7  N   UNL     1       7.707  26.893  54.758  1.00  0.00    -0.180 NA
HETATM    8  C   UNL     1       7.591  25.744  54.152  1.00  0.00     0.153 A 
HETATM    9  C   UNL     1       7.738  24.510  54.870  1.00  0.00     0.028 A 
HETATM   10  C   UNL     1       7.971  24.558  56.219  1.00  0.00     0.116 A 
HETATM   11  C   UNL     1       7.738  23.148  54.473  1.00  0.00     0.005 A 
HETATM   12  N   UNL     1       8.103  23.280  56.680  1.00  0.00    -0.350 N 
HETATM   13  C   UNL     1       8.103  25.779  56.958  1.00  0.00     0.291 A 
HETATM   14  H   UNL     1       8.297  23.029  57.641  1.00  0.00     0.166 HD
HETATM   15  C   UNL     1       7.984  22.396  55.628  1.00  0.00     0.044 A 
HETATM   16  C   UNL     1       8.085  20.999  55.611  1.00  0.00     0.030 A 
HETATM   17  C   UNL     1       7.931  20.353  54.381  1.00  0.00     0.002 A 
HETATM   18  C   UNL     1       7.679  21.075  53.217  1.00  0.00     0.001 A 
HETATM   19  C   UNL     1       7.580  22.471  53.247  1.00  0.00     0.014 A 
HETATM   20  O   UNL     1       8.351  25.794  58.158  1.00  0.00    -0.264 OA
ENDBRANCH   5   6
ENDBRANCH   2   5
BRANCH   1  21
HETATM   21  C   UNL     1       7.067  31.153  58.789  1.00  0.00     0.035 A 
HETATM   22  C   UNL     1       7.443  31.422  60.110  1.00  0.00     0.044 A 
HETATM   23  C   UNL     1       6.726  32.366  60.882  1.00  0.00     0.005 A 
HETATM   24  C   UNL     1       5.627  33.011  60.315  1.00  0.00     0.046 A 
HETATM   25  C   UNL     1       6.884  32.864  62.213  1.00  0.00     0.003 A 
HETATM   26  N   UNL     1       5.112  33.852  61.283  1.00  0.00    -0.346 N 
HETATM   27  C   UNL     1       5.233  32.758  58.991  1.00  0.00     0.033 A 
HETATM   28  C   UNL     1       5.867  33.793  62.440  1.00  0.00     0.046 A 
HETATM   29  C   UNL     1       5.747  34.474  63.664  1.00  0.00     0.030 A 
HETATM   30  C   UNL     1       6.682  34.201  64.667  1.00  0.00     0.002 A 
HETATM   31  C   UNL     1       7.702  33.279  64.462  1.00  0.00     0.001 A 
HETATM   32  C   UNL     1       7.812  32.604  63.243  1.00  0.00     0.014 A 
HETATM   33  C   UNL     1       5.971  31.828  58.245  1.00  0.00     0.032 A 
BRANCH  26  34
HETATM   34  C   UNL     1       3.925  34.678  61.121  1.00  0.00     0.125 C 
HETATM   35  C   UNL     1       2.654  33.953  61.526  1.00  0.00     0.027 C 
ENDBRANCH  26  34
ENDBRANCH   1  21
TORSDOF 4
ENDMDL
MODEL 2
REMARK VINA RESULT:     -11.6      2.043      2.951
REMARK  4 active torsions:
REMARK  status: ('A' for Active; 'I' for Inactive)
REMARK    1  A    between atoms: C_2  and  N_3 
REMARK    2  A    between atoms: C_7  and  N_8 
REMARK       I    between atoms: N_8  and  C_9 
REMARK    3  A    between atoms: C_9  and  C_10 
REMARK    4  A    between atoms: C_10  and  N_11 
ROOT
HETATM    1  N   UNL     1       6.489  29.333  55.282  1.00  0.00    -0.326 N 
HETATM    2  C   UNL     1       5.540  28.529  54.681  1.00  0.00     0.242 C 
HETATM    3  O   UNL     1       4.376  28.385  55.054  1.00  0.00    -0.271 OA
HETATM    4  H   UNL     1       7.406  29.299  54.838  1.00  0.00     0.169 HD
ENDROOT
BRANCH   2   5
HETATM    5  C   UNL     1       6.078  27.660  53.542  1.00  0.00     0.257 C 
BRANCH   5   6
HETATM    6  N   UNL     1       6.836  26.456  53.889  1.00  0.00    -0.224 N 
HETATM    7  N   UNL     1       7.159  26.274  55.256  1.00  0.00    -0.180 NA
HETATM    8  C   UNL     1       7.611  25.121  55.664  1.00  0.00     0.153 A 
HETATM    9  C   UNL     1       7.770  24.023  54.756  1.00  0.00     0.028 A 
HETATM   10  C   UNL     1       7.467  24.214  53.433  1.00  0.00     0.116 A 
HETATM   11  C   UNL     1       8.159  22.668  54.925  1.00  0.00     0.005 A 
HETATM   12  N   UNL     1       7.666  23.037  52.770  1.00  0.00    -0.350 N 
HETATM   13  C   UNL     1       6.974  25.451  52.904  1.00  0.00     0.291 A 
HETATM   14  H   UNL     1       7.501  22.896  51.781  1.00  0.00     0.166 HD
HETATM   15  C   UNL     1       8.071  22.067  53.663  1.00  0.00     0.044 A 
HETATM   16  C   UNL     1       8.353  20.712  53.452  1.00  0.00     0.030 A 
HETATM   17  C   UNL     1       8.736  19.950  54.559  1.00  0.00     0.002 A 
HETATM   18  C   UNL     1       8.838  20.522  55.825  1.00  0.00     0.001 A 
HETATM   19  C   UNL     1       8.554  21.879  56.022  1.00  0.00     0.014 A 
HETATM   20  O   UNL     1       6.674  25.584  51.724  1.00  0.00    -0.264 OA
ENDBRANCH   5   6
ENDBRANCH   2   5
BRANCH   1  21
HETATM   21  C   UNL     1       6.347  30.131  56.436  1.00  0.00     0.035 A 
HETATM   22  C   UNL     1       7.225  30.080  57.524  1.00  0.00     0.044 A 
HETATM   23  C   UNL     1       7.036  30.931  58.638  1.00  0.00     0.005 A 
HETATM   24  C   UNL     1       5.953  31.808  58.646  1.00  0.00     0.046 A 
HETATM   25  C   UNL     1       7.763  31.126  59.854  1.00  0.00     0.003 A 
HETATM   26  N   UNL     1       6.000  32.494  59.845  1.00  0.00    -0.346 N 
HETATM   27  C   UNL     1       5.061  31.879  57.564  1.00  0.00     0.033 A 
HETATM   28  C   UNL     1       7.100  32.110  60.589  1.00  0.00     0.046 A 
HETATM   29  C   UNL     1       7.570  32.540  61.843  1.00  0.00     0.030 A 
HETATM   30  C   UNL     1       8.736  31.955  62.348  1.00  0.00     0.002 A 
HETATM   31  C   UNL     1       9.412  30.974  61.632  1.00  0.00     0.001 A 
HETATM   32  C   UNL     1       8.935  30.551  60.388  1.00  0.00     0.014 A 
HETATM   33  C   UNL     1       5.281  31.034  56.466  1.00  0.00     0.032 A 
BRANCH  26  34
HETATM   34  C   UNL     1       5.020  33.477  60.280  1.00  0.00     0.125 C 
HETATM   35  C   UNL     1       3.887  32.854  61.077  1.00  0.00     0.027 C 
ENDBRANCH  26  34
ENDBRANCH   1  21
TORSDOF 4
ENDMDL
MODEL 3
REMARK VINA RESULT:     -11.3      1.720     11.249
REMARK  4 active torsions:
REMARK  status: ('A' for Active; 'I' for Inactive)
REMARK    1  A    between atoms: C_2  and  N_3 
REMARK    2  A    between atoms: C_7  and  N_8 
REMARK       I    between atoms: N_8  and  C_9 
REMARK    3  A    between atoms: C_9  and  C_10 
REMARK    4  A    between atoms: C_10  and  N_11 
ROOT
HETATM    1  N   UNL     1       8.440  28.716  57.393  1.00  0.00    -0.326 N 
HETATM    2  C   UNL     1       7.578  29.658  57.917  1.00  0.00     0.242 C 
HETATM    3  O   UNL     1       6.356  29.678  57.769  1.00  0.00    -0.271 OA
HETATM    4  H   UNL     1       9.423  28.886  57.606  1.00  0.00     0.169 HD
ENDROOT
BRANCH   2   5
HETATM    5  C   UNL     1       8.270  30.831  58.615  1.00  0.00     0.257 C 
BRANCH   5   6
HETATM    6  N   UNL     1       7.773  31.243  59.930  1.00  0.00    -0.224 N 
HETATM    7  N   UNL     1       8.456  30.736  61.062  1.00  0.00    -0.180 NA
HETATM    8  C   UNL     1       8.225  31.248  62.239  1.00  0.00     0.153 A 
HETATM    9  C   UNL     1       7.302  32.332  62.407  1.00  0.00     0.028 A 
HETATM   10  C   UNL     1       6.635  32.805  61.307  1.00  0.00     0.116 A 
HETATM   11  C   UNL     1       6.915  33.117  63.525  1.00  0.00     0.005 A 
HETATM   12  N   UNL     1       5.839  33.843  61.698  1.00  0.00    -0.350 N 
HETATM   13  C   UNL     1       6.827  32.292  59.983  1.00  0.00     0.291 A 
HETATM   14  H   UNL     1       5.250  34.385  61.079  1.00  0.00     0.166 HD
HETATM   15  C   UNL     1       6.006  34.069  63.049  1.00  0.00     0.044 A 
HETATM   16  C   UNL     1       5.433  35.043  63.875  1.00  0.00     0.030 A 
HETATM   17  C   UNL     1       5.798  35.045  65.224  1.00  0.00     0.002 A 
HETATM   18  C   UNL     1       6.695  34.106  65.727  1.00  0.00     0.001 A 
HETATM   19  C   UNL     1       7.261  33.136  64.890  1.00  0.00     0.014 A 
HETATM   20  O   UNL     1       6.246  32.759  59.010  1.00  0.00    -0.264 OA
ENDBRANCH   5   6
ENDBRANCH   2   5
BRANCH   1  21
HETATM   21  C   UNL     1       8.128  27.609  56.578  1.00  0.00     0.035 A 
HETATM   22  C   UNL     1       8.331  26.280  56.968  1.00  0.00     0.044 A 
HETATM   23  C   UNL     1       7.969  25.217  56.108  1.00  0.00     0.005 A 
HETATM   24  C   UNL     1       7.426  25.511  54.858  1.00  0.00     0.046 A 
HETATM   25  C   UNL     1       8.024  23.794  56.235  1.00  0.00     0.003 A 
HETATM   26  N   UNL     1       7.187  24.304  54.230  1.00  0.00    -0.346 N 
HETATM   27  C   UNL     1       7.212  26.836  54.447  1.00  0.00     0.033 A 
HETATM   28  C   UNL     1       7.527  23.245  55.052  1.00  0.00     0.046 A 
HETATM   29  C   UNL     1       7.441  21.854  54.861  1.00  0.00     0.030 A 
HETATM   30  C   UNL     1       7.867  21.017  55.896  1.00  0.00     0.002 A 
HETATM   31  C   UNL     1       8.366  21.543  57.082  1.00  0.00     0.001 A 
HETATM   32  C   UNL     1       8.451  22.926  57.262  1.00  0.00     0.014 A 
HETATM   33  C   UNL     1       7.566  27.870  55.326  1.00  0.00     0.032 A 
BRANCH  26  34
HETATM   34  C   UNL     1       6.665  24.157  52.879  1.00  0.00     0.125 C 
HETATM   35  C   UNL     1       7.698  24.494  51.819  1.00  0.00     0.027 C 
ENDBRANCH  26  34
ENDBRANCH   1  21
TORSDOF 4
ENDMDL
MODEL 4
REMARK VINA RESULT:     -11.1      1.879      3.364
REMARK  4 active torsions:
REMARK  status: ('A' for Active; 'I' for Inactive)
REMARK    1  A    between atoms: C_2  and  N_3 
REMARK    2  A    between atoms: C_7  and  N_8 
REMARK       I    between atoms: N_8  and  C_9 
REMARK    3  A    between atoms: C_9  and  C_10 
REMARK    4  A    between atoms: C_10  and  N_11 
ROOT
HETATM    1  N   UNL     1       7.172  29.150  55.935  1.00  0.00    -0.326 N 
HETATM    2  C   UNL     1       6.024  28.641  55.363  1.00  0.00     0.242 C 
HETATM    3  O   UNL     1       4.885  28.742  55.818  1.00  0.00    -0.271 OA
HETATM    4  H   UNL     1       8.025  28.940  55.418  1.00  0.00     0.169 HD
ENDROOT
BRANCH   2   5
HETATM    5  C   UNL     1       6.267  27.766  54.129  1.00  0.00     0.257 C 
BRANCH   5   6
HETATM    6  N   UNL     1       6.989  26.505  54.308  1.00  0.00    -0.224 N 
HETATM    7  N   UNL     1       7.277  26.114  55.638  1.00  0.00    -0.180 NA
HETATM    8  C   UNL     1       7.693  24.902  55.879  1.00  0.00     0.153 A 
HETATM    9  C   UNL     1       7.847  23.947  54.821  1.00  0.00     0.028 A 
HETATM   10  C   UNL     1       7.580  24.340  53.536  1.00  0.00     0.116 A 
HETATM   11  C   UNL     1       8.202  22.573  54.793  1.00  0.00     0.005 A 
HETATM   12  N   UNL     1       7.766  23.270  52.708  1.00  0.00    -0.350 N 
HETATM   13  C   UNL     1       7.127  25.654  53.188  1.00  0.00     0.291 A 
HETATM   14  H   UNL     1       7.621  23.281  51.707  1.00  0.00     0.166 HD
HETATM   15  C   UNL     1       8.129  22.168  53.455  1.00  0.00     0.044 A 
HETATM   16  C   UNL     1       8.385  20.853  53.050  1.00  0.00     0.030 A 
HETATM   17  C   UNL     1       8.725  19.925  54.038  1.00  0.00     0.002 A 
HETATM   18  C   UNL     1       8.812  20.299  55.377  1.00  0.00     0.001 A 
HETATM   19  C   UNL     1       8.554  21.619  55.769  1.00  0.00     0.014 A 
HETATM   20  O   UNL     1       6.857  25.969  52.034  1.00  0.00    -0.264 OA
ENDBRANCH   5   6
ENDBRANCH   2   5
BRANCH   1  21
HETATM   21  C   UNL     1       7.298  29.862  57.146  1.00  0.00     0.035 A 
HETATM   22  C   UNL     1       6.390  30.839  57.566  1.00  0.00     0.044 A 
HETATM   23  C   UNL     1       6.565  31.496  58.807  1.00  0.00     0.005 A 
HETATM   24  C   UNL     1       7.667  31.169  59.597  1.00  0.00     0.046 A 
HETATM   25  C   UNL     1       5.809  32.489  59.504  1.00  0.00     0.003 A 
HETATM   26  N   UNL     1       7.601  31.964  60.726  1.00  0.00    -0.346 N 
HETATM   27  C   UNL     1       8.591  30.191  59.196  1.00  0.00     0.033 A 
HETATM   28  C   UNL     1       6.472  32.762  60.701  1.00  0.00     0.046 A 
HETATM   29  C   UNL     1       5.976  33.699  61.625  1.00  0.00     0.030 A 
HETATM   30  C   UNL     1       4.784  34.362  61.319  1.00  0.00     0.002 A 
HETATM   31  C   UNL     1       4.107  34.105  60.132  1.00  0.00     0.001 A 
HETATM   32  C   UNL     1       4.609  33.174  59.218  1.00  0.00     0.014 A 
HETATM   33  C   UNL     1       8.384  29.547  57.967  1.00  0.00     0.032 A 
BRANCH  26  34
HETATM   34  C   UNL     1       8.591  31.977  61.793  1.00  0.00     0.125 C 
HETATM   35  C   UNL     1       8.351  30.885  62.820  1.00  0.00     0.027 C 
ENDBRANCH  26  34
ENDBRANCH   1  21
TORSDOF 4
ENDMDL
MODEL 5
REMARK VINA RESULT:     -11.1      2.097     10.847
REMARK  4 active torsions:
REMARK  status: ('A' for Active; 'I' for Inactive)
REMARK    1  A    between atoms: C_2  and  N_3 
REMARK    2  A    between atoms: C_7  and  N_8 
REMARK       I    between atoms: N_8  and  C_9 
REMARK    3  A    between atoms: C_9  and  C_10 
REMARK    4  A    between atoms: C_10  and  N_11 
ROOT
HETATM    1  N   UNL     1       7.472  28.686  58.463  1.00  0.00    -0.326 N 
HETATM    2  C   UNL     1       8.404  29.704  58.419  1.00  0.00     0.242 C 
HETATM    3  O   UNL     1       9.072  30.029  57.438  1.00  0.00    -0.271 OA
HETATM    4  H   UNL     1       7.040  28.555  59.376  1.00  0.00     0.169 HD
ENDROOT
BRANCH   2   5
HETATM    5  C   UNL     1       8.688  30.359  59.773  1.00  0.00     0.257 C 
BRANCH   5   6
HETATM    6  N   UNL     1       7.717  31.326  60.290  1.00  0.00    -0.224 N 
HETATM    7  N   UNL     1       6.650  31.686  59.431  1.00  0.00    -0.180 NA
HETATM    8  C   UNL     1       5.630  32.343  59.908  1.00  0.00     0.153 A 
HETATM    9  C   UNL     1       5.557  32.693  61.297  1.00  0.00     0.028 A 
HETATM   10  C   UNL     1       6.601  32.352  62.117  1.00  0.00     0.116 A 
HETATM   11  C   UNL     1       4.564  33.322  62.092  1.00  0.00     0.005 A 
HETATM   12  N   UNL     1       6.304  32.756  63.387  1.00  0.00    -0.350 N 
HETATM   13  C   UNL     1       7.760  31.638  61.668  1.00  0.00     0.291 A 
HETATM   14  H   UNL     1       6.898  32.613  64.193  1.00  0.00     0.166 HD
HETATM   15  C   UNL     1       5.052  33.337  63.404  1.00  0.00     0.044 A 
HETATM   16  C   UNL     1       4.319  33.859  64.475  1.00  0.00     0.030 A 
HETATM   17  C   UNL     1       3.052  34.382  64.201  1.00  0.00     0.002 A 
HETATM   18  C   UNL     1       2.543  34.387  62.904  1.00  0.00     0.001 A 
HETATM   19  C   UNL     1       3.288  33.862  61.840  1.00  0.00     0.014 A 
HETATM   20  O   UNL     1       8.662  31.311  62.431  1.00  0.00    -0.264 OA
ENDBRANCH   5   6
ENDBRANCH   2   5
BRANCH   1  21
HETATM   21  C   UNL     1       7.102  27.802  57.429  1.00  0.00     0.035 A 
HETATM   22  C   UNL     1       7.816  26.642  57.110  1.00  0.00     0.044 A 
HETATM   23  C   UNL     1       7.370  25.786  56.076  1.00  0.00     0.005 A 
HETATM   24  C   UNL     1       6.218  26.124  55.365  1.00  0.00     0.046 A 
HETATM   25  C   UNL     1       7.856  24.547  55.553  1.00  0.00     0.003 A 
HETATM   26  N   UNL     1       6.028  25.137  54.416  1.00  0.00    -0.346 N 
HETATM   27  C   UNL     1       5.485  27.282  55.669  1.00  0.00     0.033 A 
HETATM   28  C   UNL     1       7.000  24.159  54.521  1.00  0.00     0.046 A 
HETATM   29  C   UNL     1       7.202  22.969  53.800  1.00  0.00     0.030 A 
HETATM   30  C   UNL     1       8.294  22.166  54.143  1.00  0.00     0.002 A 
HETATM   31  C   UNL     1       9.158  22.533  55.167  1.00  0.00     0.001 A 
HETATM   32  C   UNL     1       8.952  23.720  55.877  1.00  0.00     0.014 A 
HETATM   33  C   UNL     1       5.943  28.104  56.709  1.00  0.00     0.032 A 
BRANCH  26  34
HETATM   34  C   UNL     1       4.961  25.130  53.427  1.00  0.00     0.125 C 
HETATM   35  C   UNL     1       5.400  25.718  52.097  1.00  0.00     0.027 C 
ENDBRANCH  26  34
ENDBRANCH   1  21
TORSDOF 4
ENDMDL
MODEL 6
REMARK VINA RESULT:     -10.8      2.050     10.930
REMARK  4 active torsions:
REMARK  status: ('A' for Active; 'I' for Inactive)
REMARK    1  A    between atoms: C_2  and  N_3 
REMARK    2  A    between atoms: C_7  and  N_8 
REMARK       I    between atoms: N_8  and  C_9 
REMARK    3  A    between atoms: C_9  and  C_10 
REMARK    4  A    between atoms: C_10  and  N_11 
ROOT
HETATM    1  N   UNL     1       6.280  30.167  56.966  1.00  0.00    -0.326 N 
HETATM    2  C   UNL     1       5.165  30.654  57.618  1.00  0.00     0.242 C 
HETATM    3  O   UNL     1       4.049  30.133  57.626  1.00  0.00    -0.271 OA
HETATM    4  H   UNL     1       7.107  30.755  57.059  1.00  0.00     0.169 HD
ENDROOT
BRANCH   2   5
HETATM    5  C   UNL     1       5.356  32.033  58.254  1.00  0.00     0.257 C 
BRANCH   5   6
HETATM    6  N   UNL     1       5.663  32.098  59.685  1.00  0.00    -0.224 N 
HETATM    7  N   UNL     1       7.027  32.225  60.043  1.00  0.00    -0.180 NA
HETATM    8  C   UNL     1       7.347  32.530  61.269  1.00  0.00     0.153 A 
HETATM    9  C   UNL     1       6.339  32.760  62.263  1.00  0.00     0.028 A 
HETATM   10  C   UNL     1       5.022  32.620  61.909  1.00  0.00     0.116 A 
HETATM   11  C   UNL     1       6.386  33.168  63.622  1.00  0.00     0.005 A 
HETATM   12  N   UNL     1       4.249  32.911  62.996  1.00  0.00    -0.350 N 
HETATM   13  C   UNL     1       4.590  32.279  60.587  1.00  0.00     0.291 A 
HETATM   14  H   UNL     1       3.238  32.902  63.006  1.00  0.00     0.166 HD
HETATM   15  C   UNL     1       5.059  33.269  64.055  1.00  0.00     0.044 A 
HETATM   16  C   UNL     1       4.717  33.682  65.348  1.00  0.00     0.030 A 
HETATM   17  C   UNL     1       5.759  34.000  66.224  1.00  0.00     0.002 A 
HETATM   18  C   UNL     1       7.090  33.902  65.823  1.00  0.00     0.001 A 
HETATM   19  C   UNL     1       7.418  33.487  64.526  1.00  0.00     0.014 A 
HETATM   20  O   UNL     1       3.404  32.199  60.287  1.00  0.00    -0.264 OA
ENDBRANCH   5   6
ENDBRANCH   2   5
BRANCH   1  21
HETATM   21  C   UNL     1       6.385  29.008  56.169  1.00  0.00     0.035 A 
HETATM   22  C   UNL     1       6.997  27.827  56.600  1.00  0.00     0.044 A 
HETATM   23  C   UNL     1       7.043  26.693  55.754  1.00  0.00     0.005 A 
HETATM   24  C   UNL     1       6.485  26.776  54.479  1.00  0.00     0.046 A 
HETATM   25  C   UNL     1       7.558  25.370  55.919  1.00  0.00     0.003 A 
HETATM   26  N   UNL     1       6.685  25.550  53.873  1.00  0.00    -0.346 N 
HETATM   27  C   UNL     1       5.864  27.951  54.027  1.00  0.00     0.033 A 
HETATM   28  C   UNL     1       7.320  24.673  54.734  1.00  0.00     0.046 A 
HETATM   29  C   UNL     1       7.705  23.329  54.575  1.00  0.00     0.030 A 
HETATM   30  C   UNL     1       8.340  22.693  55.645  1.00  0.00     0.002 A 
HETATM   31  C   UNL     1       8.587  23.368  56.835  1.00  0.00     0.001 A 
HETATM   32  C   UNL     1       8.204  24.704  56.983  1.00  0.00     0.014 A 
HETATM   33  C   UNL     1       5.821  29.054  54.891  1.00  0.00     0.032 A 
BRANCH  26  34
HETATM   34  C   UNL     1       6.298  25.222  52.509  1.00  0.00     0.125 C 
HETATM   35  C   UNL     1       4.840  24.810  52.404  1.00  0.00     0.027 C 
ENDBRANCH  26  34
ENDBRANCH   1  21
TORSDOF 4
ENDMDL
MODEL 7
REMARK VINA RESULT:     -10.8      2.122     10.981
REMARK  4 active torsions:
REMARK  status: ('A' for Active; 'I' for Inactive)
REMARK    1  A    between atoms: C_2  and  N_3 
REMARK    2  A    between atoms: C_7  and  N_8 
REMARK       I    between atoms: N_8  and  C_9 
REMARK    3  A    between atoms: C_9  and  C_10 
REMARK    4  A    between atoms: C_10  and  N_11 
ROOT
HETATM    1  N   UNL     1       5.602  29.802  57.736  1.00  0.00    -0.326 N 
HETATM    2  C   UNL     1       5.188  30.910  57.024  1.00  0.00     0.242 C 
HETATM    3  O   UNL     1       5.224  31.035  55.800  1.00  0.00    -0.271 OA
HETATM    4  H   UNL     1       5.515  29.900  58.747  1.00  0.00     0.169 HD
ENDROOT
BRANCH   2   5
HETATM    5  C   UNL     1       4.790  32.107  57.890  1.00  0.00     0.257 C 
BRANCH   5   6
HETATM    6  N   UNL     1       5.218  32.118  59.291  1.00  0.00    -0.224 N 
HETATM    7  N   UNL     1       6.611  32.174  59.537  1.00  0.00    -0.180 NA
HETATM    8  C   UNL     1       7.046  32.430  60.739  1.00  0.00     0.153 A 
HETATM    9  C   UNL     1       6.135  32.677  61.819  1.00  0.00     0.028 A 
HETATM   10  C   UNL     1       4.789  32.605  61.574  1.00  0.00     0.116 A 
HETATM   11  C   UNL     1       6.314  33.044  63.179  1.00  0.00     0.005 A 
HETATM   12  N   UNL     1       4.123  32.900  62.729  1.00  0.00    -0.350 N 
HETATM   13  C   UNL     1       4.233  32.321  60.284  1.00  0.00     0.291 A 
HETATM   14  H   UNL     1       3.116  32.935  62.823  1.00  0.00     0.166 HD
HETATM   15  C   UNL     1       5.033  33.192  63.724  1.00  0.00     0.044 A 
HETATM   16  C   UNL     1       4.820  33.583  65.051  1.00  0.00     0.030 A 
HETATM   17  C   UNL     1       5.944  33.829  65.843  1.00  0.00     0.002 A 
HETATM   18  C   UNL     1       7.231  33.684  65.330  1.00  0.00     0.001 A 
HETATM   19  C   UNL     1       7.431  33.291  64.001  1.00  0.00     0.014 A 
HETATM   20  O   UNL     1       3.024  32.302  60.083  1.00  0.00    -0.264 OA
ENDBRANCH   5   6
ENDBRANCH   2   5
BRANCH   1  21
HETATM   21  C   UNL     1       6.160  28.607  57.239  1.00  0.00     0.035 A 
HETATM   22  C   UNL     1       5.672  27.934  56.114  1.00  0.00     0.044 A 
HETATM   23  C   UNL     1       6.300  26.752  55.655  1.00  0.00     0.005 A 
HETATM   24  C   UNL     1       7.401  26.256  56.352  1.00  0.00     0.046 A 
HETATM   25  C   UNL     1       6.057  25.882  54.547  1.00  0.00     0.003 A 
HETATM   26  N   UNL     1       7.797  25.100  55.706  1.00  0.00    -0.346 N 
HETATM   27  C   UNL     1       7.910  26.915  57.482  1.00  0.00     0.033 A 
HETATM   28  C   UNL     1       7.006  24.860  54.597  1.00  0.00     0.046 A 
HETATM   29  C   UNL     1       7.042  23.836  53.633  1.00  0.00     0.030 A 
HETATM   30  C   UNL     1       6.095  23.861  52.606  1.00  0.00     0.002 A 
HETATM   31  C   UNL     1       5.140  24.870  52.538  1.00  0.00     0.001 A 
HETATM   32  C   UNL     1       5.110  25.882  53.501  1.00  0.00     0.014 A 
HETATM   33  C   UNL     1       7.276  28.092  57.905  1.00  0.00     0.032 A 
BRANCH  26  34
HETATM   34  C   UNL     1       8.886  24.237  56.137  1.00  0.00     0.125 C 
HETATM   35  C   UNL     1       8.423  23.155  57.097  1.00  0.00     0.027 C 
ENDBRANCH  26  34
ENDBRANCH   1  21
TORSDOF 4
ENDMDL
MODEL 8
REMARK VINA RESULT:     -10.8      1.565     11.337
REMARK  4 active torsions:
REMARK  status: ('A' for Active; 'I' for Inactive)
REMARK    1  A    between atoms: C_2  and  N_3 
REMARK    2  A    between atoms: C_7  and  N_8 
REMARK       I    between atoms: N_8  and  C_9 
REMARK    3  A    between atoms: C_9  and  C_10 
REMARK    4  A    between atoms: C_10  and  N_11 
ROOT
HETATM    1  N   UNL     1       7.649  28.101  56.949  1.00  0.00    -0.326 N 
HETATM    2  C   UNL     1       8.664  29.029  57.059  1.00  0.00     0.242 C 
HETATM    3  O   UNL     1       9.870  28.783  57.052  1.00  0.00    -0.271 OA
HETATM    4  H   UNL     1       6.712  28.499  57.001  1.00  0.00     0.169 HD
ENDROOT
BRANCH   2   5
HETATM    5  C   UNL     1       8.190  30.455  57.352  1.00  0.00     0.257 C 
BRANCH   5   6
HETATM    6  N   UNL     1       7.862  30.803  58.736  1.00  0.00    -0.224 N 
HETATM    7  N   UNL     1       8.731  30.317  59.743  1.00  0.00    -0.180 NA
HETATM    8  C   UNL     1       8.641  30.786  60.956  1.00  0.00     0.153 A 
HETATM    9  C   UNL     1       7.686  31.804  61.288  1.00  0.00     0.028 A 
HETATM   10  C   UNL     1       6.840  32.256  60.309  1.00  0.00     0.116 A 
HETATM   11  C   UNL     1       7.417  32.536  62.473  1.00  0.00     0.005 A 
HETATM   12  N   UNL     1       6.046  33.231  60.842  1.00  0.00    -0.350 N 
HETATM   13  C   UNL     1       6.871  31.786  58.956  1.00  0.00     0.291 A 
HETATM   14  H   UNL     1       5.342  33.747  60.330  1.00  0.00     0.166 HD
HETATM   15  C   UNL     1       6.391  33.437  62.161  1.00  0.00     0.044 A 
HETATM   16  C   UNL     1       5.884  34.353  63.091  1.00  0.00     0.030 A 
HETATM   17  C   UNL     1       6.438  34.349  64.374  1.00  0.00     0.002 A 
HETATM   18  C   UNL     1       7.455  33.460  64.715  1.00  0.00     0.001 A 
HETATM   19  C   UNL     1       7.953  32.548  63.776  1.00  0.00     0.014 A 
HETATM   20  O   UNL     1       6.129  32.237  58.090  1.00  0.00    -0.264 OA
ENDBRANCH   5   6
ENDBRANCH   2   5
BRANCH   1  21
HETATM   21  C   UNL     1       7.760  26.700  56.828  1.00  0.00     0.035 A 
HETATM   22  C   UNL     1       7.665  26.019  55.610  1.00  0.00     0.044 A 
HETATM   23  C   UNL     1       7.813  24.613  55.560  1.00  0.00     0.005 A 
HETATM   24  C   UNL     1       8.035  23.913  56.745  1.00  0.00     0.046 A 
HETATM   25  C   UNL     1       7.798  23.665  54.490  1.00  0.00     0.003 A 
HETATM   26  N   UNL     1       8.120  22.575  56.410  1.00  0.00    -0.346 N 
HETATM   27  C   UNL     1       8.136  24.575  57.978  1.00  0.00     0.033 A 
HETATM   28  C   UNL     1       7.996  22.400  55.043  1.00  0.00     0.046 A 
HETATM   29  C   UNL     1       8.041  21.242  54.247  1.00  0.00     0.030 A 
HETATM   30  C   UNL     1       7.883  21.384  52.865  1.00  0.00     0.002 A 
HETATM   31  C   UNL     1       7.685  22.635  52.292  1.00  0.00     0.001 A 
HETATM   32  C   UNL     1       7.639  23.780  53.093  1.00  0.00     0.014 A 
HETATM   33  C   UNL     1       7.999  25.971  57.996  1.00  0.00     0.032 A 
BRANCH  26  34
HETATM   34  C   UNL     1       8.300  21.489  57.361  1.00  0.00     0.125 C 
HETATM   35  C   UNL     1       9.056  20.314  56.766  1.00  0.00     0.027 C 
ENDBRANCH  26  34
ENDBRANCH   1  21
TORSDOF 4
ENDMDL
MODEL 9
REMARK VINA RESULT:     -10.7      7.265     11.941
REMARK  4 active torsions:
REMARK  status: ('A' for Active; 'I' for Inactive)
REMARK    1  A    between atoms: C_2  and  N_3 
REMARK    2  A    between atoms: C_7  and  N_8 
REMARK       I    between atoms: N_8  and  C_9 
REMARK    3  A    between atoms: C_9  and  C_10 
REMARK    4  A    between atoms: C_10  and  N_11 
ROOT
HETATM    1  N   UNL     1       6.443  26.380  51.038  1.00  0.00    -0.326 N 
HETATM    2  C   UNL     1       5.309  27.126  50.783  1.00  0.00     0.242 C 
HETATM    3  O   UNL     1       4.388  27.331  51.574  1.00  0.00    -0.271 OA
HETATM    4  H   UNL     1       7.080  26.306  50.245  1.00  0.00     0.169 HD
ENDROOT
BRANCH   2   5
HETATM    5  C   UNL     1       5.175  27.599  49.334  1.00  0.00     0.257 C 
BRANCH   5   6
HETATM    6  N   UNL     1       3.845  27.975  48.850  1.00  0.00    -0.224 N 
HETATM    7  N   UNL     1       3.446  29.319  49.047  1.00  0.00    -0.180 NA
HETATM    8  C   UNL     1       2.391  29.777  48.433  1.00  0.00     0.153 A 
HETATM    9  C   UNL     1       1.634  28.947  47.541  1.00  0.00     0.028 A 
HETATM   10  C   UNL     1       2.020  27.644  47.369  1.00  0.00     0.116 A 
HETATM   11  C   UNL     1       0.516  29.188  46.701  1.00  0.00     0.005 A 
HETATM   12  N   UNL     1       1.179  27.059  46.466  1.00  0.00    -0.350 N 
HETATM   13  C   UNL     1       3.161  27.063  48.013  1.00  0.00     0.291 A 
HETATM   14  H   UNL     1       1.250  26.103  46.144  1.00  0.00     0.166 HD
HETATM   15  C   UNL     1       0.259  27.989  46.025  1.00  0.00     0.044 A 
HETATM   16  C   UNL     1      -0.765  27.861  45.079  1.00  0.00     0.030 A 
HETATM   17  C   UNL     1      -1.548  28.988  44.816  1.00  0.00     0.002 A 
HETATM   18  C   UNL     1      -1.321  30.192  45.478  1.00  0.00     0.001 A 
HETATM   19  C   UNL     1      -0.293  30.306  46.423  1.00  0.00     0.014 A 
HETATM   20  O   UNL     1       3.508  25.905  47.811  1.00  0.00    -0.264 OA
ENDBRANCH   5   6
ENDBRANCH   2   5
BRANCH   1  21
HETATM   21  C   UNL     1       6.782  25.688  52.218  1.00  0.00     0.035 A 
HETATM   22  C   UNL     1       7.147  24.338  52.246  1.00  0.00     0.044 A 
HETATM   23  C   UNL     1       7.501  23.715  53.465  1.00  0.00     0.005 A 
HETATM   24  C   UNL     1       7.462  24.460  54.643  1.00  0.00     0.046 A 
HETATM   25  C   UNL     1       7.936  22.395  53.799  1.00  0.00     0.003 A 
HETATM   26  N   UNL     1       7.831  23.609  55.668  1.00  0.00    -0.346 N 
HETATM   27  C   UNL     1       7.100  25.816  54.640  1.00  0.00     0.033 A 
HETATM   28  C   UNL     1       8.140  22.353  55.179  1.00  0.00     0.046 A 
HETATM   29  C   UNL     1       8.581  21.186  55.828  1.00  0.00     0.030 A 
HETATM   30  C   UNL     1       8.818  20.048  55.051  1.00  0.00     0.002 A 
HETATM   31  C   UNL     1       8.622  20.067  53.675  1.00  0.00     0.001 A 
HETATM   32  C   UNL     1       8.180  21.231  53.039  1.00  0.00     0.014 A 
HETATM   33  C   UNL     1       6.768  26.411  53.414  1.00  0.00     0.032 A 
BRANCH  26  34
HETATM   34  C   UNL     1       7.874  23.973  57.077  1.00  0.00     0.125 C 
HETATM   35  C   UNL     1       9.174  24.660  57.458  1.00  0.00     0.027 C 
ENDBRANCH  26  34
ENDBRANCH   1  21
TORSDOF 4
ENDMDL
MODEL 10
REMARK VINA RESULT:     -10.6      2.837      3.432
REMARK  4 active torsions:
REMARK  status: ('A' for Active; 'I' for Inactive)
REMARK    1  A    between atoms: C_2  and  N_3 
REMARK    2  A    between atoms: C_7  and  N_8 
REMARK       I    between atoms: N_8  and  C_9 
REMARK    3  A    between atoms: C_9  and  C_10 
REMARK    4  A    between atoms: C_10  and  N_11 
ROOT
HETATM    1  N   UNL     1       7.560  31.227  59.256  1.00  0.00    -0.326 N 
HETATM    2  C   UNL     1       8.769  30.615  59.518  1.00  0.00     0.242 C 
HETATM    3  O   UNL     1       9.304  30.519  60.622  1.00  0.00    -0.271 OA
HETATM    4  H   UNL     1       7.297  31.225  58.271  1.00  0.00     0.169 HD
ENDROOT
BRANCH   2   5
HETATM    5  C   UNL     1       9.530  30.155  58.271  1.00  0.00     0.257 C 
BRANCH   5   6
HETATM    6  N   UNL     1       8.932  29.102  57.447  1.00  0.00    -0.224 N 
HETATM    7  N   UNL     1       8.043  28.209  58.092  1.00  0.00    -0.180 NA
HETATM    8  C   UNL     1       7.298  27.411  57.379  1.00  0.00     0.153 A 
HETATM    9  C   UNL     1       7.347  27.436  55.946  1.00  0.00     0.028 A 
HETATM   10  C   UNL     1       8.221  28.294  55.332  1.00  0.00     0.116 A 
HETATM   11  C   UNL     1       6.618  26.755  54.935  1.00  0.00     0.005 A 
HETATM   12  N   UNL     1       8.076  28.165  53.980  1.00  0.00    -0.350 N 
HETATM   13  C   UNL     1       9.079  29.194  56.044  1.00  0.00     0.291 A 
HETATM   14  H   UNL     1       8.591  28.697  53.290  1.00  0.00     0.166 HD
HETATM   15  C   UNL     1       7.086  27.243  53.709  1.00  0.00     0.044 A 
HETATM   16  C   UNL     1       6.568  26.815  52.481  1.00  0.00     0.030 A 
HETATM   17  C   UNL     1       5.544  25.865  52.505  1.00  0.00     0.002 A 
HETATM   18  C   UNL     1       5.063  25.357  53.709  1.00  0.00     0.001 A 
HETATM   19  C   UNL     1       5.591  25.792  54.931  1.00  0.00     0.014 A 
HETATM   20  O   UNL     1       9.823  29.980  55.469  1.00  0.00    -0.264 OA
ENDBRANCH   5   6
ENDBRANCH   2   5
BRANCH   1  21
HETATM   21  C   UNL     1       6.701  31.880  60.163  1.00  0.00     0.035 A 
HETATM   22  C   UNL     1       7.050  32.172  61.485  1.00  0.00     0.044 A 
HETATM   23  C   UNL     1       6.145  32.854  62.333  1.00  0.00     0.005 A 
HETATM   24  C   UNL     1       4.893  33.214  61.837  1.00  0.00     0.046 A 
HETATM   25  C   UNL     1       6.225  33.309  63.686  1.00  0.00     0.003 A 
HETATM   26  N   UNL     1       4.218  33.840  62.868  1.00  0.00    -0.346 N 
HETATM   27  C   UNL     1       4.521  32.933  60.513  1.00  0.00     0.033 A 
HETATM   28  C   UNL     1       5.012  33.925  63.997  1.00  0.00     0.046 A 
HETATM   29  C   UNL     1       4.771  34.489  65.263  1.00  0.00     0.030 A 
HETATM   30  C   UNL     1       5.788  34.422  66.220  1.00  0.00     0.002 A 
HETATM   31  C   UNL     1       7.003  33.812  65.931  1.00  0.00     0.001 A 
HETATM   32  C   UNL     1       7.233  33.252  64.671  1.00  0.00     0.014 A 
HETATM   33  C   UNL     1       5.444  32.268  59.691  1.00  0.00     0.032 A 
BRANCH  26  34
HETATM   34  C   UNL     1       2.850  34.332  62.790  1.00  0.00     0.125 C 
HETATM   35  C   UNL     1       2.778  35.774  62.320  1.00  0.00     0.027 C 
ENDBRANCH  26  34
ENDBRANCH   1  21
TORSDOF 4
ENDMDL
