MODEL 1
REMARK VINA RESULT:      -8.7      0.000      0.000
REMARK  3 active torsions:
REMARK  status: ('A' for Active; 'I' for Inactive)
REMARK    1  A    between atoms: C_3  and  N_4 
REMARK    2  A    between atoms: C_14  and  N_15 
REMARK       I    between atoms: N_15  and  C_16 
REMARK    3  A    between atoms: C_16  and  C_17 
ROOT
HETATM    1  N   UNL     1       7.518  27.680  56.709  1.00  0.00    -0.237 N 
HETATM    2  N   UNL     1       8.699  27.948  57.334  1.00  0.00    -0.179 NA
HETATM    3  C   UNL     1       8.598  29.201  57.767  1.00  0.00     0.150 A 
HETATM    4  C   UNL     1       7.365  29.777  57.443  1.00  0.00     0.008 A 
HETATM    5  C   UNL     1       6.669  28.778  56.785  1.00  0.00     0.047 A 
HETATM    6  C   UNL     1       5.359  28.979  56.090  1.00  0.00     0.069 C 
HETATM    7  C   UNL     1       4.639  30.267  56.601  1.00  0.00    -0.040 C 
HETATM    8  C   UNL     1       3.919  29.974  57.934  1.00  0.00     0.015 C 
HETATM    9  C   UNL     1       3.565  30.669  55.570  1.00  0.00     0.015 C 
HETATM   10  C   UNL     1       5.645  31.451  56.751  1.00  0.00     0.039 C 
HETATM   11  C   UNL     1       6.877  31.168  57.643  1.00  0.00     0.122 C 
ENDROOT
BRANCH  11  12
HETATM   12  N   UNL     1       6.605  31.352  59.055  1.00  0.00    -0.347 N 
HETATM   13  C   UNL     1       7.483  32.037  59.855  1.00  0.00     0.270 C 
HETATM   14  O   UNL     1       8.524  32.543  59.446  1.00  0.00    -0.266 OA
HETATM   15  H   UNL     1       5.748  30.972  59.429  1.00  0.00     0.163 HD
BRANCH  13  16
HETATM   16  C   UNL     1       7.118  32.139  61.291  1.00  0.00     0.120 A 
HETATM   17  N   UNL     1       5.825  31.889  61.702  1.00  0.00    -0.303 N 
HETATM   18  C   UNL     1       5.731  32.063  63.083  1.00  0.00     0.324 A 
HETATM   19  H   UNL     1       5.067  31.630  61.088  1.00  0.00     0.171 HD
HETATM   20  O   UNL     1       4.752  31.935  63.790  1.00  0.00    -0.247 OA
HETATM   21  N   UNL     1       7.028  32.422  63.477  1.00  0.00    -0.316 N 
HETATM   22  C   UNL     1       7.845  32.462  62.373  1.00  0.00     0.128 A 
HETATM   23  H   UNL     1       7.276  32.621  64.434  1.00  0.00     0.170 HD
ENDBRANCH  13  16
ENDBRANCH  11  12
BRANCH   1  24
HETATM   24  C   UNL     1       7.306  26.408  56.099  1.00  0.00     0.064 A 
HETATM   25  C   UNL     1       7.381  26.239  54.696  1.00  0.00    -0.033 A 
HETATM   26  C   UNL     1       7.635  27.366  53.728  1.00  0.00     0.050 C 
HETATM   27  C   UNL     1       7.182  24.954  54.157  1.00  0.00     0.009 A 
HETATM   28  C   UNL     1       6.909  23.861  54.979  1.00  0.00     0.001 A 
HETATM   29  C   UNL     1       6.848  24.029  56.356  1.00  0.00     0.002 A 
HETATM   30  C   UNL     1       7.052  25.293  56.915  1.00  0.00     0.032 A 
ENDBRANCH   1  24
TORSDOF 3
ENDMDL
MODEL 2
REMARK VINA RESULT:      -8.5      4.729      6.971
REMARK  3 active torsions:
REMARK  status: ('A' for Active; 'I' for Inactive)
REMARK    1  A    between atoms: C_3  and  N_4 
REMARK    2  A    between atoms: C_14  and  N_15 
REMARK       I    between atoms: N_15  and  C_16 
REMARK    3  A    between atoms: C_16  and  C_17 
ROOT
HETATM    1  N   UNL     1       6.355  25.016  54.427  1.00  0.00    -0.237 N 
HETATM    2  N   UNL     1       5.268  24.995  53.606  1.00  0.00    -0.179 NA
HETATM    3  C   UNL     1       4.697  26.188  53.738  1.00  0.00     0.150 A 
HETATM    4  C   UNL     1       5.386  27.010  54.636  1.00  0.00     0.008 A 
HETATM    5  C   UNL     1       6.467  26.253  55.052  1.00  0.00     0.047 A 
HETATM    6  C   UNL     1       7.400  26.648  56.153  1.00  0.00     0.069 C 
HETATM    7  C   UNL     1       7.331  28.183  56.431  1.00  0.00    -0.040 C 
HETATM    8  C   UNL     1       8.185  28.944  55.396  1.00  0.00     0.015 C 
HETATM    9  C   UNL     1       7.933  28.456  57.824  1.00  0.00     0.015 C 
HETATM   10  C   UNL     1       5.854  28.689  56.425  1.00  0.00     0.039 C 
HETATM   11  C   UNL     1       5.045  28.364  55.146  1.00  0.00     0.122 C 
ENDROOT
BRANCH  11  12
HETATM   12  N   UNL     1       5.270  29.320  54.080  1.00  0.00    -0.347 N 
HETATM   13  C   UNL     1       4.245  29.709  53.258  1.00  0.00     0.270 C 
HETATM   14  O   UNL     1       3.092  29.301  53.368  1.00  0.00    -0.266 OA
HETATM   15  H   UNL     1       6.200  29.698  53.967  1.00  0.00     0.163 HD
BRANCH  13  16
HETATM   16  C   UNL     1       4.597  30.668  52.180  1.00  0.00     0.120 A 
HETATM   17  N   UNL     1       5.580  30.359  51.264  1.00  0.00    -0.303 N 
HETATM   18  C   UNL     1       5.735  31.418  50.369  1.00  0.00     0.324 A 
HETATM   19  H   UNL     1       6.108  29.499  51.256  1.00  0.00     0.171 HD
HETATM   20  O   UNL     1       6.508  31.504  49.435  1.00  0.00    -0.247 OA
HETATM   21  N   UNL     1       4.796  32.370  50.790  1.00  0.00    -0.316 N 
HETATM   22  C   UNL     1       4.123  31.891  51.888  1.00  0.00     0.128 A 
HETATM   23  H   UNL     1       4.674  33.261  50.333  1.00  0.00     0.170 HD
ENDBRANCH  13  16
ENDBRANCH  11  12
BRANCH   1  24
HETATM   24  C   UNL     1       7.186  23.862  54.542  1.00  0.00     0.064 A 
HETATM   25  C   UNL     1       8.016  23.441  53.476  1.00  0.00    -0.033 A 
HETATM   26  C   UNL     1       8.066  24.121  52.132  1.00  0.00     0.050 C 
HETATM   27  C   UNL     1       8.829  22.306  53.659  1.00  0.00     0.009 A 
HETATM   28  C   UNL     1       8.819  21.597  54.859  1.00  0.00     0.001 A 
HETATM   29  C   UNL     1       8.012  22.021  55.907  1.00  0.00     0.002 A 
HETATM   30  C   UNL     1       7.205  23.151  55.753  1.00  0.00     0.032 A 
ENDBRANCH   1  24
TORSDOF 3
ENDMDL
MODEL 3
REMARK VINA RESULT:      -8.5      1.508      2.188
REMARK  3 active torsions:
REMARK  status: ('A' for Active; 'I' for Inactive)
REMARK    1  A    between atoms: C_3  and  N_4 
REMARK    2  A    between atoms: C_14  and  N_15 
REMARK       I    between atoms: N_15  and  C_16 
REMARK    3  A    between atoms: C_16  and  C_17 
ROOT
HETATM    1  N   UNL     1       7.111  27.684  55.896  1.00  0.00    -0.237 N 
HETATM    2  N   UNL     1       8.086  27.906  56.821  1.00  0.00    -0.179 NA
HETATM    3  C   UNL     1       7.824  29.103  57.337  1.00  0.00     0.150 A 
HETATM    4  C   UNL     1       6.686  29.687  56.772  1.00  0.00     0.008 A 
HETATM    5  C   UNL     1       6.220  28.751  55.864  1.00  0.00     0.047 A 
HETATM    6  C   UNL     1       5.116  29.000  54.886  1.00  0.00     0.069 C 
HETATM    7  C   UNL     1       4.234  30.212  55.324  1.00  0.00    -0.040 C 
HETATM    8  C   UNL     1       3.220  29.765  56.397  1.00  0.00     0.015 C 
HETATM    9  C   UNL     1       3.433  30.702  54.101  1.00  0.00     0.015 C 
HETATM   10  C   UNL     1       5.117  31.393  55.839  1.00  0.00     0.039 C 
HETATM   11  C   UNL     1       6.101  31.039  56.979  1.00  0.00     0.122 C 
ENDROOT
BRANCH  11  12
HETATM   12  N   UNL     1       5.479  31.066  58.288  1.00  0.00    -0.347 N 
HETATM   13  C   UNL     1       5.307  32.249  58.959  1.00  0.00     0.270 C 
HETATM   14  O   UNL     1       5.642  33.341  58.509  1.00  0.00    -0.266 OA
HETATM   15  H   UNL     1       5.168  30.192  58.687  1.00  0.00     0.163 HD
BRANCH  13  16
HETATM   16  C   UNL     1       4.687  32.155  60.305  1.00  0.00     0.120 A 
HETATM   17  N   UNL     1       5.475  32.032  61.430  1.00  0.00    -0.303 N 
HETATM   18  C   UNL     1       4.666  31.947  62.562  1.00  0.00     0.324 A 
HETATM   19  H   UNL     1       6.484  31.999  61.424  1.00  0.00     0.171 HD
HETATM   20  O   UNL     1       5.008  31.826  63.722  1.00  0.00    -0.247 OA
HETATM   21  N   UNL     1       3.358  32.030  62.062  1.00  0.00    -0.316 N 
HETATM   22  C   UNL     1       3.401  32.154  60.694  1.00  0.00     0.128 A 
HETATM   23  H   UNL     1       2.541  31.992  62.652  1.00  0.00     0.170 HD
ENDBRANCH  13  16
ENDBRANCH  11  12
BRANCH   1  24
HETATM   24  C   UNL     1       7.114  26.481  55.130  1.00  0.00     0.064 A 
HETATM   25  C   UNL     1       6.537  25.288  55.626  1.00  0.00    -0.033 A 
HETATM   26  C   UNL     1       5.921  25.160  56.996  1.00  0.00     0.050 C 
HETATM   27  C   UNL     1       6.553  24.138  54.813  1.00  0.00     0.009 A 
HETATM   28  C   UNL     1       7.132  24.160  53.545  1.00  0.00     0.001 A 
HETATM   29  C   UNL     1       7.687  25.336  53.058  1.00  0.00     0.002 A 
HETATM   30  C   UNL     1       7.673  26.492  53.842  1.00  0.00     0.032 A 
ENDBRANCH   1  24
TORSDOF 3
ENDMDL
MODEL 4
REMARK VINA RESULT:      -8.4      4.041      6.897
REMARK  3 active torsions:
REMARK  status: ('A' for Active; 'I' for Inactive)
REMARK    1  A    between atoms: C_3  and  N_4 
REMARK    2  A    between atoms: C_14  and  N_15 
REMARK       I    between atoms: N_15  and  C_16 
REMARK    3  A    between atoms: C_16  and  C_17 
ROOT
HETATM    1  N   UNL     1       4.757  27.269  51.366  1.00  0.00    -0.237 N 
HETATM    2  N   UNL     1       4.178  28.289  52.058  1.00  0.00    -0.179 NA
HETATM    3  C   UNL     1       4.464  28.062  53.336  1.00  0.00     0.150 A 
HETATM    4  C   UNL     1       5.228  26.903  53.512  1.00  0.00     0.008 A 
HETATM    5  C   UNL     1       5.432  26.416  52.232  1.00  0.00     0.047 A 
HETATM    6  C   UNL     1       6.052  25.090  51.922  1.00  0.00     0.069 C 
HETATM    7  C   UNL     1       6.877  24.554  53.134  1.00  0.00    -0.040 C 
HETATM    8  C   UNL     1       8.265  25.226  53.166  1.00  0.00     0.015 C 
HETATM    9  C   UNL     1       7.097  23.039  52.945  1.00  0.00     0.015 C 
HETATM   10  C   UNL     1       6.113  24.776  54.478  1.00  0.00     0.039 C 
HETATM   11  C   UNL     1       5.677  26.234  54.761  1.00  0.00     0.122 C 
ENDROOT
BRANCH  11  12
HETATM   12  N   UNL     1       6.734  27.033  55.348  1.00  0.00    -0.347 N 
HETATM   13  C   UNL     1       6.480  27.862  56.410  1.00  0.00     0.270 C 
HETATM   14  O   UNL     1       5.378  27.974  56.937  1.00  0.00    -0.266 OA
HETATM   15  H   UNL     1       7.662  26.955  54.959  1.00  0.00     0.163 HD
BRANCH  13  16
HETATM   16  C   UNL     1       7.631  28.657  56.910  1.00  0.00     0.120 A 
HETATM   17  N   UNL     1       8.683  28.965  56.074  1.00  0.00    -0.303 N 
HETATM   18  C   UNL     1       9.639  29.699  56.775  1.00  0.00     0.324 A 
HETATM   19  H   UNL     1       8.747  28.688  55.105  1.00  0.00     0.171 HD
HETATM   20  O   UNL     1      10.696  30.138  56.367  1.00  0.00    -0.247 OA
HETATM   21  N   UNL     1       9.106  29.820  58.066  1.00  0.00    -0.316 N 
HETATM   22  C   UNL     1       7.892  29.179  58.120  1.00  0.00     0.128 A 
HETATM   23  H   UNL     1       9.581  30.305  58.813  1.00  0.00     0.170 HD
ENDBRANCH  13  16
ENDBRANCH  11  12
BRANCH   1  24
HETATM   24  C   UNL     1       4.616  27.198  49.948  1.00  0.00     0.064 A 
HETATM   25  C   UNL     1       5.140  28.203  49.102  1.00  0.00    -0.033 A 
HETATM   26  C   UNL     1       5.838  29.442  49.604  1.00  0.00     0.050 C 
HETATM   27  C   UNL     1       4.987  28.065  47.709  1.00  0.00     0.009 A 
HETATM   28  C   UNL     1       4.325  26.967  47.162  1.00  0.00     0.001 A 
HETATM   29  C   UNL     1       3.822  25.976  47.995  1.00  0.00     0.002 A 
HETATM   30  C   UNL     1       3.972  26.086  49.380  1.00  0.00     0.032 A 
ENDBRANCH   1  24
TORSDOF 3
ENDMDL
MODEL 5
REMARK VINA RESULT:      -8.3      3.601      5.357
REMARK  3 active torsions:
REMARK  status: ('A' for Active; 'I' for Inactive)
REMARK    1  A    between atoms: C_3  and  N_4 
REMARK    2  A    between atoms: C_14  and  N_15 
REMARK       I    between atoms: N_15  and  C_16 
REMARK    3  A    between atoms: C_16  and  C_17 
ROOT
HETATM    1  N   UNL     1       6.618  24.908  56.199  1.00  0.00    -0.237 N 
HETATM    2  N   UNL     1       5.287  24.737  56.435  1.00  0.00    -0.179 NA
HETATM    3  C   UNL     1       4.843  25.920  56.850  1.00  0.00     0.150 A 
HETATM    4  C   UNL     1       5.857  26.883  56.893  1.00  0.00     0.008 A 
HETATM    5  C   UNL     1       6.990  26.225  56.445  1.00  0.00     0.047 A 
HETATM    6  C   UNL     1       8.371  26.800  56.482  1.00  0.00     0.069 C 
HETATM    7  C   UNL     1       8.332  28.356  56.603  1.00  0.00    -0.040 C 
HETATM    8  C   UNL     1       8.076  28.986  55.217  1.00  0.00     0.015 C 
HETATM    9  C   UNL     1       9.712  28.844  57.089  1.00  0.00     0.015 C 
HETATM   10  C   UNL     1       7.256  28.814  57.637  1.00  0.00     0.039 C 
HETATM   11  C   UNL     1       5.823  28.286  57.384  1.00  0.00     0.122 C 
ENDROOT
BRANCH  11  12
HETATM   12  N   UNL     1       5.091  29.084  56.421  1.00  0.00    -0.347 N 
HETATM   13  C   UNL     1       4.220  30.059  56.835  1.00  0.00     0.270 C 
HETATM   14  O   UNL     1       4.013  30.330  58.013  1.00  0.00    -0.266 OA
HETATM   15  H   UNL     1       5.248  28.909  55.439  1.00  0.00     0.163 HD
BRANCH  13  16
HETATM   16  C   UNL     1       3.501  30.793  55.762  1.00  0.00     0.120 A 
HETATM   17  N   UNL     1       2.676  31.853  56.074  1.00  0.00    -0.303 N 
HETATM   18  C   UNL     1       2.108  32.364  54.907  1.00  0.00     0.324 A 
HETATM   19  H   UNL     1       2.508  32.194  57.009  1.00  0.00     0.171 HD
HETATM   20  O   UNL     1       1.331  33.290  54.794  1.00  0.00    -0.247 OA
HETATM   21  N   UNL     1       2.637  31.563  53.884  1.00  0.00    -0.316 N 
HETATM   22  C   UNL     1       3.474  30.621  54.430  1.00  0.00     0.128 A 
HETATM   23  H   UNL     1       2.403  31.690  52.911  1.00  0.00     0.170 HD
ENDBRANCH  13  16
ENDBRANCH  11  12
BRANCH   1  24
HETATM   24  C   UNL     1       7.411  23.807  55.760  1.00  0.00     0.064 A 
HETATM   25  C   UNL     1       7.656  23.574  54.386  1.00  0.00    -0.033 A 
HETATM   26  C   UNL     1       7.077  24.413  53.276  1.00  0.00     0.050 C 
HETATM   27  C   UNL     1       8.465  22.482  54.017  1.00  0.00     0.009 A 
HETATM   28  C   UNL     1       9.015  21.634  54.979  1.00  0.00     0.001 A 
HETATM   29  C   UNL     1       8.781  21.874  56.327  1.00  0.00     0.002 A 
HETATM   30  C   UNL     1       7.991  22.957  56.717  1.00  0.00     0.032 A 
ENDBRANCH   1  24
TORSDOF 3
ENDMDL
MODEL 6
REMARK VINA RESULT:      -7.9      4.075      6.731
REMARK  3 active torsions:
REMARK  status: ('A' for Active; 'I' for Inactive)
REMARK    1  A    between atoms: C_3  and  N_4 
REMARK    2  A    between atoms: C_14  and  N_15 
REMARK       I    between atoms: N_15  and  C_16 
REMARK    3  A    between atoms: C_16  and  C_17 
ROOT
HETATM    1  N   UNL     1       4.471  28.575  51.683  1.00  0.00    -0.237 N 
HETATM    2  N   UNL     1       4.087  29.641  52.439  1.00  0.00    -0.179 NA
HETATM    3  C   UNL     1       4.401  29.323  53.691  1.00  0.00     0.150 A 
HETATM    4  C   UNL     1       4.993  28.060  53.786  1.00  0.00     0.008 A 
HETATM    5  C   UNL     1       5.056  27.599  52.482  1.00  0.00     0.047 A 
HETATM    6  C   UNL     1       5.456  26.210  52.096  1.00  0.00     0.069 C 
HETATM    7  C   UNL     1       6.254  25.511  53.242  1.00  0.00    -0.040 C 
HETATM    8  C   UNL     1       7.726  25.972  53.216  1.00  0.00     0.015 C 
HETATM    9  C   UNL     1       6.237  23.989  52.994  1.00  0.00     0.015 C 
HETATM   10  C   UNL     1       5.601  25.790  54.633  1.00  0.00     0.039 C 
HETATM   11  C   UNL     1       5.401  27.283  54.987  1.00  0.00     0.122 C 
ENDROOT
BRANCH  11  12
HETATM   12  N   UNL     1       6.594  27.896  55.537  1.00  0.00    -0.347 N 
HETATM   13  C   UNL     1       6.579  28.466  56.784  1.00  0.00     0.270 C 
HETATM   14  O   UNL     1       5.590  28.487  57.510  1.00  0.00    -0.266 OA
HETATM   15  H   UNL     1       7.437  27.882  54.982  1.00  0.00     0.163 HD
BRANCH  13  16
HETATM   16  C   UNL     1       7.849  29.091  57.234  1.00  0.00     0.120 A 
HETATM   17  N   UNL     1       8.955  29.096  56.410  1.00  0.00    -0.303 N 
HETATM   18  C   UNL     1      10.019  29.723  57.059  1.00  0.00     0.324 A 
HETATM   19  H   UNL     1       8.984  28.696  55.484  1.00  0.00     0.171 HD
HETATM   20  O   UNL     1      11.146  29.906  56.645  1.00  0.00    -0.247 OA
HETATM   21  N   UNL     1       9.495  30.096  58.304  1.00  0.00    -0.316 N 
HETATM   22  C   UNL     1       8.182  29.700  58.384  1.00  0.00     0.128 A 
HETATM   23  H   UNL     1      10.039  30.573  59.008  1.00  0.00     0.170 HD
ENDBRANCH  13  16
ENDBRANCH  11  12
BRANCH   1  24
HETATM   24  C   UNL     1       4.248  28.581  50.274  1.00  0.00     0.064 A 
HETATM   25  C   UNL     1       2.946  28.705  49.733  1.00  0.00    -0.033 A 
HETATM   26  C   UNL     1       1.695  28.790  50.568  1.00  0.00     0.050 C 
HETATM   27  C   UNL     1       2.794  28.726  48.333  1.00  0.00     0.009 A 
HETATM   28  C   UNL     1       3.896  28.619  47.486  1.00  0.00     0.001 A 
HETATM   29  C   UNL     1       5.173  28.509  48.022  1.00  0.00     0.002 A 
HETATM   30  C   UNL     1       5.350  28.497  49.407  1.00  0.00     0.032 A 
ENDBRANCH   1  24
TORSDOF 3
ENDMDL
MODEL 7
REMARK VINA RESULT:      -7.8      2.859      8.391
REMARK  3 active torsions:
REMARK  status: ('A' for Active; 'I' for Inactive)
REMARK    1  A    between atoms: C_3  and  N_4 
REMARK    2  A    between atoms: C_14  and  N_15 
REMARK       I    between atoms: N_15  and  C_16 
REMARK    3  A    between atoms: C_16  and  C_17 
ROOT
HETATM    1  N   UNL     1       5.315  32.954  61.346  1.00  0.00    -0.237 N 
HETATM    2  N   UNL     1       4.341  32.731  60.419  1.00  0.00    -0.179 NA
HETATM    3  C   UNL     1       4.945  32.113  59.408  1.00  0.00     0.150 A 
HETATM    4  C   UNL     1       6.309  31.918  59.644  1.00  0.00     0.008 A 
HETATM    5  C   UNL     1       6.529  32.439  60.907  1.00  0.00     0.047 A 
HETATM    6  C   UNL     1       7.882  32.617  61.523  1.00  0.00     0.069 C 
HETATM    7  C   UNL     1       8.945  31.714  60.823  1.00  0.00    -0.040 C 
HETATM    8  C   UNL     1       8.855  30.273  61.367  1.00  0.00     0.015 C 
HETATM    9  C   UNL     1      10.348  32.254  61.166  1.00  0.00     0.015 C 
HETATM   10  C   UNL     1       8.773  31.742  59.271  1.00  0.00     0.039 C 
HETATM   11  C   UNL     1       7.364  31.367  58.752  1.00  0.00     0.122 C 
ENDROOT
BRANCH  11  12
HETATM   12  N   UNL     1       7.165  29.935  58.647  1.00  0.00    -0.347 N 
HETATM   13  C   UNL     1       6.911  29.350  57.434  1.00  0.00     0.270 C 
HETATM   14  O   UNL     1       6.850  29.971  56.377  1.00  0.00    -0.266 OA
HETATM   15  H   UNL     1       7.229  29.382  59.489  1.00  0.00     0.163 HD
BRANCH  13  16
HETATM   16  C   UNL     1       6.694  27.881  57.448  1.00  0.00     0.120 A 
HETATM   17  N   UNL     1       5.434  27.359  57.240  1.00  0.00    -0.303 N 
HETATM   18  C   UNL     1       5.484  25.967  57.317  1.00  0.00     0.324 A 
HETATM   19  H   UNL     1       4.605  27.910  57.070  1.00  0.00     0.171 HD
HETATM   20  O   UNL     1       4.572  25.175  57.191  1.00  0.00    -0.247 OA
HETATM   21  N   UNL     1       6.833  25.682  57.574  1.00  0.00    -0.316 N 
HETATM   22  C   UNL     1       7.541  26.858  57.651  1.00  0.00     0.128 A 
HETATM   23  H   UNL     1       7.184  24.743  57.688  1.00  0.00     0.170 HD
ENDBRANCH  13  16
ENDBRANCH  11  12
BRANCH   1  24
HETATM   24  C   UNL     1       5.002  33.633  62.561  1.00  0.00     0.064 A 
HETATM   25  C   UNL     1       4.663  35.006  62.573  1.00  0.00    -0.033 A 
HETATM   26  C   UNL     1       4.648  35.878  61.344  1.00  0.00     0.050 C 
HETATM   27  C   UNL     1       4.343  35.614  63.803  1.00  0.00     0.009 A 
HETATM   28  C   UNL     1       4.365  34.889  64.993  1.00  0.00     0.001 A 
HETATM   29  C   UNL     1       4.687  33.538  64.974  1.00  0.00     0.002 A 
HETATM   30  C   UNL     1       4.997  32.911  63.766  1.00  0.00     0.032 A 
ENDBRANCH   1  24
TORSDOF 3
ENDMDL
MODEL 8
REMARK VINA RESULT:      -7.8      3.034      5.011
REMARK  3 active torsions:
REMARK  status: ('A' for Active; 'I' for Inactive)
REMARK    1  A    between atoms: C_3  and  N_4 
REMARK    2  A    between atoms: C_14  and  N_15 
REMARK       I    between atoms: N_15  and  C_16 
REMARK    3  A    between atoms: C_16  and  C_17 
ROOT
HETATM    1  N   UNL     1       7.741  24.452  54.856  1.00  0.00    -0.237 N 
HETATM    2  N   UNL     1       8.274  24.978  55.994  1.00  0.00    -0.179 NA
HETATM    3  C   UNL     1       8.022  26.283  55.937  1.00  0.00     0.150 A 
HETATM    4  C   UNL     1       7.327  26.639  54.778  1.00  0.00     0.008 A 
HETATM    5  C   UNL     1       7.128  25.447  54.103  1.00  0.00     0.047 A 
HETATM    6  C   UNL     1       6.578  25.344  52.715  1.00  0.00     0.069 C 
HETATM    7  C   UNL     1       5.804  26.640  52.316  1.00  0.00    -0.040 C 
HETATM    8  C   UNL     1       4.381  26.610  52.912  1.00  0.00     0.015 C 
HETATM    9  C   UNL     1       5.664  26.674  50.780  1.00  0.00     0.015 C 
HETATM   10  C   UNL     1       6.577  27.919  52.768  1.00  0.00     0.039 C 
HETATM   11  C   UNL     1       6.936  27.982  54.272  1.00  0.00     0.122 C 
ENDROOT
BRANCH  11  12
HETATM   12  N   UNL     1       5.847  28.475  55.091  1.00  0.00    -0.347 N 
HETATM   13  C   UNL     1       6.062  29.442  56.038  1.00  0.00     0.270 C 
HETATM   14  O   UNL     1       7.156  29.958  56.246  1.00  0.00    -0.266 OA
HETATM   15  H   UNL     1       4.925  28.093  54.937  1.00  0.00     0.163 HD
BRANCH  13  16
HETATM   16  C   UNL     1       4.880  29.849  56.839  1.00  0.00     0.120 A 
HETATM   17  N   UNL     1       5.039  30.600  57.985  1.00  0.00    -0.303 N 
HETATM   18  C   UNL     1       3.792  30.839  58.564  1.00  0.00     0.324 A 
HETATM   19  H   UNL     1       5.926  30.915  58.347  1.00  0.00     0.171 HD
HETATM   20  O   UNL     1       3.543  31.458  59.580  1.00  0.00    -0.247 OA
HETATM   21  N   UNL     1       2.883  30.202  57.708  1.00  0.00    -0.316 N 
HETATM   22  C   UNL     1       3.569  29.609  56.675  1.00  0.00     0.128 A 
HETATM   23  H   UNL     1       1.887  30.196  57.870  1.00  0.00     0.170 HD
ENDBRANCH  13  16
ENDBRANCH  11  12
BRANCH   1  24
HETATM   24  C   UNL     1       7.862  23.056  54.590  1.00  0.00     0.064 A 
HETATM   25  C   UNL     1       8.003  22.114  55.637  1.00  0.00    -0.033 A 
HETATM   26  C   UNL     1       8.087  22.487  57.095  1.00  0.00     0.050 C 
HETATM   27  C   UNL     1       8.096  20.748  55.311  1.00  0.00     0.009 A 
HETATM   28  C   UNL     1       8.061  20.319  53.984  1.00  0.00     0.001 A 
HETATM   29  C   UNL     1       7.911  21.246  52.961  1.00  0.00     0.002 A 
HETATM   30  C   UNL     1       7.805  22.606  53.261  1.00  0.00     0.032 A 
ENDBRANCH   1  24
TORSDOF 3
ENDMDL
MODEL 9
REMARK VINA RESULT:      -7.3      5.433     10.387
REMARK  3 active torsions:
REMARK  status: ('A' for Active; 'I' for Inactive)
REMARK    1  A    between atoms: C_3  and  N_4 
REMARK    2  A    between atoms: C_14  and  N_15 
REMARK       I    between atoms: N_15  and  C_16 
REMARK    3  A    between atoms: C_16  and  C_17 
ROOT
HETATM    1  N   UNL     1       4.435  34.683  64.680  1.00  0.00    -0.237 N 
HETATM    2  N   UNL     1       3.662  33.650  64.242  1.00  0.00    -0.179 NA
HETATM    3  C   UNL     1       3.153  34.052  63.081  1.00  0.00     0.150 A 
HETATM    4  C   UNL     1       3.576  35.339  62.733  1.00  0.00     0.008 A 
HETATM    5  C   UNL     1       4.423  35.723  63.758  1.00  0.00     0.047 A 
HETATM    6  C   UNL     1       4.986  37.101  63.916  1.00  0.00     0.069 C 
HETATM    7  C   UNL     1       4.929  37.893  62.572  1.00  0.00    -0.040 C 
HETATM    8  C   UNL     1       6.111  37.483  61.668  1.00  0.00     0.015 C 
HETATM    9  C   UNL     1       5.080  39.396  62.883  1.00  0.00     0.015 C 
HETATM   10  C   UNL     1       3.563  37.675  61.848  1.00  0.00     0.039 C 
HETATM   11  C   UNL     1       3.177  36.199  61.587  1.00  0.00     0.122 C 
ENDROOT
BRANCH  11  12
HETATM   12  N   UNL     1       3.785  35.662  60.386  1.00  0.00    -0.347 N 
HETATM   13  C   UNL     1       3.063  34.875  59.526  1.00  0.00     0.270 C 
HETATM   14  O   UNL     1       1.882  34.587  59.696  1.00  0.00    -0.266 OA
HETATM   15  H   UNL     1       4.749  35.892  60.195  1.00  0.00     0.163 HD
BRANCH  13  16
HETATM   16  C   UNL     1       3.795  34.354  58.344  1.00  0.00     0.120 A 
HETATM   17  N   UNL     1       4.048  33.005  58.217  1.00  0.00    -0.303 N 
HETATM   18  C   UNL     1       4.757  32.769  57.039  1.00  0.00     0.324 A 
HETATM   19  H   UNL     1       3.767  32.302  58.886  1.00  0.00     0.171 HD
HETATM   20  O   UNL     1       5.155  31.708  56.603  1.00  0.00    -0.247 OA
HETATM   21  N   UNL     1       4.910  34.040  56.466  1.00  0.00    -0.316 N 
HETATM   22  C   UNL     1       4.321  34.980  57.277  1.00  0.00     0.128 A 
HETATM   23  H   UNL     1       5.395  34.194  55.595  1.00  0.00     0.170 HD
ENDBRANCH  13  16
ENDBRANCH  11  12
BRANCH   1  24
HETATM   24  C   UNL     1       5.115  34.585  65.931  1.00  0.00     0.064 A 
HETATM   25  C   UNL     1       6.450  34.124  66.012  1.00  0.00    -0.033 A 
HETATM   26  C   UNL     1       7.249  33.655  64.823  1.00  0.00     0.050 C 
HETATM   27  C   UNL     1       7.073  34.071  67.274  1.00  0.00     0.009 A 
HETATM   28  C   UNL     1       6.394  34.454  68.430  1.00  0.00     0.001 A 
HETATM   29  C   UNL     1       5.087  34.918  68.343  1.00  0.00     0.002 A 
HETATM   30  C   UNL     1       4.453  34.990  67.101  1.00  0.00     0.032 A 
ENDBRANCH   1  24
TORSDOF 3
ENDMDL
MODEL 10
REMARK VINA RESULT:      -7.2      3.878      5.957
REMARK  3 active torsions:
REMARK  status: ('A' for Active; 'I' for Inactive)
REMARK    1  A    between atoms: C_3  and  N_4 
REMARK    2  A    between atoms: C_14  and  N_15 
REMARK       I    between atoms: N_15  and  C_16 
REMARK    3  A    between atoms: C_16  and  C_17 
ROOT
HETATM    1  N   UNL     1       6.725  25.292  55.311  1.00  0.00    -0.237 N 
HETATM    2  N   UNL     1       5.365  25.227  55.263  1.00  0.00    -0.179 NA
HETATM    3  C   UNL     1       4.934  26.389  55.748  1.00  0.00     0.150 A 
HETATM    4  C   UNL     1       5.986  27.232  56.118  1.00  0.00     0.008 A 
HETATM    5  C   UNL     1       7.135  26.525  55.806  1.00  0.00     0.047 A 
HETATM    6  C   UNL     1       8.518  26.951  56.186  1.00  0.00     0.069 C 
HETATM    7  C   UNL     1       8.570  28.477  56.514  1.00  0.00    -0.040 C 
HETATM    8  C   UNL     1       8.646  29.295  55.208  1.00  0.00     0.015 C 
HETATM    9  C   UNL     1       9.855  28.761  57.318  1.00  0.00     0.015 C 
HETATM   10  C   UNL     1       7.343  28.908  57.379  1.00  0.00     0.039 C 
HETATM   11  C   UNL     1       5.957  28.561  56.785  1.00  0.00     0.122 C 
ENDROOT
BRANCH  11  12
HETATM   12  N   UNL     1       5.494  29.540  55.822  1.00  0.00    -0.347 N 
HETATM   13  C   UNL     1       4.209  30.014  55.865  1.00  0.00     0.270 C 
HETATM   14  O   UNL     1       3.383  29.666  56.703  1.00  0.00    -0.266 OA
HETATM   15  H   UNL     1       6.148  29.871  55.128  1.00  0.00     0.163 HD
BRANCH  13  16
HETATM   16  C   UNL     1       3.836  30.991  54.811  1.00  0.00     0.120 A 
HETATM   17  N   UNL     1       4.393  30.908  53.552  1.00  0.00    -0.303 N 
HETATM   18  C   UNL     1       3.899  31.938  52.752  1.00  0.00     0.324 A 
HETATM   19  H   UNL     1       5.064  30.210  53.266  1.00  0.00     0.171 HD
HETATM   20  O   UNL     1       4.168  32.183  51.593  1.00  0.00    -0.247 OA
HETATM   21  N   UNL     1       3.017  32.636  53.589  1.00  0.00    -0.316 N 
HETATM   22  C   UNL     1       3.000  32.043  54.828  1.00  0.00     0.128 A 
HETATM   23  H   UNL     1       2.502  33.450  53.288  1.00  0.00     0.170 HD
ENDBRANCH  13  16
ENDBRANCH  11  12
BRANCH   1  24
HETATM   24  C   UNL     1       7.508  24.180  54.881  1.00  0.00     0.064 A 
HETATM   25  C   UNL     1       8.212  23.371  55.804  1.00  0.00    -0.033 A 
HETATM   26  C   UNL     1       8.244  23.627  57.290  1.00  0.00     0.050 C 
HETATM   27  C   UNL     1       8.950  22.275  55.319  1.00  0.00     0.009 A 
HETATM   28  C   UNL     1       9.002  21.986  53.956  1.00  0.00     0.001 A 
HETATM   29  C   UNL     1       8.300  22.776  53.055  1.00  0.00     0.002 A 
HETATM   30  C   UNL     1       7.551  23.862  53.513  1.00  0.00     0.032 A 
ENDBRANCH   1  24
TORSDOF 3
ENDMDL
