MODEL 1
REMARK VINA RESULT:      -8.9      0.000      0.000
REMARK  6 active torsions:
REMARK  status: ('A' for Active; 'I' for Inactive)
REMARK    1  A    between atoms: C_7  and  S_8 
REMARK    2  A    between atoms: S_8  and  C_9 
REMARK    3  A    between atoms: C_9  and  C_10 
REMARK    4  A    between atoms: C_18  and  C_19 
REMARK    5  A    between atoms: C_26  and  C_27 
REMARK    6  A    between atoms: C_27  and  O_28 
ROOT
HETATM    1  C   UNL     1       9.612  31.206  58.308  1.00  0.00     0.070 C 
HETATM    2  C   UNL     1       8.474  30.272  57.981  1.00  0.00     0.037 A 
HETATM    3  N   UNL     1       8.820  29.075  57.363  1.00  0.00    -0.192 N 
HETATM    4  C   UNL     1       7.941  28.076  57.154  1.00  0.00     0.726 A 
HETATM    5  N   UNL     1       6.615  28.281  57.427  1.00  0.00    -0.082 N 
HETATM    6  N   UNL     1       5.893  27.164  57.216  1.00  0.00    -0.128 NA
HETATM    7  C   UNL     1       6.844  26.327  56.786  1.00  0.00     0.226 A 
HETATM    8  N   UNL     1       8.114  26.851  56.732  1.00  0.00    -0.035 NA
HETATM    9  C   UNL     1       6.061  29.544  57.936  1.00  0.00     0.204 A 
HETATM   10  C   UNL     1       7.177  30.517  58.288  1.00  0.00     0.070 A 
HETATM   11  H   UNL     1       9.809  28.895  57.208  1.00  0.00     0.184 HD
ENDROOT
BRANCH   7  12
HETATM   12  S   UNL     1       6.462  24.692  56.326  1.00  0.00    -0.083 SA
BRANCH  12  13
HETATM   13  C   UNL     1       8.107  24.126  55.814  1.00  0.00     0.123 C 
BRANCH  13  14
HETATM   14  C   UNL     1       8.032  22.876  54.968  1.00  0.00    -0.027 A 
HETATM   15  C   UNL     1       8.005  22.905  53.564  1.00  0.00     0.041 A 
HETATM   16 CL   UNL     1       8.036  24.388  52.677  1.00  0.00    -0.084 Cl
HETATM   17  C   UNL     1       7.948  21.715  52.830  1.00  0.00     0.024 A 
HETATM   18  C   UNL     1       7.921  20.485  53.485  1.00  0.00     0.002 A 
HETATM   19  C   UNL     1       7.954  20.439  54.876  1.00  0.00     0.001 A 
HETATM   20  C   UNL     1       8.013  21.624  55.612  1.00  0.00     0.009 A 
ENDBRANCH  13  14
ENDBRANCH  12  13
ENDBRANCH   7  12
BRANCH   9  21
HETATM   21  C   UNL     1       5.087  30.132  56.915  1.00  0.00    -0.006 A 
HETATM   22  C   UNL     1       3.852  30.691  57.285  1.00  0.00     0.042 A 
HETATM   23 CL   UNL     1       3.327  30.777  58.929  1.00  0.00    -0.084 Cl
HETATM   24  C   UNL     1       2.990  31.224  56.318  1.00  0.00     0.024 A 
HETATM   25  C   UNL     1       3.344  31.211  54.971  1.00  0.00     0.002 A 
HETATM   26  C   UNL     1       4.565  30.669  54.583  1.00  0.00     0.001 A 
HETATM   27  C   UNL     1       5.428  30.138  55.543  1.00  0.00     0.011 A 
ENDBRANCH   9  21
BRANCH  10  28
HETATM   28  C   UNL     1       6.775  31.755  58.980  1.00  0.00     0.293 C 
HETATM   29  O   UNL     1       6.420  32.777  58.418  1.00  0.00    -0.259 OA
BRANCH  28  30
HETATM   30  O   UNL     1       6.910  31.572  60.315  1.00  0.00    -0.323 OA
HETATM   31  C   UNL     1       6.140  32.474  61.109  1.00  0.00     0.213 C 
ENDBRANCH  28  30
ENDBRANCH  10  28
TORSDOF 6
ENDMDL
MODEL 2
REMARK VINA RESULT:      -8.7      5.993      7.638
REMARK  6 active torsions:
REMARK  status: ('A' for Active; 'I' for Inactive)
REMARK    1  A    between atoms: C_7  and  S_8 
REMARK    2  A    between atoms: S_8  and  C_9 
REMARK    3  A    between atoms: C_9  and  C_10 
REMARK    4  A    between atoms: C_18  and  C_19 
REMARK    5  A    between atoms: C_26  and  C_27 
REMARK    6  A    between atoms: C_27  and  O_28 
ROOT
HETATM    1  C   UNL     1       3.307  25.622  47.557  1.00  0.00     0.070 C 
HETATM    2  C   UNL     1       3.982  26.180  48.786  1.00  0.00     0.037 A 
HETATM    3  N   UNL     1       4.015  25.346  49.899  1.00  0.00    -0.192 N 
HETATM    4  C   UNL     1       4.716  25.637  51.012  1.00  0.00     0.726 A 
HETATM    5  N   UNL     1       5.315  26.862  51.128  1.00  0.00    -0.082 N 
HETATM    6  N   UNL     1       6.018  26.958  52.273  1.00  0.00    -0.128 NA
HETATM    7  C   UNL     1       5.774  25.761  52.818  1.00  0.00     0.226 A 
HETATM    8  N   UNL     1       4.976  24.923  52.076  1.00  0.00    -0.035 NA
HETATM    9  C   UNL     1       5.244  27.917  50.105  1.00  0.00     0.204 A 
HETATM   10  C   UNL     1       4.576  27.396  48.841  1.00  0.00     0.070 A 
HETATM   11  H   UNL     1       3.618  24.416  49.801  1.00  0.00     0.184 HD
ENDROOT
BRANCH   7  12
HETATM   12  S   UNL     1       6.432  25.330  54.371  1.00  0.00    -0.083 SA
BRANCH  12  13
HETATM   13  C   UNL     1       8.028  24.645  53.847  1.00  0.00     0.123 C 
BRANCH  13  14
HETATM   14  C   UNL     1       8.102  23.154  54.083  1.00  0.00    -0.027 A 
HETATM   15  C   UNL     1       8.401  22.593  55.335  1.00  0.00     0.041 A 
HETATM   16 CL   UNL     1       8.731  23.571  56.722  1.00  0.00    -0.084 Cl
HETATM   17  C   UNL     1       8.444  21.205  55.500  1.00  0.00     0.024 A 
HETATM   18  C   UNL     1       8.187  20.360  54.421  1.00  0.00     0.002 A 
HETATM   19  C   UNL     1       7.883  20.900  53.175  1.00  0.00     0.001 A 
HETATM   20  C   UNL     1       7.837  22.285  53.007  1.00  0.00     0.009 A 
ENDBRANCH  13  14
ENDBRANCH  12  13
ENDBRANCH   7  12
BRANCH   9  21
HETATM   21  C   UNL     1       4.525  29.140  50.673  1.00  0.00    -0.006 A 
HETATM   22  C   UNL     1       4.975  30.453  50.448  1.00  0.00     0.042 A 
HETATM   23 CL   UNL     1       6.376  30.804  49.499  1.00  0.00    -0.084 Cl
HETATM   24  C   UNL     1       4.284  31.547  50.983  1.00  0.00     0.024 A 
HETATM   25  C   UNL     1       3.135  31.354  51.746  1.00  0.00     0.002 A 
HETATM   26  C   UNL     1       2.667  30.065  51.975  1.00  0.00     0.001 A 
HETATM   27  C   UNL     1       3.352  28.970  51.443  1.00  0.00     0.011 A 
ENDBRANCH   9  21
BRANCH  10  28
HETATM   28  C   UNL     1       4.599  28.291  47.670  1.00  0.00     0.293 C 
HETATM   29  O   UNL     1       5.534  28.390  46.894  1.00  0.00    -0.259 OA
BRANCH  28  30
HETATM   30  O   UNL     1       3.444  28.997  47.639  1.00  0.00    -0.323 OA
HETATM   31  C   UNL     1       3.475  30.129  46.770  1.00  0.00     0.213 C 
ENDBRANCH  28  30
ENDBRANCH  10  28
TORSDOF 6
ENDMDL
MODEL 3
REMARK VINA RESULT:      -8.5      4.019      8.766
REMARK  6 active torsions:
REMARK  status: ('A' for Active; 'I' for Inactive)
REMARK    1  A    between atoms: C_7  and  S_8 
REMARK    2  A    between atoms: S_8  and  C_9 
REMARK    3  A    between atoms: C_9  and  C_10 
REMARK    4  A    between atoms: C_18  and  C_19 
REMARK    5  A    between atoms: C_26  and  C_27 
REMARK    6  A    between atoms: C_27  and  O_28 
ROOT
HETATM    1  C   UNL     1       8.372  22.218  57.661  1.00  0.00     0.070 C 
HETATM    2  C   UNL     1       8.143  23.544  56.978  1.00  0.00     0.037 A 
HETATM    3  N   UNL     1       7.820  24.613  57.807  1.00  0.00    -0.192 N 
HETATM    4  C   UNL     1       7.743  25.884  57.368  1.00  0.00     0.726 A 
HETATM    5  N   UNL     1       7.847  26.139  56.027  1.00  0.00    -0.082 N 
HETATM    6  N   UNL     1       7.807  27.461  55.774  1.00  0.00    -0.128 NA
HETATM    7  C   UNL     1       7.646  27.948  57.010  1.00  0.00     0.226 A 
HETATM    8  N   UNL     1       7.600  27.011  58.014  1.00  0.00    -0.035 NA
HETATM    9  C   UNL     1       8.033  25.102  55.000  1.00  0.00     0.204 A 
HETATM   10  C   UNL     1       8.275  23.745  55.645  1.00  0.00     0.070 A 
HETATM   11  H   UNL     1       7.794  24.440  58.808  1.00  0.00     0.184 HD
ENDROOT
BRANCH   7  12
HETATM   12  S   UNL     1       7.501  29.660  57.289  1.00  0.00    -0.083 SA
BRANCH  12  13
HETATM   13  C   UNL     1       8.356  29.784  58.884  1.00  0.00     0.123 C 
BRANCH  13  14
HETATM   14  C   UNL     1       7.774  30.877  59.749  1.00  0.00    -0.027 A 
HETATM   15  C   UNL     1       8.241  31.157  61.043  1.00  0.00     0.041 A 
HETATM   16 CL   UNL     1       9.523  30.254  61.770  1.00  0.00    -0.084 Cl
HETATM   17  C   UNL     1       7.673  32.191  61.795  1.00  0.00     0.024 A 
HETATM   18  C   UNL     1       6.636  32.958  61.267  1.00  0.00     0.002 A 
HETATM   19  C   UNL     1       6.166  32.697  59.983  1.00  0.00     0.001 A 
HETATM   20  C   UNL     1       6.732  31.668  59.229  1.00  0.00     0.009 A 
ENDBRANCH  13  14
ENDBRANCH  12  13
ENDBRANCH   7  12
BRANCH   9  21
HETATM   21  C   UNL     1       6.829  25.084  54.059  1.00  0.00    -0.006 A 
HETATM   22  C   UNL     1       6.964  25.001  52.662  1.00  0.00     0.042 A 
HETATM   23 CL   UNL     1       8.503  24.899  51.883  1.00  0.00    -0.084 Cl
HETATM   24  C   UNL     1       5.835  24.982  51.834  1.00  0.00     0.024 A 
HETATM   25  C   UNL     1       4.555  25.043  52.382  1.00  0.00     0.002 A 
HETATM   26  C   UNL     1       4.398  25.118  53.761  1.00  0.00     0.001 A 
HETATM   27  C   UNL     1       5.521  25.136  54.591  1.00  0.00     0.011 A 
ENDBRANCH   9  21
BRANCH  10  28
HETATM   28  C   UNL     1       8.657  22.647  54.739  1.00  0.00     0.293 C 
HETATM   29  O   UNL     1       9.799  22.408  54.384  1.00  0.00    -0.259 OA
BRANCH  28  30
HETATM   30  O   UNL     1       7.536  21.997  54.346  1.00  0.00    -0.323 OA
HETATM   31  C   UNL     1       7.733  21.102  53.251  1.00  0.00     0.213 C 
ENDBRANCH  28  30
ENDBRANCH  10  28
TORSDOF 6
ENDMDL
MODEL 4
REMARK VINA RESULT:      -8.4      4.375      6.561
REMARK  6 active torsions:
REMARK  status: ('A' for Active; 'I' for Inactive)
REMARK    1  A    between atoms: C_7  and  S_8 
REMARK    2  A    between atoms: S_8  and  C_9 
REMARK    3  A    between atoms: C_9  and  C_10 
REMARK    4  A    between atoms: C_18  and  C_19 
REMARK    5  A    between atoms: C_26  and  C_27 
REMARK    6  A    between atoms: C_27  and  O_28 
ROOT
HETATM    1  C   UNL     1       6.609  30.811  57.918  1.00  0.00     0.070 C 
HETATM    2  C   UNL     1       6.305  30.002  56.682  1.00  0.00     0.037 A 
HETATM    3  N   UNL     1       5.072  30.238  56.083  1.00  0.00    -0.192 N 
HETATM    4  C   UNL     1       4.723  29.714  54.892  1.00  0.00     0.726 A 
HETATM    5  N   UNL     1       5.546  28.798  54.294  1.00  0.00    -0.082 N 
HETATM    6  N   UNL     1       5.073  28.426  53.089  1.00  0.00    -0.128 NA
HETATM    7  C   UNL     1       3.940  29.137  53.034  1.00  0.00     0.226 A 
HETATM    8  N   UNL     1       3.690  29.937  54.123  1.00  0.00    -0.035 NA
HETATM    9  C   UNL     1       6.812  28.322  54.873  1.00  0.00     0.204 A 
HETATM   10  C   UNL     1       7.164  29.117  56.122  1.00  0.00     0.070 A 
HETATM   11  H   UNL     1       4.480  30.956  56.492  1.00  0.00     0.184 HD
ENDROOT
BRANCH   7  12
HETATM   12  S   UNL     1       2.875  29.024  51.662  1.00  0.00    -0.083 SA
BRANCH  12  13
HETATM   13  C   UNL     1       4.101  28.937  50.329  1.00  0.00     0.123 C 
BRANCH  13  14
HETATM   14  C   UNL     1       3.694  27.955  49.255  1.00  0.00    -0.027 A 
HETATM   15  C   UNL     1       4.071  26.603  49.274  1.00  0.00     0.041 A 
HETATM   16 CL   UNL     1       5.060  25.945  50.529  1.00  0.00    -0.084 Cl
HETATM   17  C   UNL     1       3.653  25.734  48.259  1.00  0.00     0.024 A 
HETATM   18  C   UNL     1       2.854  26.202  47.218  1.00  0.00     0.002 A 
HETATM   19  C   UNL     1       2.465  27.538  47.188  1.00  0.00     0.001 A 
HETATM   20  C   UNL     1       2.878  28.407  48.200  1.00  0.00     0.009 A 
ENDBRANCH  13  14
ENDBRANCH  12  13
ENDBRANCH   7  12
BRANCH   9  21
HETATM   21  C   UNL     1       6.721  26.822  55.153  1.00  0.00    -0.006 A 
HETATM   22  C   UNL     1       7.240  25.857  54.272  1.00  0.00     0.042 A 
HETATM   23 CL   UNL     1       8.036  26.278  52.798  1.00  0.00    -0.084 Cl
HETATM   24  C   UNL     1       7.141  24.492  54.568  1.00  0.00     0.024 A 
HETATM   25  C   UNL     1       6.528  24.066  55.745  1.00  0.00     0.002 A 
HETATM   26  C   UNL     1       6.015  25.004  56.634  1.00  0.00     0.001 A 
HETATM   27  C   UNL     1       6.113  26.366  56.344  1.00  0.00     0.011 A 
ENDBRANCH   9  21
BRANCH  10  28
HETATM   28  C   UNL     1       8.496  28.870  56.703  1.00  0.00     0.293 C 
HETATM   29  O   UNL     1       8.700  28.224  57.716  1.00  0.00    -0.259 OA
BRANCH  28  30
HETATM   30  O   UNL     1       9.424  29.511  55.952  1.00  0.00    -0.323 OA
HETATM   31  C   UNL     1      10.653  29.761  56.633  1.00  0.00     0.213 C 
ENDBRANCH  28  30
ENDBRANCH  10  28
TORSDOF 6
ENDMDL
MODEL 5
REMARK VINA RESULT:      -8.3      3.721      8.191
REMARK  6 active torsions:
REMARK  status: ('A' for Active; 'I' for Inactive)
REMARK    1  A    between atoms: C_7  and  S_8 
REMARK    2  A    between atoms: S_8  and  C_9 
REMARK    3  A    between atoms: C_9  and  C_10 
REMARK    4  A    between atoms: C_18  and  C_19 
REMARK    5  A    between atoms: C_26  and  C_27 
REMARK    6  A    between atoms: C_27  and  O_28 
ROOT
HETATM    1  C   UNL     1       8.447  21.404  57.102  1.00  0.00     0.070 C 
HETATM    2  C   UNL     1       8.260  22.835  56.662  1.00  0.00     0.037 A 
HETATM    3  N   UNL     1       8.028  23.763  57.673  1.00  0.00    -0.192 N 
HETATM    4  C   UNL     1       7.999  25.092  57.456  1.00  0.00     0.726 A 
HETATM    5  N   UNL     1       8.060  25.565  56.173  1.00  0.00    -0.082 N 
HETATM    6  N   UNL     1       8.079  26.911  56.147  1.00  0.00    -0.128 NA
HETATM    7  C   UNL     1       7.995  27.189  57.453  1.00  0.00     0.226 A 
HETATM    8  N   UNL     1       7.942  26.098  58.288  1.00  0.00    -0.035 NA
HETATM    9  C   UNL     1       8.149  24.709  54.980  1.00  0.00     0.204 A 
HETATM   10  C   UNL     1       8.347  23.253  55.376  1.00  0.00     0.070 A 
HETATM   11  H   UNL     1       8.035  23.424  58.631  1.00  0.00     0.184 HD
ENDROOT
BRANCH   7  12
HETATM   12  S   UNL     1       7.952  28.834  58.020  1.00  0.00    -0.083 SA
BRANCH  12  13
HETATM   13  C   UNL     1       7.329  29.656  56.528  1.00  0.00     0.123 C 
BRANCH  13  14
HETATM   14  C   UNL     1       5.842  29.912  56.609  1.00  0.00    -0.027 A 
HETATM   15  C   UNL     1       5.285  30.938  57.389  1.00  0.00     0.041 A 
HETATM   16 CL   UNL     1       6.261  31.992  58.349  1.00  0.00    -0.084 Cl
HETATM   17  C   UNL     1       3.900  31.138  57.415  1.00  0.00     0.024 A 
HETATM   18  C   UNL     1       3.056  30.322  56.664  1.00  0.00     0.002 A 
HETATM   19  C   UNL     1       3.594  29.305  55.880  1.00  0.00     0.001 A 
HETATM   20  C   UNL     1       4.975  29.103  55.849  1.00  0.00     0.009 A 
ENDBRANCH  13  14
ENDBRANCH  12  13
ENDBRANCH   7  12
BRANCH   9  21
HETATM   21  C   UNL     1       6.908  24.904  54.109  1.00  0.00    -0.006 A 
HETATM   22  C   UNL     1       6.972  24.971  52.707  1.00  0.00     0.042 A 
HETATM   23 CL   UNL     1       8.459  24.828  51.838  1.00  0.00    -0.084 Cl
HETATM   24  C   UNL     1       5.810  25.146  51.945  1.00  0.00     0.024 A 
HETATM   25  C   UNL     1       4.568  25.253  52.565  1.00  0.00     0.002 A 
HETATM   26  C   UNL     1       4.479  25.182  53.951  1.00  0.00     0.001 A 
HETATM   27  C   UNL     1       5.635  25.006  54.716  1.00  0.00     0.011 A 
ENDBRANCH   9  21
BRANCH  10  28
HETATM   28  C   UNL     1       8.633  22.308  54.282  1.00  0.00     0.293 C 
HETATM   29  O   UNL     1       9.710  22.206  53.719  1.00  0.00    -0.259 OA
BRANCH  28  30
HETATM   30  O   UNL     1       7.501  21.622  53.992  1.00  0.00    -0.323 OA
HETATM   31  C   UNL     1       7.686  20.562  53.054  1.00  0.00     0.213 C 
ENDBRANCH  28  30
ENDBRANCH  10  28
TORSDOF 6
ENDMDL
MODEL 6
REMARK VINA RESULT:      -8.3      5.386      7.611
REMARK  6 active torsions:
REMARK  status: ('A' for Active; 'I' for Inactive)
REMARK    1  A    between atoms: C_7  and  S_8 
REMARK    2  A    between atoms: S_8  and  C_9 
REMARK    3  A    between atoms: C_9  and  C_10 
REMARK    4  A    between atoms: C_18  and  C_19 
REMARK    5  A    between atoms: C_26  and  C_27 
REMARK    6  A    between atoms: C_27  and  O_28 
ROOT
HETATM    1  C   UNL     1       8.309  23.585  52.356  1.00  0.00     0.070 C 
HETATM    2  C   UNL     1       7.378  24.698  52.770  1.00  0.00     0.037 A 
HETATM    3  N   UNL     1       6.923  25.528  51.751  1.00  0.00    -0.192 N 
HETATM    4  C   UNL     1       5.968  26.460  51.936  1.00  0.00     0.726 A 
HETATM    5  N   UNL     1       5.514  26.714  53.202  1.00  0.00    -0.082 N 
HETATM    6  N   UNL     1       4.525  27.628  53.194  1.00  0.00    -0.128 NA
HETATM    7  C   UNL     1       4.453  27.909  51.888  1.00  0.00     0.226 A 
HETATM    8  N   UNL     1       5.325  27.214  51.084  1.00  0.00    -0.035 NA
HETATM    9  C   UNL     1       6.007  26.033  54.409  1.00  0.00     0.204 A 
HETATM   10  C   UNL     1       6.946  24.894  54.039  1.00  0.00     0.070 A 
HETATM   11  H   UNL     1       7.215  25.310  50.802  1.00  0.00     0.184 HD
ENDROOT
BRANCH   7  12
HETATM   12  S   UNL     1       3.324  29.087  51.283  1.00  0.00    -0.083 SA
BRANCH  12  13
HETATM   13  C   UNL     1       3.864  29.170  49.554  1.00  0.00     0.123 C 
BRANCH  13  14
HETATM   14  C   UNL     1       3.056  28.250  48.670  1.00  0.00    -0.027 A 
HETATM   15  C   UNL     1       3.641  27.388  47.727  1.00  0.00     0.041 A 
HETATM   16 CL   UNL     1       5.351  27.323  47.483  1.00  0.00    -0.084 Cl
HETATM   17  C   UNL     1       2.845  26.547  46.943  1.00  0.00     0.024 A 
HETATM   18  C   UNL     1       1.459  26.551  47.090  1.00  0.00     0.002 A 
HETATM   19  C   UNL     1       0.864  27.393  48.025  1.00  0.00     0.001 A 
HETATM   20  C   UNL     1       1.656  28.233  48.811  1.00  0.00     0.009 A 
ENDBRANCH  13  14
ENDBRANCH  12  13
ENDBRANCH   7  12
BRANCH   9  21
HETATM   21  C   UNL     1       6.672  27.047  55.340  1.00  0.00    -0.006 A 
HETATM   22  C   UNL     1       6.341  27.151  56.703  1.00  0.00     0.042 A 
HETATM   23 CL   UNL     1       5.162  26.135  57.452  1.00  0.00    -0.084 Cl
HETATM   24  C   UNL     1       6.978  28.091  57.523  1.00  0.00     0.024 A 
HETATM   25  C   UNL     1       7.953  28.938  57.003  1.00  0.00     0.002 A 
HETATM   26  C   UNL     1       8.301  28.848  55.659  1.00  0.00     0.001 A 
HETATM   27  C   UNL     1       7.671  27.911  54.837  1.00  0.00     0.011 A 
ENDBRANCH   9  21
BRANCH  10  28
HETATM   28  C   UNL     1       7.373  24.012  55.139  1.00  0.00     0.293 C 
HETATM   29  O   UNL     1       6.750  23.039  55.527  1.00  0.00    -0.259 OA
BRANCH  28  30
HETATM   30  O   UNL     1       8.529  24.490  55.657  1.00  0.00    -0.323 OA
HETATM   31  C   UNL     1       8.657  24.308  57.067  1.00  0.00     0.213 C 
ENDBRANCH  28  30
ENDBRANCH  10  28
TORSDOF 6
ENDMDL
MODEL 7
REMARK VINA RESULT:      -8.0      5.878      7.680
REMARK  6 active torsions:
REMARK  status: ('A' for Active; 'I' for Inactive)
REMARK    1  A    between atoms: C_7  and  S_8 
REMARK    2  A    between atoms: S_8  and  C_9 
REMARK    3  A    between atoms: C_9  and  C_10 
REMARK    4  A    between atoms: C_18  and  C_19 
REMARK    5  A    between atoms: C_26  and  C_27 
REMARK    6  A    between atoms: C_27  and  O_28 
ROOT
HETATM    1  C   UNL     1       5.943  32.024  49.453  1.00  0.00     0.070 C 
HETATM    2  C   UNL     1       5.356  30.755  50.020  1.00  0.00     0.037 A 
HETATM    3  N   UNL     1       6.090  30.136  51.027  1.00  0.00    -0.192 N 
HETATM    4  C   UNL     1       5.623  29.092  51.739  1.00  0.00     0.726 A 
HETATM    5  N   UNL     1       4.438  28.510  51.378  1.00  0.00    -0.082 N 
HETATM    6  N   UNL     1       4.097  27.523  52.229  1.00  0.00    -0.128 NA
HETATM    7  C   UNL     1       5.141  27.542  53.066  1.00  0.00     0.226 A 
HETATM    8  N   UNL     1       6.099  28.489  52.796  1.00  0.00    -0.035 NA
HETATM    9  C   UNL     1       3.616  28.945  50.238  1.00  0.00     0.204 A 
HETATM   10  C   UNL     1       4.168  30.230  49.637  1.00  0.00     0.070 A 
HETATM   11  H   UNL     1       6.943  30.594  51.335  1.00  0.00     0.184 HD
ENDROOT
BRANCH   7  12
HETATM   12  S   UNL     1       5.248  26.421  54.394  1.00  0.00    -0.083 SA
BRANCH  12  13
HETATM   13  C   UNL     1       7.050  26.282  54.532  1.00  0.00     0.123 C 
BRANCH  13  14
HETATM   14  C   UNL     1       7.510  24.845  54.451  1.00  0.00    -0.027 A 
HETATM   15  C   UNL     1       7.784  24.198  53.235  1.00  0.00     0.041 A 
HETATM   16 CL   UNL     1       7.597  24.993  51.712  1.00  0.00    -0.084 Cl
HETATM   17  C   UNL     1       8.219  22.869  53.220  1.00  0.00     0.024 A 
HETATM   18  C   UNL     1       8.390  22.170  54.414  1.00  0.00     0.002 A 
HETATM   19  C   UNL     1       8.130  22.800  55.628  1.00  0.00     0.001 A 
HETATM   20  C   UNL     1       7.697  24.127  55.648  1.00  0.00     0.009 A 
ENDBRANCH  13  14
ENDBRANCH  12  13
ENDBRANCH   7  12
BRANCH   9  21
HETATM   21  C   UNL     1       3.526  27.821  49.206  1.00  0.00    -0.006 A 
HETATM   22  C   UNL     1       2.327  27.494  48.548  1.00  0.00     0.042 A 
HETATM   23 CL   UNL     1       0.850  28.342  48.837  1.00  0.00    -0.084 Cl
HETATM   24  C   UNL     1       2.288  26.460  47.606  1.00  0.00     0.024 A 
HETATM   25  C   UNL     1       3.439  25.736  47.301  1.00  0.00     0.002 A 
HETATM   26  C   UNL     1       4.637  26.047  47.934  1.00  0.00     0.001 A 
HETATM   27  C   UNL     1       4.682  27.079  48.874  1.00  0.00     0.011 A 
ENDBRANCH   9  21
BRANCH  10  28
HETATM   28  C   UNL     1       3.342  30.878  48.603  1.00  0.00     0.293 C 
HETATM   29  O   UNL     1       2.353  31.553  48.830  1.00  0.00    -0.259 OA
BRANCH  28  30
HETATM   30  O   UNL     1       3.840  30.558  47.385  1.00  0.00    -0.323 OA
HETATM   31  C   UNL     1       2.852  30.452  46.360  1.00  0.00     0.213 C 
ENDBRANCH  28  30
ENDBRANCH  10  28
TORSDOF 6
ENDMDL
MODEL 8
REMARK VINA RESULT:      -7.8      3.630      4.954
REMARK  6 active torsions:
REMARK  status: ('A' for Active; 'I' for Inactive)
REMARK    1  A    between atoms: C_7  and  S_8 
REMARK    2  A    between atoms: S_8  and  C_9 
REMARK    3  A    between atoms: C_9  and  C_10 
REMARK    4  A    between atoms: C_18  and  C_19 
REMARK    5  A    between atoms: C_26  and  C_27 
REMARK    6  A    between atoms: C_27  and  O_28 
ROOT
HETATM    1  C   UNL     1       5.185  31.454  55.895  1.00  0.00     0.070 C 
HETATM    2  C   UNL     1       4.960  30.348  54.894  1.00  0.00     0.037 A 
HETATM    3  N   UNL     1       5.776  29.229  55.021  1.00  0.00    -0.192 N 
HETATM    4  C   UNL     1       5.591  28.101  54.309  1.00  0.00     0.726 A 
HETATM    5  N   UNL     1       4.653  28.084  53.312  1.00  0.00    -0.082 N 
HETATM    6  N   UNL     1       4.562  26.865  52.746  1.00  0.00    -0.128 NA
HETATM    7  C   UNL     1       5.498  26.199  53.431  1.00  0.00     0.226 A 
HETATM    8  N   UNL     1       6.153  26.925  54.397  1.00  0.00    -0.035 NA
HETATM    9  C   UNL     1       3.815  29.235  52.944  1.00  0.00     0.204 A 
HETATM   10  C   UNL     1       4.004  30.375  53.935  1.00  0.00     0.070 A 
HETATM   11  H   UNL     1       6.437  29.215  55.794  1.00  0.00     0.184 HD
ENDROOT
BRANCH   7  12
HETATM   12  S   UNL     1       5.843  24.528  53.090  1.00  0.00    -0.083 SA
BRANCH  12  13
HETATM   13  C   UNL     1       7.424  24.357  53.961  1.00  0.00     0.123 C 
BRANCH  13  14
HETATM   14  C   UNL     1       7.814  22.908  54.136  1.00  0.00    -0.027 A 
HETATM   15  C   UNL     1       8.136  22.348  55.383  1.00  0.00     0.041 A 
HETATM   16 CL   UNL     1       8.131  23.284  56.836  1.00  0.00    -0.084 Cl
HETATM   17  C   UNL     1       8.478  20.996  55.488  1.00  0.00     0.024 A 
HETATM   18  C   UNL     1       8.501  20.185  54.355  1.00  0.00     0.002 A 
HETATM   19  C   UNL     1       8.178  20.723  53.112  1.00  0.00     0.001 A 
HETATM   20  C   UNL     1       7.834  22.071  53.003  1.00  0.00     0.009 A 
ENDBRANCH  13  14
ENDBRANCH  12  13
ENDBRANCH   7  12
BRANCH   9  21
HETATM   21  C   UNL     1       4.123  29.663  51.510  1.00  0.00    -0.006 A 
HETATM   22  C   UNL     1       3.159  29.628  50.487  1.00  0.00     0.042 A 
HETATM   23 CL   UNL     1       1.534  29.110  50.762  1.00  0.00    -0.084 Cl
HETATM   24  C   UNL     1       3.481  30.034  49.187  1.00  0.00     0.024 A 
HETATM   25  C   UNL     1       4.764  30.482  48.883  1.00  0.00     0.002 A 
HETATM   26  C   UNL     1       5.732  30.532  49.880  1.00  0.00     0.001 A 
HETATM   27  C   UNL     1       5.416  30.130  51.180  1.00  0.00     0.011 A 
ENDBRANCH   9  21
BRANCH  10  28
HETATM   28  C   UNL     1       3.092  31.525  53.794  1.00  0.00     0.293 C 
HETATM   29  O   UNL     1       3.112  32.313  52.864  1.00  0.00    -0.259 OA
BRANCH  28  30
HETATM   30  O   UNL     1       2.280  31.572  54.876  1.00  0.00    -0.323 OA
HETATM   31  C   UNL     1       1.445  32.728  54.930  1.00  0.00     0.213 C 
ENDBRANCH  28  30
ENDBRANCH  10  28
TORSDOF 6
ENDMDL
MODEL 9
REMARK VINA RESULT:      -7.6      5.638      8.265
REMARK  6 active torsions:
REMARK  status: ('A' for Active; 'I' for Inactive)
REMARK    1  A    between atoms: C_7  and  S_8 
REMARK    2  A    between atoms: S_8  and  C_9 
REMARK    3  A    between atoms: C_9  and  C_10 
REMARK    4  A    between atoms: C_18  and  C_19 
REMARK    5  A    between atoms: C_26  and  C_27 
REMARK    6  A    between atoms: C_27  and  O_28 
ROOT
HETATM    1  C   UNL     1       8.291  23.221  52.712  1.00  0.00     0.070 C 
HETATM    2  C   UNL     1       7.414  24.437  52.880  1.00  0.00     0.037 A 
HETATM    3  N   UNL     1       7.048  25.096  51.711  1.00  0.00    -0.192 N 
HETATM    4  C   UNL     1       6.145  26.096  51.685  1.00  0.00     0.726 A 
HETATM    5  N   UNL     1       5.660  26.594  52.864  1.00  0.00    -0.082 N 
HETATM    6  N   UNL     1       4.730  27.543  52.649  1.00  0.00    -0.128 NA
HETATM    7  C   UNL     1       4.724  27.591  51.312  1.00  0.00     0.226 A 
HETATM    8  N   UNL     1       5.581  26.719  50.684  1.00  0.00    -0.035 NA
HETATM    9  C   UNL     1       6.065  26.113  54.193  1.00  0.00     0.204 A 
HETATM   10  C   UNL     1       6.947  24.878  54.073  1.00  0.00     0.070 A 
HETATM   11  H   UNL     1       7.362  24.698  50.830  1.00  0.00     0.184 HD
ENDROOT
BRANCH   7  12
HETATM   12  S   UNL     1       3.691  28.702  50.457  1.00  0.00    -0.083 SA
BRANCH  12  13
HETATM   13  C   UNL     1       3.866  28.049  48.774  1.00  0.00     0.123 C 
BRANCH  13  14
HETATM   14  C   UNL     1       3.554  29.097  47.731  1.00  0.00    -0.027 A 
HETATM   15  C   UNL     1       2.267  29.290  47.204  1.00  0.00     0.041 A 
HETATM   16 CL   UNL     1       0.922  28.322  47.694  1.00  0.00    -0.084 Cl
HETATM   17  C   UNL     1       2.033  30.285  46.248  1.00  0.00     0.024 A 
HETATM   18  C   UNL     1       3.075  31.100  45.811  1.00  0.00     0.002 A 
HETATM   19  C   UNL     1       4.355  30.926  46.329  1.00  0.00     0.001 A 
HETATM   20  C   UNL     1       4.592  29.936  47.284  1.00  0.00     0.009 A 
ENDBRANCH  13  14
ENDBRANCH  12  13
ENDBRANCH   7  12
BRANCH   9  21
HETATM   21  C   UNL     1       6.755  27.239  54.963  1.00  0.00    -0.006 A 
HETATM   22  C   UNL     1       6.331  27.653  56.237  1.00  0.00     0.042 A 
HETATM   23 CL   UNL     1       4.998  26.919  57.056  1.00  0.00    -0.084 Cl
HETATM   24  C   UNL     1       6.994  28.687  56.911  1.00  0.00     0.024 A 
HETATM   25  C   UNL     1       8.089  29.321  56.330  1.00  0.00     0.002 A 
HETATM   26  C   UNL     1       8.531  28.923  55.073  1.00  0.00     0.001 A 
HETATM   27  C   UNL     1       7.874  27.892  54.397  1.00  0.00     0.011 A 
ENDBRANCH   9  21
BRANCH  10  28
HETATM   28  C   UNL     1       7.278  24.184  55.330  1.00  0.00     0.293 C 
HETATM   29  O   UNL     1       6.558  23.369  55.881  1.00  0.00    -0.259 OA
BRANCH  28  30
HETATM   30  O   UNL     1       8.476  24.635  55.774  1.00  0.00    -0.323 OA
HETATM   31  C   UNL     1       8.548  24.802  57.190  1.00  0.00     0.213 C 
ENDBRANCH  28  30
ENDBRANCH  10  28
TORSDOF 6
ENDMDL
MODEL 10
REMARK VINA RESULT:      -7.1      4.253      8.129
REMARK  6 active torsions:
REMARK  status: ('A' for Active; 'I' for Inactive)
REMARK    1  A    between atoms: C_7  and  S_8 
REMARK    2  A    between atoms: S_8  and  C_9 
REMARK    3  A    between atoms: C_9  and  C_10 
REMARK    4  A    between atoms: C_18  and  C_19 
REMARK    5  A    between atoms: C_26  and  C_27 
REMARK    6  A    between atoms: C_27  and  O_28 
ROOT
HETATM    1  C   UNL     1       7.995  23.251  52.679  1.00  0.00     0.070 C 
HETATM    2  C   UNL     1       7.188  24.520  52.807  1.00  0.00     0.037 A 
HETATM    3  N   UNL     1       6.869  25.167  51.618  1.00  0.00    -0.192 N 
HETATM    4  C   UNL     1       6.026  26.216  51.557  1.00  0.00     0.726 A 
HETATM    5  N   UNL     1       5.561  26.772  52.718  1.00  0.00    -0.082 N 
HETATM    6  N   UNL     1       4.689  27.767  52.470  1.00  0.00    -0.128 NA
HETATM    7  C   UNL     1       4.695  27.780  51.132  1.00  0.00     0.226 A 
HETATM    8  N   UNL     1       5.506  26.844  50.535  1.00  0.00    -0.035 NA
HETATM    9  C   UNL     1       5.928  26.305  54.063  1.00  0.00     0.204 A 
HETATM   10  C   UNL     1       6.738  25.019  53.983  1.00  0.00     0.070 A 
HETATM   11  H   UNL     1       7.166  24.728  50.750  1.00  0.00     0.184 HD
ENDROOT
BRANCH   7  12
HETATM   12  S   UNL     1       3.735  28.924  50.239  1.00  0.00    -0.083 SA
BRANCH  12  13
HETATM   13  C   UNL     1       2.798  29.667  51.603  1.00  0.00     0.123 C 
BRANCH  13  14
HETATM   14  C   UNL     1       3.310  31.045  51.950  1.00  0.00    -0.027 A 
HETATM   15  C   UNL     1       3.706  31.408  53.248  1.00  0.00     0.041 A 
HETATM   16 CL   UNL     1       3.621  30.303  54.574  1.00  0.00    -0.084 Cl
HETATM   17  C   UNL     1       4.186  32.696  53.510  1.00  0.00     0.024 A 
HETATM   18  C   UNL     1       4.280  33.635  52.485  1.00  0.00     0.002 A 
HETATM   19  C   UNL     1       3.898  33.289  51.192  1.00  0.00     0.001 A 
HETATM   20  C   UNL     1       3.421  32.004  50.925  1.00  0.00     0.009 A 
ENDBRANCH  13  14
ENDBRANCH  12  13
ENDBRANCH   7  12
BRANCH   9  21
HETATM   21  C   UNL     1       6.676  27.409  54.809  1.00  0.00    -0.006 A 
HETATM   22  C   UNL     1       6.203  27.962  56.012  1.00  0.00     0.042 A 
HETATM   23 CL   UNL     1       4.739  27.435  56.763  1.00  0.00    -0.084 Cl
HETATM   24  C   UNL     1       6.921  28.970  56.667  1.00  0.00     0.024 A 
HETATM   25  C   UNL     1       8.120  29.442  56.138  1.00  0.00     0.002 A 
HETATM   26  C   UNL     1       8.611  28.904  54.953  1.00  0.00     0.001 A 
HETATM   27  C   UNL     1       7.899  27.898  54.297  1.00  0.00     0.011 A 
ENDBRANCH   9  21
BRANCH  10  28
HETATM   28  C   UNL     1       7.020  24.340  55.261  1.00  0.00     0.293 C 
HETATM   29  O   UNL     1       6.169  23.867  55.995  1.00  0.00    -0.259 OA
BRANCH  28  30
HETATM   30  O   UNL     1       8.355  24.375  55.487  1.00  0.00    -0.323 OA
HETATM   31  C   UNL     1       8.816  23.386  56.408  1.00  0.00     0.213 C 
ENDBRANCH  28  30
ENDBRANCH  10  28
TORSDOF 6
ENDMDL
