MODEL 1
REMARK VINA RESULT:      -9.5      0.000      0.000
REMARK  4 active torsions:
REMARK  status: ('A' for Active; 'I' for Inactive)
REMARK    1  A    between atoms: C_9  and  C_10 
REMARK       I    between atoms: C_10  and  N_11 
REMARK    2  A    between atoms: N_11  and  C_12 
REMARK    3  A    between atoms: C_15  and  N_16 
REMARK       I    between atoms: N_16  and  C_17 
REMARK       I    between atoms: C_17  and  N_18 
REMARK    4  A    between atoms: N_18  and  C_19 
ROOT
HETATM    1  C   UNL     1       4.990  26.955  51.103  1.00  0.00     0.035 A 
HETATM    2  C   UNL     1       4.312  28.170  51.013  1.00  0.00     0.032 A 
HETATM    3  C   UNL     1       3.596  28.503  49.856  1.00  0.00     0.032 A 
HETATM    4  C   UNL     1       3.546  27.629  48.772  1.00  0.00     0.036 A 
HETATM    5  C   UNL     1       4.286  26.443  48.833  1.00  0.00     0.032 A 
HETATM    6  C   UNL     1       4.996  26.106  49.992  1.00  0.00     0.032 A 
ENDROOT
BRANCH   1   7
HETATM    7  N   UNL     1       5.625  26.499  52.269  1.00  0.00    -0.322 N 
HETATM    8  C   UNL     1       5.296  25.401  53.044  1.00  0.00     0.277 C 
HETATM    9  O   UNL     1       4.276  24.727  52.954  1.00  0.00    -0.266 OA
HETATM   10  H   UNL     1       6.505  26.931  52.540  1.00  0.00     0.169 HD
BRANCH   8  11
HETATM   11  C   UNL     1       6.361  25.079  54.013  1.00  0.00     0.157 A 
HETATM   12  C   UNL     1       7.177  23.910  54.035  1.00  0.00     0.029 A 
HETATM   13  C   UNL     1       7.278  22.729  53.273  1.00  0.00     0.023 A 
HETATM   14  C   UNL     1       8.067  24.110  55.083  1.00  0.00     0.063 A 
HETATM   15  C   UNL     1       8.268  21.784  53.586  1.00  0.00    -0.061 A 
HETATM   16  C   UNL     1       8.403  20.528  52.776  1.00  0.00     0.048 C 
HETATM   17  C   UNL     1       9.150  22.027  54.648  1.00  0.00     0.009 A 
HETATM   18  C   UNL     1       9.065  23.193  55.421  1.00  0.00     0.032 A 
HETATM   19  N   UNL     1       7.729  25.322  55.616  1.00  0.00    -0.277 N 
HETATM   20  H   UNL     1       8.169  25.788  56.401  1.00  0.00     0.189 HD
HETATM   21  N   UNL     1       6.711  25.945  54.992  1.00  0.00    -0.168 NA
ENDBRANCH   8  11
ENDBRANCH   1   7
BRANCH   4  22
HETATM   22  N   UNL     1       2.777  27.864  47.614  1.00  0.00    -0.309 N 
HETATM   23  C   UNL     1       1.445  27.538  47.433  1.00  0.00     0.321 C 
HETATM   24  N   UNL     1       1.021  27.896  46.161  1.00  0.00    -0.338 N 
HETATM   25  O   UNL     1       0.717  26.970  48.237  1.00  0.00    -0.247 OA
HETATM   26  H   UNL     1       1.505  28.670  45.730  1.00  0.00     0.164 HD
HETATM   27  H   UNL     1       3.290  28.059  46.767  1.00  0.00     0.170 HD
BRANCH  24  28
HETATM   28  C   UNL     1      -0.296  27.596  45.685  1.00  0.00     0.086 A 
HETATM   29  C   UNL     1      -1.451  28.517  45.965  1.00  0.00     0.027 A 
HETATM   30  C   UNL     1      -0.895  28.416  44.575  1.00  0.00     0.027 A 
ENDBRANCH  24  28
ENDBRANCH   4  22
TORSDOF 4
ENDMDL
MODEL 2
REMARK VINA RESULT:      -9.2      7.013     10.777
REMARK  4 active torsions:
REMARK  status: ('A' for Active; 'I' for Inactive)
REMARK    1  A    between atoms: C_9  and  C_10 
REMARK       I    between atoms: C_10  and  N_11 
REMARK    2  A    between atoms: N_11  and  C_12 
REMARK    3  A    between atoms: C_15  and  N_16 
REMARK       I    between atoms: N_16  and  C_17 
REMARK       I    between atoms: C_17  and  N_18 
REMARK    4  A    between atoms: N_18  and  C_19 
ROOT
HETATM    1  C   UNL     1       7.871  29.278  57.183  1.00  0.00     0.035 A 
HETATM    2  C   UNL     1       8.867  29.635  58.091  1.00  0.00     0.032 A 
HETATM    3  C   UNL     1       8.628  30.614  59.064  1.00  0.00     0.032 A 
HETATM    4  C   UNL     1       7.390  31.252  59.144  1.00  0.00     0.036 A 
HETATM    5  C   UNL     1       6.416  30.946  58.189  1.00  0.00     0.032 A 
HETATM    6  C   UNL     1       6.652  29.962  57.221  1.00  0.00     0.032 A 
ENDROOT
BRANCH   1   7
HETATM    7  N   UNL     1       7.994  28.224  56.263  1.00  0.00    -0.322 N 
HETATM    8  C   UNL     1       7.402  26.976  56.314  1.00  0.00     0.277 C 
HETATM    9  O   UNL     1       6.802  26.494  57.268  1.00  0.00    -0.266 OA
HETATM   10  H   UNL     1       8.470  28.406  55.383  1.00  0.00     0.169 HD
BRANCH   8  11
HETATM   11  C   UNL     1       7.535  26.256  55.033  1.00  0.00     0.157 A 
HETATM   12  C   UNL     1       7.644  24.847  54.846  1.00  0.00     0.029 A 
HETATM   13  C   UNL     1       7.695  23.714  55.682  1.00  0.00     0.023 A 
HETATM   14  C   UNL     1       7.670  24.665  53.469  1.00  0.00     0.063 A 
HETATM   15  C   UNL     1       7.772  22.433  55.112  1.00  0.00    -0.061 A 
HETATM   16  C   UNL     1       7.810  21.214  55.985  1.00  0.00     0.048 C 
HETATM   17  C   UNL     1       7.790  22.294  53.718  1.00  0.00     0.009 A 
HETATM   18  C   UNL     1       7.743  23.407  52.867  1.00  0.00     0.032 A 
HETATM   19  N   UNL     1       7.601  25.923  52.938  1.00  0.00    -0.277 N 
HETATM   20  H   UNL     1       7.598  26.172  51.957  1.00  0.00     0.189 HD
HETATM   21  N   UNL     1       7.507  26.911  53.849  1.00  0.00    -0.168 NA
ENDBRANCH   8  11
ENDBRANCH   1   7
BRANCH   4  22
HETATM   22  N   UNL     1       7.056  32.182  60.149  1.00  0.00    -0.309 N 
HETATM   23  C   UNL     1       7.058  31.954  61.513  1.00  0.00     0.321 C 
HETATM   24  N   UNL     1       6.652  33.089  62.201  1.00  0.00    -0.338 N 
HETATM   25  O   UNL     1       7.328  30.900  62.076  1.00  0.00    -0.247 OA
HETATM   26  H   UNL     1       6.831  33.973  61.749  1.00  0.00     0.164 HD
HETATM   27  H   UNL     1       6.542  32.998  59.852  1.00  0.00     0.170 HD
BRANCH  24  28
HETATM   28  C   UNL     1       6.488  33.098  63.624  1.00  0.00     0.086 A 
HETATM   29  C   UNL     1       7.633  33.442  64.535  1.00  0.00     0.027 A 
HETATM   30  C   UNL     1       6.495  34.406  64.369  1.00  0.00     0.027 A 
ENDBRANCH  24  28
ENDBRANCH   4  22
TORSDOF 4
ENDMDL
MODEL 3
REMARK VINA RESULT:      -8.5      2.122      2.694
REMARK  4 active torsions:
REMARK  status: ('A' for Active; 'I' for Inactive)
REMARK    1  A    between atoms: C_9  and  C_10 
REMARK       I    between atoms: C_10  and  N_11 
REMARK    2  A    between atoms: N_11  and  C_12 
REMARK    3  A    between atoms: C_15  and  N_16 
REMARK       I    between atoms: N_16  and  C_17 
REMARK       I    between atoms: C_17  and  N_18 
REMARK    4  A    between atoms: N_18  and  C_19 
ROOT
HETATM    1  C   UNL     1       5.662  26.067  52.765  1.00  0.00     0.035 A 
HETATM    2  C   UNL     1       5.818  25.996  51.382  1.00  0.00     0.032 A 
HETATM    3  C   UNL     1       5.165  26.907  50.543  1.00  0.00     0.032 A 
HETATM    4  C   UNL     1       4.345  27.903  51.072  1.00  0.00     0.036 A 
HETATM    5  C   UNL     1       4.131  27.930  52.454  1.00  0.00     0.032 A 
HETATM    6  C   UNL     1       4.790  27.023  53.294  1.00  0.00     0.032 A 
ENDROOT
BRANCH   1   7
HETATM    7  N   UNL     1       6.377  25.271  53.675  1.00  0.00    -0.322 N 
HETATM    8  C   UNL     1       7.223  25.685  54.688  1.00  0.00     0.277 C 
HETATM    9  O   UNL     1       7.645  26.823  54.863  1.00  0.00    -0.266 OA
HETATM   10  H   UNL     1       6.183  24.273  53.699  1.00  0.00     0.169 HD
BRANCH   8  11
HETATM   11  C   UNL     1       7.556  24.580  55.607  1.00  0.00     0.157 A 
HETATM   12  C   UNL     1       7.845  23.229  55.256  1.00  0.00     0.029 A 
HETATM   13  C   UNL     1       7.898  22.479  54.065  1.00  0.00     0.023 A 
HETATM   14  C   UNL     1       8.164  22.605  56.456  1.00  0.00     0.063 A 
HETATM   15  C   UNL     1       8.270  21.126  54.112  1.00  0.00    -0.061 A 
HETATM   16  C   UNL     1       8.349  20.316  52.852  1.00  0.00     0.048 C 
HETATM   17  C   UNL     1       8.589  20.536  55.342  1.00  0.00     0.009 A 
HETATM   18  C   UNL     1       8.540  21.261  56.540  1.00  0.00     0.032 A 
HETATM   19  N   UNL     1       8.030  23.571  57.412  1.00  0.00    -0.277 N 
HETATM   20  H   UNL     1       8.183  23.471  58.409  1.00  0.00     0.189 HD
HETATM   21  N   UNL     1       7.674  24.781  56.940  1.00  0.00    -0.168 NA
ENDBRANCH   8  11
ENDBRANCH   1   7
BRANCH   4  22
HETATM   22  N   UNL     1       3.727  28.901  50.292  1.00  0.00    -0.309 N 
HETATM   23  C   UNL     1       2.801  28.701  49.285  1.00  0.00     0.321 C 
HETATM   24  N   UNL     1       2.424  29.909  48.717  1.00  0.00    -0.338 N 
HETATM   25  O   UNL     1       2.381  27.622  48.884  1.00  0.00    -0.247 OA
HETATM   26  H   UNL     1       2.481  30.720  49.314  1.00  0.00     0.164 HD
HETATM   27  H   UNL     1       4.167  29.809  50.295  1.00  0.00     0.170 HD
BRANCH  24  28
HETATM   28  C   UNL     1       1.536  29.978  47.595  1.00  0.00     0.086 A 
HETATM   29  C   UNL     1       0.938  31.287  47.159  1.00  0.00     0.027 A 
HETATM   30  C   UNL     1       1.994  30.631  46.318  1.00  0.00     0.027 A 
ENDBRANCH  24  28
ENDBRANCH   4  22
TORSDOF 4
ENDMDL
MODEL 4
REMARK VINA RESULT:      -8.5      6.774     10.386
REMARK  4 active torsions:
REMARK  status: ('A' for Active; 'I' for Inactive)
REMARK    1  A    between atoms: C_9  and  C_10 
REMARK       I    between atoms: C_10  and  N_11 
REMARK    2  A    between atoms: N_11  and  C_12 
REMARK    3  A    between atoms: C_15  and  N_16 
REMARK       I    between atoms: N_16  and  C_17 
REMARK       I    between atoms: C_17  and  N_18 
REMARK    4  A    between atoms: N_18  and  C_19 
ROOT
HETATM    1  C   UNL     1       6.482  28.250  57.273  1.00  0.00     0.035 A 
HETATM    2  C   UNL     1       7.759  27.799  56.944  1.00  0.00     0.032 A 
HETATM    3  C   UNL     1       7.930  26.647  56.167  1.00  0.00     0.032 A 
HETATM    4  C   UNL     1       6.828  25.927  55.706  1.00  0.00     0.036 A 
HETATM    5  C   UNL     1       5.549  26.339  56.096  1.00  0.00     0.032 A 
HETATM    6  C   UNL     1       5.378  27.495  56.867  1.00  0.00     0.032 A 
ENDROOT
BRANCH   1   7
HETATM    7  N   UNL     1       6.228  29.459  57.941  1.00  0.00    -0.322 N 
HETATM    8  C   UNL     1       5.799  30.658  57.401  1.00  0.00     0.277 C 
HETATM    9  O   UNL     1       5.734  30.936  56.209  1.00  0.00    -0.266 OA
HETATM   10  H   UNL     1       6.235  29.458  58.958  1.00  0.00     0.169 HD
BRANCH   8  11
HETATM   11  C   UNL     1       5.369  31.605  58.447  1.00  0.00     0.157 A 
HETATM   12  C   UNL     1       6.113  32.018  59.590  1.00  0.00     0.029 A 
HETATM   13  C   UNL     1       7.374  31.718  60.143  1.00  0.00     0.023 A 
HETATM   14  C   UNL     1       5.314  32.964  60.220  1.00  0.00     0.063 A 
HETATM   15  C   UNL     1       7.795  32.377  61.309  1.00  0.00    -0.061 A 
HETATM   16  C   UNL     1       9.143  32.084  61.901  1.00  0.00     0.048 C 
HETATM   17  C   UNL     1       6.961  33.329  61.909  1.00  0.00     0.009 A 
HETATM   18  C   UNL     1       5.701  33.640  61.380  1.00  0.00     0.032 A 
HETATM   19  N   UNL     1       4.179  33.040  59.461  1.00  0.00    -0.277 N 
HETATM   20  H   UNL     1       3.374  33.631  59.624  1.00  0.00     0.189 HD
HETATM   21  N   UNL     1       4.178  32.243  58.375  1.00  0.00    -0.168 NA
ENDBRANCH   8  11
ENDBRANCH   1   7
BRANCH   4  22
HETATM   22  N   UNL     1       6.927  24.811  54.851  1.00  0.00    -0.309 N 
HETATM   23  C   UNL     1       7.828  23.767  54.964  1.00  0.00     0.321 C 
HETATM   24  N   UNL     1       7.652  22.854  53.935  1.00  0.00    -0.338 N 
HETATM   25  O   UNL     1       8.707  23.651  55.809  1.00  0.00    -0.247 OA
HETATM   26  H   UNL     1       6.723  22.793  53.546  1.00  0.00     0.164 HD
HETATM   27  H   UNL     1       6.476  24.892  53.952  1.00  0.00     0.170 HD
BRANCH  24  28
HETATM   28  C   UNL     1       8.512  21.720  53.769  1.00  0.00     0.086 A 
HETATM   29  C   UNL     1       8.189  20.401  54.415  1.00  0.00     0.027 A 
HETATM   30  C   UNL     1       8.059  20.556  52.928  1.00  0.00     0.027 A 
ENDBRANCH  24  28
ENDBRANCH   4  22
TORSDOF 4
ENDMDL
MODEL 5
REMARK VINA RESULT:      -8.4      8.247     10.652
REMARK  4 active torsions:
REMARK  status: ('A' for Active; 'I' for Inactive)
REMARK    1  A    between atoms: C_9  and  C_10 
REMARK       I    between atoms: C_10  and  N_11 
REMARK    2  A    between atoms: N_11  and  C_12 
REMARK    3  A    between atoms: C_15  and  N_16 
REMARK       I    between atoms: N_16  and  C_17 
REMARK       I    between atoms: C_17  and  N_18 
REMARK    4  A    between atoms: N_18  and  C_19 
ROOT
HETATM    1  C   UNL     1       7.566  29.894  58.446  1.00  0.00     0.035 A 
HETATM    2  C   UNL     1       8.608  29.255  57.775  1.00  0.00     0.032 A 
HETATM    3  C   UNL     1       8.427  28.769  56.474  1.00  0.00     0.032 A 
HETATM    4  C   UNL     1       7.203  28.913  55.823  1.00  0.00     0.036 A 
HETATM    5  C   UNL     1       6.136  29.489  56.522  1.00  0.00     0.032 A 
HETATM    6  C   UNL     1       6.319  29.981  57.820  1.00  0.00     0.032 A 
ENDROOT
BRANCH   1   7
HETATM    7  N   UNL     1       7.706  30.513  59.698  1.00  0.00    -0.322 N 
HETATM    8  C   UNL     1       8.225  31.765  59.976  1.00  0.00     0.277 C 
HETATM    9  O   UNL     1       8.825  32.493  59.194  1.00  0.00    -0.266 OA
HETATM   10  H   UNL     1       7.278  30.069  60.507  1.00  0.00     0.169 HD
BRANCH   8  11
HETATM   11  C   UNL     1       7.939  32.178  61.363  1.00  0.00     0.157 A 
HETATM   12  C   UNL     1       6.699  32.658  61.878  1.00  0.00     0.029 A 
HETATM   13  C   UNL     1       5.420  32.931  61.354  1.00  0.00     0.023 A 
HETATM   14  C   UNL     1       6.919  32.840  63.238  1.00  0.00     0.063 A 
HETATM   15  C   UNL     1       4.400  33.378  62.209  1.00  0.00    -0.061 A 
HETATM   16  C   UNL     1       3.027  33.656  61.672  1.00  0.00     0.048 C 
HETATM   17  C   UNL     1       4.662  33.541  63.576  1.00  0.00     0.009 A 
HETATM   18  C   UNL     1       5.927  33.280  64.118  1.00  0.00     0.032 A 
HETATM   19  N   UNL     1       8.225  32.494  63.442  1.00  0.00    -0.277 N 
HETATM   20  H   UNL     1       8.731  32.505  64.320  1.00  0.00     0.189 HD
HETATM   21  N   UNL     1       8.874  32.079  62.337  1.00  0.00    -0.168 NA
ENDBRANCH   8  11
ENDBRANCH   1   7
BRANCH   4  22
HETATM   22  N   UNL     1       6.978  28.524  54.487  1.00  0.00    -0.309 N 
HETATM   23  C   UNL     1       6.688  27.247  54.041  1.00  0.00     0.321 C 
HETATM   24  N   UNL     1       6.553  27.228  52.660  1.00  0.00    -0.338 N 
HETATM   25  O   UNL     1       6.602  26.237  54.728  1.00  0.00    -0.247 OA
HETATM   26  H   UNL     1       6.247  28.088  52.230  1.00  0.00     0.164 HD
HETATM   27  H   UNL     1       7.291  29.166  53.774  1.00  0.00     0.170 HD
BRANCH  24  28
HETATM   28  C   UNL     1       6.333  26.013  51.934  1.00  0.00     0.086 A 
HETATM   29  C   UNL     1       5.041  25.255  52.064  1.00  0.00     0.027 A 
HETATM   30  C   UNL     1       5.350  25.993  50.794  1.00  0.00     0.027 A 
ENDBRANCH  24  28
ENDBRANCH   4  22
TORSDOF 4
ENDMDL
MODEL 6
REMARK VINA RESULT:      -8.2      5.859      6.906
REMARK  4 active torsions:
REMARK  status: ('A' for Active; 'I' for Inactive)
REMARK    1  A    between atoms: C_9  and  C_10 
REMARK       I    between atoms: C_10  and  N_11 
REMARK    2  A    between atoms: N_11  and  C_12 
REMARK    3  A    between atoms: C_15  and  N_16 
REMARK       I    between atoms: N_16  and  C_17 
REMARK       I    between atoms: C_17  and  N_18 
REMARK    4  A    between atoms: N_18  and  C_19 
ROOT
HETATM    1  C   UNL     1       5.986  27.853  55.802  1.00  0.00     0.035 A 
HETATM    2  C   UNL     1       6.565  28.986  56.371  1.00  0.00     0.032 A 
HETATM    3  C   UNL     1       6.021  30.256  56.145  1.00  0.00     0.032 A 
HETATM    4  C   UNL     1       4.889  30.414  55.346  1.00  0.00     0.036 A 
HETATM    5  C   UNL     1       4.350  29.287  54.717  1.00  0.00     0.032 A 
HETATM    6  C   UNL     1       4.891  28.016  54.949  1.00  0.00     0.032 A 
ENDROOT
BRANCH   1   7
HETATM    7  N   UNL     1       6.399  26.540  56.080  1.00  0.00    -0.322 N 
HETATM    8  C   UNL     1       7.217  25.725  55.319  1.00  0.00     0.277 C 
HETATM    9  O   UNL     1       7.587  25.936  54.169  1.00  0.00    -0.266 OA
HETATM   10  H   UNL     1       6.190  26.153  56.997  1.00  0.00     0.169 HD
BRANCH   8  11
HETATM   11  C   UNL     1       7.656  24.535  56.072  1.00  0.00     0.157 A 
HETATM   12  C   UNL     1       7.842  23.216  55.563  1.00  0.00     0.029 A 
HETATM   13  C   UNL     1       7.681  22.577  54.318  1.00  0.00     0.023 A 
HETATM   14  C   UNL     1       8.328  22.480  56.637  1.00  0.00     0.063 A 
HETATM   15  C   UNL     1       8.012  21.219  54.187  1.00  0.00    -0.061 A 
HETATM   16  C   UNL     1       7.863  20.526  52.864  1.00  0.00     0.048 C 
HETATM   17  C   UNL     1       8.504  20.514  55.293  1.00  0.00     0.009 A 
HETATM   18  C   UNL     1       8.669  21.128  56.542  1.00  0.00     0.032 A 
HETATM   19  N   UNL     1       8.379  23.358  57.683  1.00  0.00    -0.277 N 
HETATM   20  H   UNL     1       8.685  23.164  58.629  1.00  0.00     0.189 HD
HETATM   21  N   UNL     1       7.992  24.612  57.381  1.00  0.00    -0.168 NA
ENDBRANCH   8  11
ENDBRANCH   1   7
BRANCH   4  22
HETATM   22  N   UNL     1       4.241  31.651  55.147  1.00  0.00    -0.309 N 
HETATM   23  C   UNL     1       3.393  32.286  56.036  1.00  0.00     0.321 C 
HETATM   24  N   UNL     1       2.920  33.475  55.498  1.00  0.00    -0.338 N 
HETATM   25  O   UNL     1       3.043  31.871  57.134  1.00  0.00    -0.247 OA
HETATM   26  H   UNL     1       3.518  33.929  54.823  1.00  0.00     0.164 HD
HETATM   27  H   UNL     1       4.192  31.983  54.196  1.00  0.00     0.170 HD
BRANCH  24  28
HETATM   28  C   UNL     1       1.959  34.289  56.180  1.00  0.00     0.086 A 
HETATM   29  C   UNL     1       2.375  35.541  56.901  1.00  0.00     0.027 A 
HETATM   30  C   UNL     1       1.594  35.639  55.623  1.00  0.00     0.027 A 
ENDBRANCH  24  28
ENDBRANCH   4  22
TORSDOF 4
ENDMDL
MODEL 7
REMARK VINA RESULT:      -8.1      6.371      8.412
REMARK  4 active torsions:
REMARK  status: ('A' for Active; 'I' for Inactive)
REMARK    1  A    between atoms: C_9  and  C_10 
REMARK       I    between atoms: C_10  and  N_11 
REMARK    2  A    between atoms: N_11  and  C_12 
REMARK    3  A    between atoms: C_15  and  N_16 
REMARK       I    between atoms: N_16  and  C_17 
REMARK       I    between atoms: C_17  and  N_18 
REMARK    4  A    between atoms: N_18  and  C_19 
ROOT
HETATM    1  C   UNL     1       6.031  28.026  56.032  1.00  0.00     0.035 A 
HETATM    2  C   UNL     1       4.685  28.369  55.916  1.00  0.00     0.032 A 
HETATM    3  C   UNL     1       4.144  29.406  56.686  1.00  0.00     0.032 A 
HETATM    4  C   UNL     1       4.939  30.117  57.583  1.00  0.00     0.036 A 
HETATM    5  C   UNL     1       6.271  29.727  57.753  1.00  0.00     0.032 A 
HETATM    6  C   UNL     1       6.814  28.694  56.978  1.00  0.00     0.032 A 
ENDROOT
BRANCH   1   7
HETATM    7  N   UNL     1       6.671  27.085  55.210  1.00  0.00    -0.322 N 
HETATM    8  C   UNL     1       7.368  25.954  55.594  1.00  0.00     0.277 C 
HETATM    9  O   UNL     1       7.708  25.661  56.734  1.00  0.00    -0.266 OA
HETATM   10  H   UNL     1       6.526  27.144  54.205  1.00  0.00     0.169 HD
BRANCH   8  11
HETATM   11  C   UNL     1       7.644  25.067  54.446  1.00  0.00     0.157 A 
HETATM   12  C   UNL     1       7.770  23.647  54.469  1.00  0.00     0.029 A 
HETATM   13  C   UNL     1       7.723  22.640  55.453  1.00  0.00     0.023 A 
HETATM   14  C   UNL     1       7.952  23.280  53.142  1.00  0.00     0.063 A 
HETATM   15  C   UNL     1       7.860  21.295  55.076  1.00  0.00    -0.061 A 
HETATM   16  C   UNL     1       7.795  20.207  56.108  1.00  0.00     0.048 C 
HETATM   17  C   UNL     1       8.036  20.966  53.726  1.00  0.00     0.009 A 
HETATM   18  C   UNL     1       8.090  21.951  52.731  1.00  0.00     0.032 A 
HETATM   19  N   UNL     1       7.947  24.452  52.439  1.00  0.00    -0.277 N 
HETATM   20  H   UNL     1       8.057  24.564  51.438  1.00  0.00     0.189 HD
HETATM   21  N   UNL     1       7.753  25.553  53.188  1.00  0.00    -0.168 NA
ENDBRANCH   8  11
ENDBRANCH   1   7
BRANCH   4  22
HETATM   22  N   UNL     1       4.480  31.225  58.325  1.00  0.00    -0.309 N 
HETATM   23  C   UNL     1       4.753  32.556  58.068  1.00  0.00     0.321 C 
HETATM   24  N   UNL     1       4.155  33.373  59.016  1.00  0.00    -0.338 N 
HETATM   25  O   UNL     1       5.460  32.994  57.168  1.00  0.00    -0.247 OA
HETATM   26  H   UNL     1       3.316  33.014  59.449  1.00  0.00     0.164 HD
HETATM   27  H   UNL     1       4.130  31.030  59.251  1.00  0.00     0.170 HD
BRANCH  24  28
HETATM   28  C   UNL     1       4.348  34.792  59.030  1.00  0.00     0.086 A 
HETATM   29  C   UNL     1       3.454  35.704  58.237  1.00  0.00     0.027 A 
HETATM   30  C   UNL     1       3.353  35.675  59.734  1.00  0.00     0.027 A 
ENDBRANCH  24  28
ENDBRANCH   4  22
TORSDOF 4
ENDMDL
MODEL 8
REMARK VINA RESULT:      -8.0      7.374      9.138
REMARK  4 active torsions:
REMARK  status: ('A' for Active; 'I' for Inactive)
REMARK    1  A    between atoms: C_9  and  C_10 
REMARK       I    between atoms: C_10  and  N_11 
REMARK    2  A    between atoms: N_11  and  C_12 
REMARK    3  A    between atoms: C_15  and  N_16 
REMARK       I    between atoms: N_16  and  C_17 
REMARK       I    between atoms: C_17  and  N_18 
REMARK    4  A    between atoms: N_18  and  C_19 
ROOT
HETATM    1  C   UNL     1       5.019  29.833  57.339  1.00  0.00     0.035 A 
HETATM    2  C   UNL     1       5.473  28.525  57.179  1.00  0.00     0.032 A 
HETATM    3  C   UNL     1       5.156  27.795  56.027  1.00  0.00     0.032 A 
HETATM    4  C   UNL     1       4.380  28.360  55.016  1.00  0.00     0.036 A 
HETATM    5  C   UNL     1       3.864  29.646  55.207  1.00  0.00     0.032 A 
HETATM    6  C   UNL     1       4.187  30.379  56.357  1.00  0.00     0.032 A 
ENDROOT
BRANCH   1   7
HETATM    7  N   UNL     1       5.395  30.667  58.404  1.00  0.00    -0.322 N 
HETATM    8  C   UNL     1       5.633  32.029  58.376  1.00  0.00     0.277 C 
HETATM    9  O   UNL     1       5.735  32.729  57.375  1.00  0.00    -0.266 OA
HETATM   10  H   UNL     1       5.384  30.282  59.345  1.00  0.00     0.169 HD
BRANCH   8  11
HETATM   11  C   UNL     1       5.720  32.596  59.736  1.00  0.00     0.157 A 
HETATM   12  C   UNL     1       6.659  32.251  60.752  1.00  0.00     0.029 A 
HETATM   13  C   UNL     1       7.724  31.338  60.881  1.00  0.00     0.023 A 
HETATM   14  C   UNL     1       6.376  33.105  61.810  1.00  0.00     0.063 A 
HETATM   15  C   UNL     1       8.473  31.310  62.069  1.00  0.00    -0.061 A 
HETATM   16  C   UNL     1       9.622  30.356  62.218  1.00  0.00     0.048 C 
HETATM   17  C   UNL     1       8.159  32.193  63.110  1.00  0.00     0.009 A 
HETATM   18  C   UNL     1       7.102  33.106  63.004  1.00  0.00     0.032 A 
HETATM   19  N   UNL     1       5.317  33.861  61.391  1.00  0.00    -0.277 N 
HETATM   20  H   UNL     1       4.843  34.591  61.910  1.00  0.00     0.189 HD
HETATM   21  N   UNL     1       4.897  33.591  60.140  1.00  0.00    -0.168 NA
ENDBRANCH   8  11
ENDBRANCH   1   7
BRANCH   4  22
HETATM   22  N   UNL     1       4.096  27.713  53.796  1.00  0.00    -0.309 N 
HETATM   23  C   UNL     1       4.968  27.534  52.738  1.00  0.00     0.321 C 
HETATM   24  N   UNL     1       4.341  26.875  51.691  1.00  0.00    -0.338 N 
HETATM   25  O   UNL     1       6.126  27.929  52.673  1.00  0.00    -0.247 OA
HETATM   26  H   UNL     1       3.582  26.259  51.942  1.00  0.00     0.164 HD
HETATM   27  H   UNL     1       3.120  27.585  53.573  1.00  0.00     0.170 HD
BRANCH  24  28
HETATM   28  C   UNL     1       4.998  26.636  50.440  1.00  0.00     0.086 A 
HETATM   29  C   UNL     1       4.235  26.130  49.248  1.00  0.00     0.027 A 
HETATM   30  C   UNL     1       4.731  27.546  49.271  1.00  0.00     0.027 A 
ENDBRANCH  24  28
ENDBRANCH   4  22
TORSDOF 4
ENDMDL
MODEL 9
REMARK VINA RESULT:      -7.9      6.105      7.391
REMARK  4 active torsions:
REMARK  status: ('A' for Active; 'I' for Inactive)
REMARK    1  A    between atoms: C_9  and  C_10 
REMARK       I    between atoms: C_10  and  N_11 
REMARK    2  A    between atoms: N_11  and  C_12 
REMARK    3  A    between atoms: C_15  and  N_16 
REMARK       I    between atoms: N_16  and  C_17 
REMARK       I    between atoms: C_17  and  N_18 
REMARK    4  A    between atoms: N_18  and  C_19 
ROOT
HETATM    1  C   UNL     1       5.176  29.554  54.953  1.00  0.00     0.035 A 
HETATM    2  C   UNL     1       5.064  28.233  54.524  1.00  0.00     0.032 A 
HETATM    3  C   UNL     1       4.157  27.885  53.515  1.00  0.00     0.032 A 
HETATM    4  C   UNL     1       3.348  28.852  52.919  1.00  0.00     0.036 A 
HETATM    5  C   UNL     1       3.409  30.165  53.400  1.00  0.00     0.032 A 
HETATM    6  C   UNL     1       4.320  30.514  54.404  1.00  0.00     0.032 A 
ENDROOT
BRANCH   1   7
HETATM    7  N   UNL     1       6.144  29.999  55.869  1.00  0.00    -0.322 N 
HETATM    8  C   UNL     1       5.983  30.260  57.218  1.00  0.00     0.277 C 
HETATM    9  O   UNL     1       4.921  30.323  57.825  1.00  0.00    -0.266 OA
HETATM   10  H   UNL     1       7.114  30.030  55.568  1.00  0.00     0.169 HD
BRANCH   8  11
HETATM   11  C   UNL     1       7.282  30.426  57.899  1.00  0.00     0.157 A 
HETATM   12  C   UNL     1       7.547  31.203  59.064  1.00  0.00     0.029 A 
HETATM   13  C   UNL     1       6.801  32.044  59.915  1.00  0.00     0.023 A 
HETATM   14  C   UNL     1       8.887  30.978  59.352  1.00  0.00     0.063 A 
HETATM   15  C   UNL     1       7.422  32.632  61.028  1.00  0.00    -0.061 A 
HETATM   16  C   UNL     1       6.640  33.516  61.955  1.00  0.00     0.048 C 
HETATM   17  C   UNL     1       8.775  32.374  61.285  1.00  0.00     0.009 A 
HETATM   18  C   UNL     1       9.537  31.545  60.451  1.00  0.00     0.032 A 
HETATM   19  N   UNL     1       9.330  30.135  58.372  1.00  0.00    -0.277 N 
HETATM   20  H   UNL     1      10.264  29.759  58.265  1.00  0.00     0.189 HD
HETATM   21  N   UNL     1       8.388  29.768  57.481  1.00  0.00    -0.168 NA
ENDBRANCH   8  11
ENDBRANCH   1   7
BRANCH   4  22
HETATM   22  N   UNL     1       2.477  28.586  51.843  1.00  0.00    -0.309 N 
HETATM   23  C   UNL     1       2.809  28.581  50.500  1.00  0.00     0.321 C 
HETATM   24  N   UNL     1       1.695  28.301  49.721  1.00  0.00    -0.338 N 
HETATM   25  O   UNL     1       3.907  28.830  50.020  1.00  0.00    -0.247 OA
HETATM   26  H   UNL     1       0.976  27.742  50.155  1.00  0.00     0.164 HD
HETATM   27  H   UNL     1       1.490  28.645  52.041  1.00  0.00     0.170 HD
BRANCH  24  28
HETATM   28  C   UNL     1       1.745  28.316  48.290  1.00  0.00     0.086 A 
HETATM   29  C   UNL     1       2.176  27.101  47.516  1.00  0.00     0.027 A 
HETATM   30  C   UNL     1       0.737  27.526  47.499  1.00  0.00     0.027 A 
ENDBRANCH  24  28
ENDBRANCH   4  22
TORSDOF 4
ENDMDL
MODEL 10
REMARK VINA RESULT:      -7.8      2.239      9.525
REMARK  4 active torsions:
REMARK  status: ('A' for Active; 'I' for Inactive)
REMARK    1  A    between atoms: C_9  and  C_10 
REMARK       I    between atoms: C_10  and  N_11 
REMARK    2  A    between atoms: N_11  and  C_12 
REMARK    3  A    between atoms: C_15  and  N_16 
REMARK       I    between atoms: N_16  and  C_17 
REMARK       I    between atoms: C_17  and  N_18 
REMARK    4  A    between atoms: N_18  and  C_19 
ROOT
HETATM    1  C   UNL     1       5.006  26.809  52.067  1.00  0.00     0.035 A 
HETATM    2  C   UNL     1       6.224  26.420  51.512  1.00  0.00     0.032 A 
HETATM    3  C   UNL     1       7.113  25.616  52.236  1.00  0.00     0.032 A 
HETATM    4  C   UNL     1       6.799  25.188  53.526  1.00  0.00     0.036 A 
HETATM    5  C   UNL     1       5.611  25.638  54.110  1.00  0.00     0.032 A 
HETATM    6  C   UNL     1       4.718  26.437  53.383  1.00  0.00     0.032 A 
ENDROOT
BRANCH   1   7
HETATM    7  N   UNL     1       4.014  27.509  51.361  1.00  0.00    -0.322 N 
HETATM    8  C   UNL     1       4.055  28.814  50.903  1.00  0.00     0.277 C 
HETATM    9  O   UNL     1       4.897  29.658  51.186  1.00  0.00    -0.266 OA
HETATM   10  H   UNL     1       3.205  26.992  51.026  1.00  0.00     0.169 HD
BRANCH   8  11
HETATM   11  C   UNL     1       2.954  29.095  49.961  1.00  0.00     0.157 A 
HETATM   12  C   UNL     1       2.521  28.277  48.877  1.00  0.00     0.029 A 
HETATM   13  C   UNL     1       2.919  27.051  48.309  1.00  0.00     0.023 A 
HETATM   14  C   UNL     1       1.418  28.935  48.346  1.00  0.00     0.063 A 
HETATM   15  C   UNL     1       2.200  26.522  47.225  1.00  0.00    -0.061 A 
HETATM   16  C   UNL     1       2.598  25.209  46.619  1.00  0.00     0.048 C 
HETATM   17  C   UNL     1       1.090  27.215  46.724  1.00  0.00     0.009 A 
HETATM   18  C   UNL     1       0.678  28.437  47.271  1.00  0.00     0.032 A 
HETATM   19  N   UNL     1       1.279  30.069  49.097  1.00  0.00    -0.277 N 
HETATM   20  H   UNL     1       0.575  30.789  48.990  1.00  0.00     0.189 HD
HETATM   21  N   UNL     1       2.179  30.198  50.089  1.00  0.00    -0.168 NA
ENDBRANCH   8  11
ENDBRANCH   1   7
BRANCH   4  22
HETATM   22  N   UNL     1       7.608  24.310  54.276  1.00  0.00    -0.309 N 
HETATM   23  C   UNL     1       7.818  22.967  54.021  1.00  0.00     0.321 C 
HETATM   24  N   UNL     1       8.654  22.411  54.978  1.00  0.00    -0.338 N 
HETATM   25  O   UNL     1       7.317  22.309  53.118  1.00  0.00    -0.247 OA
HETATM   26  H   UNL     1       9.311  23.039  55.416  1.00  0.00     0.164 HD
HETATM   27  H   UNL     1       7.860  24.615  55.204  1.00  0.00     0.170 HD
BRANCH  24  28
HETATM   28  C   UNL     1       8.967  21.013  54.996  1.00  0.00     0.086 A 
HETATM   29  C   UNL     1       9.513  20.356  56.233  1.00  0.00     0.027 A 
HETATM   30  C   UNL     1       8.109  20.065  55.790  1.00  0.00     0.027 A 
ENDBRANCH  24  28
ENDBRANCH   4  22
TORSDOF 4
ENDMDL
