MODEL 1
REMARK VINA RESULT:      -9.4      0.000      0.000
REMARK  3 active torsions:
REMARK  status: ('A' for Active; 'I' for Inactive)
REMARK    1  A    between atoms: C_2  and  O_3 
REMARK    2  A    between atoms: O_3  and  C_4 
REMARK    3  A    between atoms: C_8  and  N_9 
REMARK       I    between atoms: N_9  and  C_10 
REMARK       I    between atoms: C_10  and  N_11 
ROOT
HETATM    1  N   UNL     1       7.292  28.126  56.957  1.00  0.00    -0.309 N 
HETATM    2  C   UNL     1       7.359  26.830  57.413  1.00  0.00     0.323 C 
HETATM    3  N   UNL     1       7.130  25.843  56.456  1.00  0.00    -0.328 N 
HETATM    4  C   UNL     1       7.047  24.464  56.968  1.00  0.00     0.185 C 
HETATM    5  C   UNL     1       7.424  23.504  55.896  1.00  0.00     0.035 A 
HETATM    6  C   UNL     1       7.661  23.787  54.569  1.00  0.00    -0.020 A 
HETATM    7  C   UNL     1       7.580  25.177  54.059  1.00  0.00     0.061 C 
HETATM    8  C   UNL     1       6.761  26.051  55.033  1.00  0.00     0.132 C 
HETATM    9  N   UNL     1       7.605  22.161  56.082  1.00  0.00    -0.357 N 
HETATM   10  H   UNL     1       7.514  21.670  56.961  1.00  0.00     0.166 HD
HETATM   11  C   UNL     1       7.952  21.566  54.887  1.00  0.00     0.043 A 
HETATM   12  C   UNL     1       7.993  22.571  53.916  1.00  0.00    -0.001 A 
HETATM   13  C   UNL     1       8.239  20.227  54.598  1.00  0.00     0.030 A 
HETATM   14  C   UNL     1       8.574  19.905  53.279  1.00  0.00     0.002 A 
HETATM   15  C   UNL     1       8.622  20.886  52.291  1.00  0.00     0.001 A 
HETATM   16  C   UNL     1       8.335  22.221  52.595  1.00  0.00     0.014 A 
HETATM   17  O   UNL     1       7.607  26.534  58.581  1.00  0.00    -0.247 OA
HETATM   18  H   UNL     1       6.727  28.281  56.140  1.00  0.00     0.170 HD
ENDROOT
BRANCH   1  19
HETATM   19  C   UNL     1       7.713  29.293  57.630  1.00  0.00     0.038 A 
HETATM   20  C   UNL     1       6.845  30.256  58.143  1.00  0.00     0.056 A 
HETATM   21  C   UNL     1       7.346  31.370  58.829  1.00  0.00     0.069 A 
HETATM   22  C   UNL     1       8.725  31.532  59.031  1.00  0.00     0.090 A 
HETATM   23 CL   UNL     1       6.211  32.527  59.438  1.00  0.00    -0.081 Cl
HETATM   24  C   UNL     1       9.593  30.570  58.513  1.00  0.00     0.041 A 
HETATM   25  C   UNL     1       9.090  29.460  57.823  1.00  0.00     0.032 A 
BRANCH  22  26
HETATM   26  O   UNL     1       9.128  32.647  59.717  1.00  0.00    -0.350 OA
BRANCH  26  27
HETATM   27  C   UNL     1       9.803  32.452  60.958  1.00  0.00     0.171 C 
HETATM   28  C   UNL     1       8.780  31.980  61.976  1.00  0.00     0.034 C 
ENDBRANCH  26  27
ENDBRANCH  22  26
ENDBRANCH   1  19
TORSDOF 3
ENDMDL
MODEL 2
REMARK VINA RESULT:      -9.1      3.724     10.802
REMARK  3 active torsions:
REMARK  status: ('A' for Active; 'I' for Inactive)
REMARK    1  A    between atoms: C_2  and  O_3 
REMARK    2  A    between atoms: O_3  and  C_4 
REMARK    3  A    between atoms: C_8  and  N_9 
REMARK       I    between atoms: N_9  and  C_10 
REMARK       I    between atoms: C_10  and  N_11 
ROOT
HETATM    1  N   UNL     1       7.102  30.241  58.265  1.00  0.00    -0.309 N 
HETATM    2  C   UNL     1       7.887  30.551  59.351  1.00  0.00     0.323 C 
HETATM    3  N   UNL     1       7.380  31.533  60.198  1.00  0.00    -0.328 N 
HETATM    4  C   UNL     1       8.284  31.978  61.273  1.00  0.00     0.185 C 
HETATM    5  C   UNL     1       7.490  32.502  62.417  1.00  0.00     0.035 A 
HETATM    6  C   UNL     1       6.130  32.717  62.458  1.00  0.00    -0.020 A 
HETATM    7  C   UNL     1       5.272  32.400  61.291  1.00  0.00     0.061 C 
HETATM    8  C   UNL     1       6.130  32.312  60.012  1.00  0.00     0.132 C 
HETATM    9  N   UNL     1       8.011  32.847  63.633  1.00  0.00    -0.357 N 
HETATM   10  H   UNL     1       8.984  32.778  63.899  1.00  0.00     0.166 HD
HETATM   11  C   UNL     1       7.004  33.289  64.465  1.00  0.00     0.043 A 
HETATM   12  C   UNL     1       5.806  33.218  63.747  1.00  0.00    -0.001 A 
HETATM   13  C   UNL     1       7.062  33.735  65.791  1.00  0.00     0.030 A 
HETATM   14  C   UNL     1       5.863  34.121  66.398  1.00  0.00     0.002 A 
HETATM   15  C   UNL     1       4.655  34.061  65.706  1.00  0.00     0.001 A 
HETATM   16  C   UNL     1       4.613  33.612  64.382  1.00  0.00     0.014 A 
HETATM   17  O   UNL     1       8.967  30.009  59.584  1.00  0.00    -0.247 OA
HETATM   18  H   UNL     1       6.475  30.960  57.949  1.00  0.00     0.170 HD
ENDROOT
BRANCH   1  19
HETATM   19  C   UNL     1       7.241  29.138  57.394  1.00  0.00     0.038 A 
HETATM   20  C   UNL     1       7.533  27.841  57.816  1.00  0.00     0.056 A 
HETATM   21  C   UNL     1       7.621  26.796  56.888  1.00  0.00     0.069 A 
HETATM   22  C   UNL     1       7.400  27.024  55.521  1.00  0.00     0.090 A 
HETATM   23 CL   UNL     1       7.989  25.212  57.481  1.00  0.00    -0.081 Cl
HETATM   24  C   UNL     1       7.112  28.323  55.099  1.00  0.00     0.041 A 
HETATM   25  C   UNL     1       7.030  29.368  56.030  1.00  0.00     0.032 A 
BRANCH  22  26
HETATM   26  O   UNL     1       7.499  25.944  54.684  1.00  0.00    -0.350 OA
BRANCH  26  27
HETATM   27  C   UNL     1       7.600  26.199  53.285  1.00  0.00     0.171 C 
HETATM   28  C   UNL     1       7.948  24.891  52.597  1.00  0.00     0.034 C 
ENDBRANCH  26  27
ENDBRANCH  22  26
ENDBRANCH   1  19
TORSDOF 3
ENDMDL
MODEL 3
REMARK VINA RESULT:      -8.9      3.136      9.959
REMARK  3 active torsions:
REMARK  status: ('A' for Active; 'I' for Inactive)
REMARK    1  A    between atoms: C_2  and  O_3 
REMARK    2  A    between atoms: O_3  and  C_4 
REMARK    3  A    between atoms: C_8  and  N_9 
REMARK       I    between atoms: N_9  and  C_10 
REMARK       I    between atoms: C_10  and  N_11 
ROOT
HETATM    1  N   UNL     1       7.243  27.934  55.857  1.00  0.00    -0.309 N 
HETATM    2  C   UNL     1       7.988  28.324  56.946  1.00  0.00     0.323 C 
HETATM    3  N   UNL     1       7.663  29.568  57.482  1.00  0.00    -0.328 N 
HETATM    4  C   UNL     1       8.556  30.058  58.547  1.00  0.00     0.185 C 
HETATM    5  C   UNL     1       7.819  31.001  59.429  1.00  0.00     0.035 A 
HETATM    6  C   UNL     1       6.551  31.505  59.238  1.00  0.00    -0.020 A 
HETATM    7  C   UNL     1       5.741  31.104  58.062  1.00  0.00     0.061 C 
HETATM    8  C   UNL     1       6.655  30.526  56.961  1.00  0.00     0.132 C 
HETATM    9  N   UNL     1       8.305  31.512  60.601  1.00  0.00    -0.357 N 
HETATM   10  H   UNL     1       9.208  31.304  61.006  1.00  0.00     0.166 HD
HETATM   11  C   UNL     1       7.369  32.348  61.172  1.00  0.00     0.043 A 
HETATM   12  C   UNL     1       6.252  32.362  60.330  1.00  0.00    -0.001 A 
HETATM   13  C   UNL     1       7.422  33.080  62.364  1.00  0.00     0.030 A 
HETATM   14  C   UNL     1       6.305  33.849  62.703  1.00  0.00     0.002 A 
HETATM   15  C   UNL     1       5.179  33.882  61.883  1.00  0.00     0.001 A 
HETATM   16  C   UNL     1       5.139  33.144  60.695  1.00  0.00     0.014 A 
HETATM   17  O   UNL     1       8.883  27.637  57.436  1.00  0.00    -0.247 OA
HETATM   18  H   UNL     1       6.835  28.671  55.310  1.00  0.00     0.170 HD
ENDROOT
BRANCH   1  19
HETATM   19  C   UNL     1       7.186  26.649  55.275  1.00  0.00     0.038 A 
HETATM   20  C   UNL     1       7.489  26.380  53.941  1.00  0.00     0.056 A 
HETATM   21  C   UNL     1       7.439  25.069  53.452  1.00  0.00     0.069 A 
HETATM   22  C   UNL     1       7.103  23.998  54.293  1.00  0.00     0.090 A 
HETATM   23 CL   UNL     1       7.827  24.808  51.784  1.00  0.00    -0.081 Cl
HETATM   24  C   UNL     1       6.795  24.268  55.627  1.00  0.00     0.041 A 
HETATM   25  C   UNL     1       6.840  25.581  56.112  1.00  0.00     0.032 A 
BRANCH  22  26
HETATM   26  O   UNL     1       7.085  22.747  53.734  1.00  0.00    -0.350 OA
BRANCH  26  27
HETATM   27  C   UNL     1       8.105  21.832  54.127  1.00  0.00     0.171 C 
HETATM   28  C   UNL     1       8.087  20.668  53.152  1.00  0.00     0.034 C 
ENDBRANCH  26  27
ENDBRANCH  22  26
ENDBRANCH   1  19
TORSDOF 3
ENDMDL
MODEL 4
REMARK VINA RESULT:      -8.9      7.218      9.957
REMARK  3 active torsions:
REMARK  status: ('A' for Active; 'I' for Inactive)
REMARK    1  A    between atoms: C_2  and  O_3 
REMARK    2  A    between atoms: O_3  and  C_4 
REMARK    3  A    between atoms: C_8  and  N_9 
REMARK       I    between atoms: N_9  and  C_10 
REMARK       I    between atoms: C_10  and  N_11 
ROOT
HETATM    1  N   UNL     1       5.966  25.835  51.065  1.00  0.00    -0.309 N 
HETATM    2  C   UNL     1       5.363  27.066  50.946  1.00  0.00     0.323 C 
HETATM    3  N   UNL     1       4.659  27.278  49.762  1.00  0.00    -0.328 N 
HETATM    4  C   UNL     1       4.144  28.644  49.562  1.00  0.00     0.185 C 
HETATM    5  C   UNL     1       2.955  28.609  48.669  1.00  0.00     0.035 A 
HETATM    6  C   UNL     1       2.465  27.525  47.974  1.00  0.00    -0.020 A 
HETATM    7  C   UNL     1       3.111  26.195  48.082  1.00  0.00     0.061 C 
HETATM    8  C   UNL     1       4.553  26.348  48.610  1.00  0.00     0.132 C 
HETATM    9  N   UNL     1       2.146  29.680  48.408  1.00  0.00    -0.357 N 
HETATM   10  H   UNL     1       2.253  30.609  48.795  1.00  0.00     0.166 HD
HETATM   11  C   UNL     1       1.136  29.306  47.547  1.00  0.00     0.043 A 
HETATM   12  C   UNL     1       1.315  27.949  47.257  1.00  0.00    -0.001 A 
HETATM   13  C   UNL     1       0.082  30.056  47.014  1.00  0.00     0.030 A 
HETATM   14  C   UNL     1      -0.812  29.404  46.159  1.00  0.00     0.002 A 
HETATM   15  C   UNL     1      -0.657  28.054  45.852  1.00  0.00     0.001 A 
HETATM   16  C   UNL     1       0.401  27.316  46.394  1.00  0.00     0.014 A 
HETATM   17  O   UNL     1       5.422  27.936  51.812  1.00  0.00    -0.247 OA
HETATM   18  H   UNL     1       6.192  25.365  50.206  1.00  0.00     0.170 HD
ENDROOT
BRANCH   1  19
HETATM   19  C   UNL     1       6.523  25.264  52.230  1.00  0.00     0.038 A 
HETATM   20  C   UNL     1       5.964  25.380  53.501  1.00  0.00     0.056 A 
HETATM   21  C   UNL     1       6.565  24.753  54.600  1.00  0.00     0.069 A 
HETATM   22  C   UNL     1       7.727  23.982  54.445  1.00  0.00     0.090 A 
HETATM   23 CL   UNL     1       5.818  24.940  56.151  1.00  0.00    -0.081 Cl
HETATM   24  C   UNL     1       8.288  23.870  53.172  1.00  0.00     0.041 A 
HETATM   25  C   UNL     1       7.688  24.503  52.075  1.00  0.00     0.032 A 
BRANCH  22  26
HETATM   26  O   UNL     1       8.244  23.398  55.571  1.00  0.00    -0.350 OA
BRANCH  26  27
HETATM   27  C   UNL     1       8.827  22.104  55.437  1.00  0.00     0.171 C 
HETATM   28  C   UNL     1       7.741  21.075  55.697  1.00  0.00     0.034 C 
ENDBRANCH  26  27
ENDBRANCH  22  26
ENDBRANCH   1  19
TORSDOF 3
ENDMDL
MODEL 5
REMARK VINA RESULT:      -8.7      2.586      4.327
REMARK  3 active torsions:
REMARK  status: ('A' for Active; 'I' for Inactive)
REMARK    1  A    between atoms: C_2  and  O_3 
REMARK    2  A    between atoms: O_3  and  C_4 
REMARK    3  A    between atoms: C_8  and  N_9 
REMARK       I    between atoms: N_9  and  C_10 
REMARK       I    between atoms: C_10  and  N_11 
ROOT
HETATM    1  N   UNL     1       7.743  30.743  59.249  1.00  0.00    -0.309 N 
HETATM    2  C   UNL     1       6.964  30.527  58.135  1.00  0.00     0.323 C 
HETATM    3  N   UNL     1       7.400  29.514  57.284  1.00  0.00    -0.328 N 
HETATM    4  C   UNL     1       6.661  29.382  56.016  1.00  0.00     0.185 C 
HETATM    5  C   UNL     1       6.763  27.986  55.514  1.00  0.00     0.035 A 
HETATM    6  C   UNL     1       7.547  26.973  56.021  1.00  0.00    -0.020 A 
HETATM    7  C   UNL     1       8.401  27.193  57.213  1.00  0.00     0.061 C 
HETATM    8  C   UNL     1       8.637  28.704  57.423  1.00  0.00     0.132 C 
HETATM    9  N   UNL     1       6.064  27.489  54.449  1.00  0.00    -0.357 N 
HETATM   10  H   UNL     1       5.396  28.002  53.890  1.00  0.00     0.166 HD
HETATM   11  C   UNL     1       6.389  26.163  54.255  1.00  0.00     0.043 A 
HETATM   12  C   UNL     1       7.324  25.813  55.234  1.00  0.00    -0.001 A 
HETATM   13  C   UNL     1       5.923  25.252  53.300  1.00  0.00     0.030 A 
HETATM   14  C   UNL     1       6.428  23.949  53.344  1.00  0.00     0.002 A 
HETATM   15  C   UNL     1       7.361  23.573  54.308  1.00  0.00     0.001 A 
HETATM   16  C   UNL     1       7.817  24.494  55.258  1.00  0.00     0.014 A 
HETATM   17  O   UNL     1       5.944  31.168  57.886  1.00  0.00    -0.247 OA
HETATM   18  H   UNL     1       8.708  30.471  59.176  1.00  0.00     0.170 HD
ENDROOT
BRANCH   1  19
HETATM   19  C   UNL     1       7.417  31.516  60.384  1.00  0.00     0.038 A 
HETATM   20  C   UNL     1       6.454  32.525  60.393  1.00  0.00     0.056 A 
HETATM   21  C   UNL     1       6.169  33.223  61.573  1.00  0.00     0.069 A 
HETATM   22  C   UNL     1       6.828  32.912  62.772  1.00  0.00     0.090 A 
HETATM   23 CL   UNL     1       4.963  34.464  61.511  1.00  0.00    -0.081 Cl
HETATM   24  C   UNL     1       7.794  31.906  62.761  1.00  0.00     0.041 A 
HETATM   25  C   UNL     1       8.082  31.213  61.578  1.00  0.00     0.032 A 
BRANCH  22  26
HETATM   26  O   UNL     1       6.482  33.640  63.880  1.00  0.00    -0.350 OA
BRANCH  26  27
HETATM   27  C   UNL     1       7.225  33.416  65.076  1.00  0.00     0.171 C 
HETATM   28  C   UNL     1       6.442  34.017  66.230  1.00  0.00     0.034 C 
ENDBRANCH  26  27
ENDBRANCH  22  26
ENDBRANCH   1  19
TORSDOF 3
ENDMDL
MODEL 6
REMARK VINA RESULT:      -8.3      5.024      5.972
REMARK  3 active torsions:
REMARK  status: ('A' for Active; 'I' for Inactive)
REMARK    1  A    between atoms: C_2  and  O_3 
REMARK    2  A    between atoms: O_3  and  C_4 
REMARK    3  A    between atoms: C_8  and  N_9 
REMARK       I    between atoms: N_9  and  C_10 
REMARK       I    between atoms: C_10  and  N_11 
ROOT
HETATM    1  N   UNL     1       4.745  28.085  52.613  1.00  0.00    -0.309 N 
HETATM    2  C   UNL     1       5.263  27.637  53.806  1.00  0.00     0.323 C 
HETATM    3  N   UNL     1       5.435  26.258  53.908  1.00  0.00    -0.328 N 
HETATM    4  C   UNL     1       5.841  25.761  55.233  1.00  0.00     0.185 C 
HETATM    5  C   UNL     1       6.570  24.473  55.088  1.00  0.00     0.035 A 
HETATM    6  C   UNL     1       6.728  23.729  53.939  1.00  0.00    -0.020 A 
HETATM    7  C   UNL     1       6.164  24.192  52.648  1.00  0.00     0.061 C 
HETATM    8  C   UNL     1       5.057  25.237  52.898  1.00  0.00     0.132 C 
HETATM    9  N   UNL     1       7.219  23.826  56.104  1.00  0.00    -0.357 N 
HETATM   10  H   UNL     1       7.286  24.148  57.060  1.00  0.00     0.166 HD
HETATM   11  C   UNL     1       7.792  22.666  55.629  1.00  0.00     0.043 A 
HETATM   12  C   UNL     1       7.496  22.580  54.265  1.00  0.00    -0.001 A 
HETATM   13  C   UNL     1       8.552  21.698  56.296  1.00  0.00     0.030 A 
HETATM   14  C   UNL     1       9.020  20.611  55.550  1.00  0.00     0.002 A 
HETATM   15  C   UNL     1       8.739  20.501  54.190  1.00  0.00     0.001 A 
HETATM   16  C   UNL     1       7.980  21.477  53.535  1.00  0.00     0.014 A 
HETATM   17  O   UNL     1       5.567  28.383  54.736  1.00  0.00    -0.247 OA
HETATM   18  H   UNL     1       4.187  27.428  52.096  1.00  0.00     0.170 HD
ENDROOT
BRANCH   1  19
HETATM   19  C   UNL     1       4.696  29.417  52.147  1.00  0.00     0.038 A 
HETATM   20  C   UNL     1       5.441  29.896  51.070  1.00  0.00     0.056 A 
HETATM   21  C   UNL     1       5.307  31.226  50.651  1.00  0.00     0.069 A 
HETATM   22  C   UNL     1       4.411  32.097  51.289  1.00  0.00     0.090 A 
HETATM   23 CL   UNL     1       6.264  31.754  49.308  1.00  0.00    -0.081 Cl
HETATM   24  C   UNL     1       3.669  31.617  52.370  1.00  0.00     0.041 A 
HETATM   25  C   UNL     1       3.809  30.288  52.791  1.00  0.00     0.032 A 
BRANCH  22  26
HETATM   26  O   UNL     1       4.339  33.378  50.810  1.00  0.00    -0.350 OA
BRANCH  26  27
HETATM   27  C   UNL     1       4.599  34.441  51.724  1.00  0.00     0.171 C 
HETATM   28  C   UNL     1       6.105  34.584  51.856  1.00  0.00     0.034 C 
ENDBRANCH  26  27
ENDBRANCH  22  26
ENDBRANCH   1  19
TORSDOF 3
ENDMDL
MODEL 7
REMARK VINA RESULT:      -8.3      5.637      7.287
REMARK  3 active torsions:
REMARK  status: ('A' for Active; 'I' for Inactive)
REMARK    1  A    between atoms: C_2  and  O_3 
REMARK    2  A    between atoms: O_3  and  C_4 
REMARK    3  A    between atoms: C_8  and  N_9 
REMARK       I    between atoms: N_9  and  C_10 
REMARK       I    between atoms: C_10  and  N_11 
ROOT
HETATM    1  N   UNL     1       5.938  27.948  52.161  1.00  0.00    -0.309 N 
HETATM    2  C   UNL     1       6.155  26.668  51.706  1.00  0.00     0.323 C 
HETATM    3  N   UNL     1       6.960  25.871  52.517  1.00  0.00    -0.328 N 
HETATM    4  C   UNL     1       7.322  24.555  51.961  1.00  0.00     0.185 C 
HETATM    5  C   UNL     1       7.607  23.601  53.066  1.00  0.00     0.035 A 
HETATM    6  C   UNL     1       7.698  23.886  54.410  1.00  0.00    -0.020 A 
HETATM    7  C   UNL     1       7.479  25.263  54.915  1.00  0.00     0.061 C 
HETATM    8  C   UNL     1       7.648  26.280  53.767  1.00  0.00     0.132 C 
HETATM    9  N   UNL     1       7.818  22.260  52.901  1.00  0.00    -0.357 N 
HETATM   10  H   UNL     1       7.795  21.763  52.021  1.00  0.00     0.166 HD
HETATM   11  C   UNL     1       8.050  21.669  54.126  1.00  0.00     0.043 A 
HETATM   12  C   UNL     1       7.980  22.674  55.095  1.00  0.00    -0.001 A 
HETATM   13  C   UNL     1       8.304  20.331  54.446  1.00  0.00     0.030 A 
HETATM   14  C   UNL     1       8.497  20.011  55.794  1.00  0.00     0.002 A 
HETATM   15  C   UNL     1       8.433  20.992  56.780  1.00  0.00     0.001 A 
HETATM   16  C   UNL     1       8.176  22.326  56.446  1.00  0.00     0.014 A 
HETATM   17  O   UNL     1       5.680  26.230  50.659  1.00  0.00    -0.247 OA
HETATM   18  H   UNL     1       6.639  28.328  52.772  1.00  0.00     0.170 HD
ENDROOT
BRANCH   1  19
HETATM   19  C   UNL     1       4.987  28.876  51.684  1.00  0.00     0.038 A 
HETATM   20  C   UNL     1       5.209  29.745  50.616  1.00  0.00     0.056 A 
HETATM   21  C   UNL     1       4.198  30.612  50.184  1.00  0.00     0.069 A 
HETATM   22  C   UNL     1       2.937  30.614  50.800  1.00  0.00     0.090 A 
HETATM   23 CL   UNL     1       4.544  31.665  48.854  1.00  0.00    -0.081 Cl
HETATM   24  C   UNL     1       2.717  29.747  51.872  1.00  0.00     0.041 A 
HETATM   25  C   UNL     1       3.733  28.884  52.305  1.00  0.00     0.032 A 
BRANCH  22  26
HETATM   26  O   UNL     1       2.004  31.489  50.310  1.00  0.00    -0.350 OA
BRANCH  26  27
HETATM   27  C   UNL     1       0.758  30.951  49.874  1.00  0.00     0.171 C 
HETATM   28  C   UNL     1       0.971  30.333  48.504  1.00  0.00     0.034 C 
ENDBRANCH  26  27
ENDBRANCH  22  26
ENDBRANCH   1  19
TORSDOF 3
ENDMDL
MODEL 8
REMARK VINA RESULT:      -8.2      2.584      3.324
REMARK  3 active torsions:
REMARK  status: ('A' for Active; 'I' for Inactive)
REMARK    1  A    between atoms: C_2  and  O_3 
REMARK    2  A    between atoms: O_3  and  C_4 
REMARK    3  A    between atoms: C_8  and  N_9 
REMARK       I    between atoms: N_9  and  C_10 
REMARK       I    between atoms: C_10  and  N_11 
ROOT
HETATM    1  N   UNL     1       5.393  28.915  56.929  1.00  0.00    -0.309 N 
HETATM    2  C   UNL     1       6.471  28.126  57.259  1.00  0.00     0.323 C 
HETATM    3  N   UNL     1       6.427  26.818  56.783  1.00  0.00    -0.328 N 
HETATM    4  C   UNL     1       7.498  25.927  57.262  1.00  0.00     0.185 C 
HETATM    5  C   UNL     1       7.726  24.836  56.277  1.00  0.00     0.035 A 
HETATM    6  C   UNL     1       6.976  24.553  55.157  1.00  0.00    -0.020 A 
HETATM    7  C   UNL     1       5.804  25.386  54.794  1.00  0.00     0.061 C 
HETATM    8  C   UNL     1       5.319  26.183  56.024  1.00  0.00     0.132 C 
HETATM    9  N   UNL     1       8.752  23.934  56.338  1.00  0.00    -0.357 N 
HETATM   10  H   UNL     1       9.474  23.908  57.045  1.00  0.00     0.166 HD
HETATM   11  C   UNL     1       8.674  23.064  55.271  1.00  0.00     0.043 A 
HETATM   12  C   UNL     1       7.560  23.432  54.510  1.00  0.00    -0.001 A 
HETATM   13  C   UNL     1       9.504  21.992  54.920  1.00  0.00     0.030 A 
HETATM   14  C   UNL     1       9.185  21.276  53.762  1.00  0.00     0.002 A 
HETATM   15  C   UNL     1       8.080  21.622  52.986  1.00  0.00     0.001 A 
HETATM   16  C   UNL     1       7.261  22.696  53.348  1.00  0.00     0.014 A 
HETATM   17  O   UNL     1       7.425  28.525  57.925  1.00  0.00    -0.247 OA
HETATM   18  H   UNL     1       4.531  28.434  56.740  1.00  0.00     0.170 HD
ENDROOT
BRANCH   1  19
HETATM   19  C   UNL     1       5.286  30.316  57.061  1.00  0.00     0.038 A 
HETATM   20  C   UNL     1       5.422  31.000  58.268  1.00  0.00     0.056 A 
HETATM   21  C   UNL     1       5.334  32.398  58.306  1.00  0.00     0.069 A 
HETATM   22  C   UNL     1       5.128  33.139  57.133  1.00  0.00     0.090 A 
HETATM   23 CL   UNL     1       5.511  33.182  59.840  1.00  0.00    -0.081 Cl
HETATM   24  C   UNL     1       4.988  32.454  55.925  1.00  0.00     0.041 A 
HETATM   25  C   UNL     1       5.070  31.055  55.891  1.00  0.00     0.032 A 
BRANCH  22  26
HETATM   26  O   UNL     1       5.062  34.502  57.260  1.00  0.00    -0.350 OA
BRANCH  26  27
HETATM   27  C   UNL     1       4.477  35.238  56.188  1.00  0.00     0.171 C 
HETATM   28  C   UNL     1       5.382  36.419  55.886  1.00  0.00     0.034 C 
ENDBRANCH  26  27
ENDBRANCH  22  26
ENDBRANCH   1  19
TORSDOF 3
ENDMDL
MODEL 9
REMARK VINA RESULT:      -8.0      7.016     10.082
REMARK  3 active torsions:
REMARK  status: ('A' for Active; 'I' for Inactive)
REMARK    1  A    between atoms: C_2  and  O_3 
REMARK    2  A    between atoms: O_3  and  C_4 
REMARK    3  A    between atoms: C_8  and  N_9 
REMARK       I    between atoms: N_9  and  C_10 
REMARK       I    between atoms: C_10  and  N_11 
ROOT
HETATM    1  N   UNL     1       6.016  26.856  52.322  1.00  0.00    -0.309 N 
HETATM    2  C   UNL     1       5.235  26.795  51.191  1.00  0.00     0.323 C 
HETATM    3  N   UNL     1       4.896  28.025  50.629  1.00  0.00    -0.328 N 
HETATM    4  C   UNL     1       3.935  27.973  49.513  1.00  0.00     0.185 C 
HETATM    5  C   UNL     1       4.122  29.157  48.632  1.00  0.00     0.035 A 
HETATM    6  C   UNL     1       4.932  30.247  48.859  1.00  0.00    -0.020 A 
HETATM    7  C   UNL     1       5.770  30.332  50.080  1.00  0.00     0.061 C 
HETATM    8  C   UNL     1       5.232  29.370  51.160  1.00  0.00     0.132 C 
HETATM    9  N   UNL     1       3.503  29.334  47.425  1.00  0.00    -0.357 N 
HETATM   10  H   UNL     1       2.861  28.685  46.990  1.00  0.00     0.166 HD
HETATM   11  C   UNL     1       3.899  30.532  46.867  1.00  0.00     0.043 A 
HETATM   12  C   UNL     1       4.801  31.128  47.754  1.00  0.00    -0.001 A 
HETATM   13  C   UNL     1       3.536  31.123  45.651  1.00  0.00     0.030 A 
HETATM   14  C   UNL     1       4.109  32.358  45.334  1.00  0.00     0.002 A 
HETATM   15  C   UNL     1       5.010  32.975  46.199  1.00  0.00     0.001 A 
HETATM   16  C   UNL     1       5.365  32.372  47.410  1.00  0.00     0.014 A 
HETATM   17  O   UNL     1       4.852  25.741  50.686  1.00  0.00    -0.247 OA
HETATM   18  H   UNL     1       5.953  27.701  52.861  1.00  0.00     0.170 HD
ENDROOT
BRANCH   1  19
HETATM   19  C   UNL     1       6.700  25.790  52.947  1.00  0.00     0.038 A 
HETATM   20  C   UNL     1       6.655  25.528  54.315  1.00  0.00     0.056 A 
HETATM   21  C   UNL     1       7.339  24.428  54.850  1.00  0.00     0.069 A 
HETATM   22  C   UNL     1       8.065  23.558  54.022  1.00  0.00     0.090 A 
HETATM   23 CL   UNL     1       7.241  24.163  56.558  1.00  0.00    -0.081 Cl
HETATM   24  C   UNL     1       8.112  23.824  52.653  1.00  0.00     0.041 A 
HETATM   25  C   UNL     1       7.433  24.928  52.122  1.00  0.00     0.032 A 
BRANCH  22  26
HETATM   26  O   UNL     1       8.697  22.504  54.627  1.00  0.00    -0.350 OA
BRANCH  26  27
HETATM   27  C   UNL     1       8.159  21.201  54.415  1.00  0.00     0.171 C 
HETATM   28  C   UNL     1       7.767  20.633  55.768  1.00  0.00     0.034 C 
ENDBRANCH  26  27
ENDBRANCH  22  26
ENDBRANCH   1  19
TORSDOF 3
ENDMDL
MODEL 10
REMARK VINA RESULT:      -7.6      4.696     11.522
REMARK  3 active torsions:
REMARK  status: ('A' for Active; 'I' for Inactive)
REMARK    1  A    between atoms: C_2  and  O_3 
REMARK    2  A    between atoms: O_3  and  C_4 
REMARK    3  A    between atoms: C_8  and  N_9 
REMARK       I    between atoms: N_9  and  C_10 
REMARK       I    between atoms: C_10  and  N_11 
ROOT
HETATM    1  N   UNL     1       4.647  30.603  58.273  1.00  0.00    -0.309 N 
HETATM    2  C   UNL     1       5.007  31.918  58.457  1.00  0.00     0.323 C 
HETATM    3  N   UNL     1       4.419  32.554  59.548  1.00  0.00    -0.328 N 
HETATM    4  C   UNL     1       4.677  34.001  59.660  1.00  0.00     0.185 C 
HETATM    5  C   UNL     1       4.565  34.425  61.081  1.00  0.00     0.035 A 
HETATM    6  C   UNL     1       4.129  33.669  62.145  1.00  0.00    -0.020 A 
HETATM    7  C   UNL     1       3.727  32.253  61.961  1.00  0.00     0.061 C 
HETATM    8  C   UNL     1       3.409  31.983  60.475  1.00  0.00     0.132 C 
HETATM    9  N   UNL     1       4.900  35.666  61.551  1.00  0.00    -0.357 N 
HETATM   10  H   UNL     1       5.267  36.427  60.997  1.00  0.00     0.166 HD
HETATM   11  C   UNL     1       4.680  35.725  62.911  1.00  0.00     0.043 A 
HETATM   12  C   UNL     1       4.193  34.477  63.311  1.00  0.00    -0.001 A 
HETATM   13  C   UNL     1       4.884  36.778  63.811  1.00  0.00     0.030 A 
HETATM   14  C   UNL     1       4.577  36.550  65.156  1.00  0.00     0.002 A 
HETATM   15  C   UNL     1       4.090  35.316  65.582  1.00  0.00     0.001 A 
HETATM   16  C   UNL     1       3.893  34.272  64.672  1.00  0.00     0.014 A 
HETATM   17  O   UNL     1       5.795  32.515  57.726  1.00  0.00    -0.247 OA
HETATM   18  H   UNL     1       3.756  30.329  58.646  1.00  0.00     0.170 HD
ENDROOT
BRANCH   1  19
HETATM   19  C   UNL     1       5.259  29.660  57.418  1.00  0.00     0.038 A 
HETATM   20  C   UNL     1       6.517  29.102  57.643  1.00  0.00     0.056 A 
HETATM   21  C   UNL     1       7.037  28.146  56.761  1.00  0.00     0.069 A 
HETATM   22  C   UNL     1       6.301  27.716  55.647  1.00  0.00     0.090 A 
HETATM   23 CL   UNL     1       8.606  27.497  57.100  1.00  0.00    -0.081 Cl
HETATM   24  C   UNL     1       5.043  28.278  55.421  1.00  0.00     0.041 A 
HETATM   25  C   UNL     1       4.528  29.238  56.302  1.00  0.00     0.032 A 
BRANCH  22  26
HETATM   26  O   UNL     1       6.882  26.773  54.841  1.00  0.00    -0.350 OA
BRANCH  26  27
HETATM   27  C   UNL     1       6.153  25.573  54.595  1.00  0.00     0.171 C 
HETATM   28  C   UNL     1       6.491  24.588  55.699  1.00  0.00     0.034 C 
ENDBRANCH  26  27
ENDBRANCH  22  26
ENDBRANCH   1  19
TORSDOF 3
ENDMDL
