MODEL 1
REMARK VINA RESULT:      -8.1      0.000      0.000
REMARK  5 active torsions:
REMARK  status: ('A' for Active; 'I' for Inactive)
REMARK    1  A    between atoms: C_2  and  C_3 
REMARK    2  A    between atoms: C_3  and  O_4 
REMARK    3  A    between atoms: C_3  and  C_5 
REMARK    4  A    between atoms: N_8  and  C_10 
REMARK    5  A    between atoms: C_10  and  C_11 
ROOT
HETATM    1  C   UNL     1       5.370  25.803  53.869  1.00  0.00     0.022 C 
HETATM    2  C   UNL     1       4.623  24.924  52.856  1.00  0.00     0.035 C 
HETATM    3  C   UNL     1       4.919  25.329  51.420  1.00  0.00     0.235 C 
HETATM    4  N   UNL     1       4.590  26.786  51.214  1.00  0.00    -0.066 N 
HETATM    5  H   UNL     1       3.560  26.856  51.266  1.00  0.00     0.280 HD
HETATM    6  C   UNL     1       5.205  27.730  52.210  1.00  0.00     0.235 C 
HETATM    7  C   UNL     1       4.938  27.262  53.633  1.00  0.00     0.035 C 
ENDROOT
BRANCH   1   8
HETATM    8  C   UNL     1       6.912  25.631  53.812  1.00  0.00     0.155 C 
BRANCH   8   9
HETATM    9  C   UNL     1       7.384  24.214  54.062  1.00  0.00    -0.029 A 
HETATM   10  C   UNL     1       7.235  23.610  55.320  1.00  0.00     0.011 A 
HETATM   11  C   UNL     1       7.642  22.290  55.527  1.00  0.00     0.024 A 
HETATM   12  C   UNL     1       8.204  21.564  54.480  1.00  0.00     0.034 A 
HETATM   13  C   UNL     1       8.373  22.152  53.229  1.00  0.00     0.024 A 
HETATM   14 CL   UNL     1       8.692  19.935  54.729  1.00  0.00    -0.084 Cl
HETATM   15  C   UNL     1       7.969  23.472  53.022  1.00  0.00     0.011 A 
ENDBRANCH   8   9
BRANCH   8  16
HETATM   16  O   UNL     1       7.504  26.525  54.746  1.00  0.00    -0.391 OA
HETATM   17  H   UNL     1       7.250  26.246  55.646  1.00  0.00     0.210 HD
ENDBRANCH   8  16
ENDBRANCH   1   8
BRANCH   4  18
HETATM   18  C   UNL     1       4.876  27.231  49.782  1.00  0.00     0.295 C 
BRANCH  18  19
HETATM   19  C   UNL     1       3.799  26.814  48.835  1.00  0.00     0.081 A 
HETATM   20  N   UNL     1       2.566  27.330  48.968  1.00  0.00    -0.178 NA
HETATM   21  N   UNL     1       1.861  26.738  47.979  1.00  0.00    -0.289 N 
HETATM   22  H   UNL     1       0.884  26.990  47.850  1.00  0.00     0.188 HD
HETATM   23  C   UNL     1       2.594  25.831  47.272  1.00  0.00     0.111 A 
HETATM   24  C   UNL     1       3.863  25.860  47.796  1.00  0.00     0.049 A 
ENDBRANCH  18  19
ENDBRANCH   4  18
TORSDOF 5
ENDMDL
MODEL 2
REMARK VINA RESULT:      -7.6      4.226      6.116
REMARK  5 active torsions:
REMARK  status: ('A' for Active; 'I' for Inactive)
REMARK    1  A    between atoms: C_2  and  C_3 
REMARK    2  A    between atoms: C_3  and  O_4 
REMARK    3  A    between atoms: C_3  and  C_5 
REMARK    4  A    between atoms: N_8  and  C_10 
REMARK    5  A    between atoms: C_10  and  C_11 
ROOT
HETATM    1  C   UNL     1       5.567  25.353  55.854  1.00  0.00     0.022 C 
HETATM    2  C   UNL     1       5.335  26.166  54.573  1.00  0.00     0.035 C 
HETATM    3  C   UNL     1       6.044  27.512  54.614  1.00  0.00     0.235 C 
HETATM    4  N   UNL     1       5.611  28.289  55.832  1.00  0.00    -0.066 N 
HETATM    5  H   UNL     1       4.625  28.553  55.666  1.00  0.00     0.280 HD
HETATM    6  C   UNL     1       5.718  27.550  57.136  1.00  0.00     0.235 C 
HETATM    7  C   UNL     1       5.049  26.186  57.041  1.00  0.00     0.035 C 
ENDROOT
BRANCH   1   8
HETATM    8  C   UNL     1       7.046  24.917  56.045  1.00  0.00     0.155 C 
BRANCH   8   9
HETATM    9  C   UNL     1       7.456  23.736  55.192  1.00  0.00    -0.029 A 
HETATM   10  C   UNL     1       7.501  22.437  55.723  1.00  0.00     0.011 A 
HETATM   11  C   UNL     1       7.847  21.351  54.915  1.00  0.00     0.024 A 
HETATM   12  C   UNL     1       8.152  21.554  53.571  1.00  0.00     0.034 A 
HETATM   13  C   UNL     1       8.125  22.837  53.031  1.00  0.00     0.024 A 
HETATM   14 CL   UNL     1       8.561  20.216  52.573  1.00  0.00    -0.084 Cl
HETATM   15  C   UNL     1       7.784  23.924  53.838  1.00  0.00     0.011 A 
ENDBRANCH   8   9
BRANCH   8  16
HETATM   16  O   UNL     1       7.262  24.635  57.422  1.00  0.00    -0.391 OA
HETATM   17  H   UNL     1       7.581  25.448  57.859  1.00  0.00     0.210 HD
ENDBRANCH   8  16
ENDBRANCH   1   8
BRANCH   4  18
HETATM   18  C   UNL     1       6.303  29.647  55.908  1.00  0.00     0.295 C 
BRANCH  18  19
HETATM   19  C   UNL     1       7.623  29.570  56.604  1.00  0.00     0.081 A 
HETATM   20  N   UNL     1       7.745  30.066  57.846  1.00  0.00    -0.178 NA
HETATM   21  N   UNL     1       9.041  29.845  58.155  1.00  0.00    -0.289 N 
HETATM   22  H   UNL     1       9.383  30.112  59.075  1.00  0.00     0.188 HD
HETATM   23  C   UNL     1       9.744  29.283  57.130  1.00  0.00     0.111 A 
HETATM   24  C   UNL     1       8.851  29.082  56.107  1.00  0.00     0.049 A 
ENDBRANCH  18  19
ENDBRANCH   4  18
TORSDOF 5
ENDMDL
MODEL 3
REMARK VINA RESULT:      -7.5      4.249      7.601
REMARK  5 active torsions:
REMARK  status: ('A' for Active; 'I' for Inactive)
REMARK    1  A    between atoms: C_2  and  C_3 
REMARK    2  A    between atoms: C_3  and  O_4 
REMARK    3  A    between atoms: C_3  and  C_5 
REMARK    4  A    between atoms: N_8  and  C_10 
REMARK    5  A    between atoms: C_10  and  C_11 
ROOT
HETATM    1  C   UNL     1       6.427  26.134  53.301  1.00  0.00     0.022 C 
HETATM    2  C   UNL     1       7.737  25.909  52.534  1.00  0.00     0.035 C 
HETATM    3  C   UNL     1       7.919  24.455  52.127  1.00  0.00     0.235 C 
HETATM    4  N   UNL     1       7.846  23.563  53.340  1.00  0.00    -0.066 N 
HETATM    5  H   UNL     1       8.700  23.757  53.889  1.00  0.00     0.280 HD
HETATM    6  C   UNL     1       6.637  23.763  54.211  1.00  0.00     0.235 C 
HETATM    7  C   UNL     1       6.454  25.236  54.551  1.00  0.00     0.035 C 
ENDROOT
BRANCH   1   8
HETATM    8  C   UNL     1       5.160  25.896  52.435  1.00  0.00     0.155 C 
BRANCH   8   9
HETATM    9  C   UNL     1       5.079  26.776  51.206  1.00  0.00    -0.029 A 
HETATM   10  C   UNL     1       5.306  28.159  51.287  1.00  0.00     0.011 A 
HETATM   11  C   UNL     1       5.263  28.955  50.139  1.00  0.00     0.024 A 
HETATM   12  C   UNL     1       4.991  28.375  48.902  1.00  0.00     0.034 A 
HETATM   13  C   UNL     1       4.750  27.007  48.805  1.00  0.00     0.024 A 
HETATM   14 CL   UNL     1       4.954  29.349  47.487  1.00  0.00    -0.084 Cl
HETATM   15  C   UNL     1       4.788  26.211  49.953  1.00  0.00     0.011 A 
ENDBRANCH   8   9
BRANCH   8  16
HETATM   16  O   UNL     1       4.011  26.076  53.253  1.00  0.00    -0.391 OA
HETATM   17  H   UNL     1       3.664  25.197  53.498  1.00  0.00     0.210 HD
ENDBRANCH   8  16
ENDBRANCH   1   8
BRANCH   4  18
HETATM   18  C   UNL     1       8.023  22.093  52.971  1.00  0.00     0.295 C 
BRANCH  18  19
HETATM   19  C   UNL     1       8.559  21.285  54.107  1.00  0.00     0.081 A 
HETATM   20  N   UNL     1       8.539  19.944  54.032  1.00  0.00    -0.178 NA
HETATM   21  N   UNL     1       9.074  19.548  55.208  1.00  0.00    -0.289 N 
HETATM   22  H   UNL     1       9.196  18.554  55.386  1.00  0.00     0.188 HD
HETATM   23  C   UNL     1       9.374  20.591  56.035  1.00  0.00     0.111 A 
HETATM   24  C   UNL     1       9.060  21.738  55.348  1.00  0.00     0.049 A 
ENDBRANCH  18  19
ENDBRANCH   4  18
TORSDOF 5
ENDMDL
MODEL 4
REMARK VINA RESULT:      -7.4      4.391      6.769
REMARK  5 active torsions:
REMARK  status: ('A' for Active; 'I' for Inactive)
REMARK    1  A    between atoms: C_2  and  C_3 
REMARK    2  A    between atoms: C_3  and  O_4 
REMARK    3  A    between atoms: C_3  and  C_5 
REMARK    4  A    between atoms: N_8  and  C_10 
REMARK    5  A    between atoms: C_10  and  C_11 
ROOT
HETATM    1  C   UNL     1       6.151  27.174  53.651  1.00  0.00     0.022 C 
HETATM    2  C   UNL     1       7.582  27.336  54.182  1.00  0.00     0.035 C 
HETATM    3  C   UNL     1       7.614  27.506  55.694  1.00  0.00     0.235 C 
HETATM    4  N   UNL     1       6.752  28.673  56.104  1.00  0.00    -0.066 N 
HETATM    5  H   UNL     1       7.239  29.520  55.766  1.00  0.00     0.280 HD
HETATM    6  C   UNL     1       5.349  28.655  55.564  1.00  0.00     0.235 C 
HETATM    7  C   UNL     1       5.353  28.426  54.059  1.00  0.00     0.035 C 
ENDROOT
BRANCH   1   8
HETATM    8  C   UNL     1       5.466  25.863  54.123  1.00  0.00     0.155 C 
BRANCH   8   9
HETATM    9  C   UNL     1       6.356  24.640  54.049  1.00  0.00    -0.029 A 
HETATM   10  C   UNL     1       6.703  23.924  55.205  1.00  0.00     0.011 A 
HETATM   11  C   UNL     1       7.497  22.777  55.119  1.00  0.00     0.024 A 
HETATM   12  C   UNL     1       7.951  22.338  53.877  1.00  0.00     0.034 A 
HETATM   13  C   UNL     1       7.627  23.044  52.722  1.00  0.00     0.024 A 
HETATM   14 CL   UNL     1       8.913  20.918  53.768  1.00  0.00    -0.084 Cl
HETATM   15  C   UNL     1       6.838  24.193  52.807  1.00  0.00     0.011 A 
ENDBRANCH   8   9
BRANCH   8  16
HETATM   16  O   UNL     1       4.285  25.665  53.355  1.00  0.00    -0.391 OA
HETATM   17  H   UNL     1       4.528  25.655  52.410  1.00  0.00     0.210 HD
ENDBRANCH   8  16
ENDBRANCH   1   8
BRANCH   4  18
HETATM   18  C   UNL     1       6.758  28.874  57.617  1.00  0.00     0.295 C 
BRANCH  18  19
HETATM   19  C   UNL     1       7.805  29.846  58.053  1.00  0.00     0.081 A 
HETATM   20  N   UNL     1       7.442  30.954  58.719  1.00  0.00    -0.178 NA
HETATM   21  N   UNL     1       8.611  31.595  58.940  1.00  0.00    -0.289 N 
HETATM   22  H   UNL     1       8.605  32.467  59.463  1.00  0.00     0.188 HD
HETATM   23  C   UNL     1       9.681  30.956  58.386  1.00  0.00     0.111 A 
HETATM   24  C   UNL     1       9.196  29.809  57.808  1.00  0.00     0.049 A 
ENDBRANCH  18  19
ENDBRANCH   4  18
TORSDOF 5
ENDMDL
MODEL 5
REMARK VINA RESULT:      -7.4      5.778      7.849
REMARK  5 active torsions:
REMARK  status: ('A' for Active; 'I' for Inactive)
REMARK    1  A    between atoms: C_2  and  C_3 
REMARK    2  A    between atoms: C_3  and  O_4 
REMARK    3  A    between atoms: C_3  and  C_5 
REMARK    4  A    between atoms: N_8  and  C_10 
REMARK    5  A    between atoms: C_10  and  C_11 
ROOT
HETATM    1  C   UNL     1       6.781  27.128  56.365  1.00  0.00     0.022 C 
HETATM    2  C   UNL     1       7.247  26.302  57.572  1.00  0.00     0.035 C 
HETATM    3  C   UNL     1       8.386  25.358  57.214  1.00  0.00     0.235 C 
HETATM    4  N   UNL     1       7.977  24.461  56.073  1.00  0.00    -0.066 N 
HETATM    5  H   UNL     1       7.259  23.822  56.456  1.00  0.00     0.280 HD
HETATM    6  C   UNL     1       7.423  25.168  54.868  1.00  0.00     0.235 C 
HETATM    7  C   UNL     1       6.327  26.145  55.270  1.00  0.00     0.035 C 
ENDROOT
BRANCH   1   8
HETATM    8  C   UNL     1       7.857  28.123  55.851  1.00  0.00     0.155 C 
BRANCH   8   9
HETATM    9  C   UNL     1       8.294  29.145  56.879  1.00  0.00    -0.029 A 
HETATM   10  C   UNL     1       7.353  29.870  57.627  1.00  0.00     0.011 A 
HETATM   11  C   UNL     1       7.770  30.784  58.598  1.00  0.00     0.024 A 
HETATM   12  C   UNL     1       9.130  30.982  58.828  1.00  0.00     0.034 A 
HETATM   13  C   UNL     1      10.077  30.280  58.086  1.00  0.00     0.024 A 
HETATM   14 CL   UNL     1       9.644  32.094  60.033  1.00  0.00    -0.084 Cl
HETATM   15  C   UNL     1       9.661  29.370  57.112  1.00  0.00     0.011 A 
ENDBRANCH   8   9
BRANCH   8  16
HETATM   16  O   UNL     1       7.357  28.770  54.687  1.00  0.00    -0.391 OA
HETATM   17  H   UNL     1       6.489  28.383  54.465  1.00  0.00     0.210 HD
ENDBRANCH   8  16
ENDBRANCH   1   8
BRANCH   4  18
HETATM   18  C   UNL     1       9.096  23.499  55.684  1.00  0.00     0.295 C 
BRANCH  18  19
HETATM   19  C   UNL     1       8.589  22.329  54.905  1.00  0.00     0.081 A 
HETATM   20  N   UNL     1       7.953  21.334  55.546  1.00  0.00    -0.178 NA
HETATM   21  N   UNL     1       7.653  20.459  54.562  1.00  0.00    -0.289 N 
HETATM   22  H   UNL     1       7.133  19.615  54.793  1.00  0.00     0.188 HD
HETATM   23  C   UNL     1       8.128  20.844  53.343  1.00  0.00     0.111 A 
HETATM   24  C   UNL     1       8.736  22.061  53.527  1.00  0.00     0.049 A 
ENDBRANCH  18  19
ENDBRANCH   4  18
TORSDOF 5
ENDMDL
MODEL 6
REMARK VINA RESULT:      -7.4      4.935      7.222
REMARK  5 active torsions:
REMARK  status: ('A' for Active; 'I' for Inactive)
REMARK    1  A    between atoms: C_2  and  C_3 
REMARK    2  A    between atoms: C_3  and  O_4 
REMARK    3  A    between atoms: C_3  and  C_5 
REMARK    4  A    between atoms: N_8  and  C_10 
REMARK    5  A    between atoms: C_10  and  C_11 
ROOT
HETATM    1  C   UNL     1       6.588  26.478  55.591  1.00  0.00     0.022 C 
HETATM    2  C   UNL     1       7.335  27.521  54.748  1.00  0.00     0.035 C 
HETATM    3  C   UNL     1       8.259  28.384  55.593  1.00  0.00     0.235 C 
HETATM    4  N   UNL     1       7.481  29.046  56.703  1.00  0.00    -0.066 N 
HETATM    5  H   UNL     1       6.869  29.742  56.246  1.00  0.00     0.280 HD
HETATM    6  C   UNL     1       6.645  28.119  57.540  1.00  0.00     0.235 C 
HETATM    7  C   UNL     1       5.776  27.232  56.660  1.00  0.00     0.035 C 
ENDROOT
BRANCH   1   8
HETATM    8  C   UNL     1       7.525  25.408  56.213  1.00  0.00     0.155 C 
BRANCH   8   9
HETATM    9  C   UNL     1       7.799  24.226  55.308  1.00  0.00    -0.029 A 
HETATM   10  C   UNL     1       8.825  23.312  55.596  1.00  0.00     0.011 A 
HETATM   11  C   UNL     1       9.044  22.206  54.771  1.00  0.00     0.024 A 
HETATM   12  C   UNL     1       8.241  22.005  53.651  1.00  0.00     0.034 A 
HETATM   13  C   UNL     1       7.227  22.908  53.343  1.00  0.00     0.024 A 
HETATM   14 CL   UNL     1       8.499  20.636  52.645  1.00  0.00    -0.084 Cl
HETATM   15  C   UNL     1       7.010  24.017  54.164  1.00  0.00     0.011 A 
ENDBRANCH   8   9
BRANCH   8  16
HETATM   16  O   UNL     1       6.962  24.972  57.444  1.00  0.00    -0.391 OA
HETATM   17  H   UNL     1       6.049  24.670  57.278  1.00  0.00     0.210 HD
ENDBRANCH   8  16
ENDBRANCH   1   8
BRANCH   4  18
HETATM   18  C   UNL     1       8.377  29.921  57.575  1.00  0.00     0.295 C 
BRANCH  18  19
HETATM   19  C   UNL     1       7.592  30.745  58.542  1.00  0.00     0.081 A 
HETATM   20  N   UNL     1       7.886  30.686  59.851  1.00  0.00    -0.178 NA
HETATM   21  N   UNL     1       6.994  31.527  60.419  1.00  0.00    -0.289 N 
HETATM   22  H   UNL     1       7.029  31.680  61.425  1.00  0.00     0.188 HD
HETATM   23  C   UNL     1       6.120  32.063  59.520  1.00  0.00     0.111 A 
HETATM   24  C   UNL     1       6.485  31.583  58.286  1.00  0.00     0.049 A 
ENDBRANCH  18  19
ENDBRANCH   4  18
TORSDOF 5
ENDMDL
MODEL 7
REMARK VINA RESULT:      -7.2      9.098     10.944
REMARK  5 active torsions:
REMARK  status: ('A' for Active; 'I' for Inactive)
REMARK    1  A    between atoms: C_2  and  C_3 
REMARK    2  A    between atoms: C_3  and  O_4 
REMARK    3  A    between atoms: C_3  and  C_5 
REMARK    4  A    between atoms: N_8  and  C_10 
REMARK    5  A    between atoms: C_10  and  C_11 
ROOT
HETATM    1  C   UNL     1       8.239  32.075  59.964  1.00  0.00     0.022 C 
HETATM    2  C   UNL     1       7.105  31.653  59.020  1.00  0.00     0.035 C 
HETATM    3  C   UNL     1       7.264  30.218  58.540  1.00  0.00     0.235 C 
HETATM    4  N   UNL     1       8.609  30.038  57.881  1.00  0.00    -0.066 N 
HETATM    5  H   UNL     1       8.568  30.574  56.997  1.00  0.00     0.280 HD
HETATM    6  C   UNL     1       9.787  30.502  58.691  1.00  0.00     0.235 C 
HETATM    7  C   UNL     1       9.568  31.919  59.202  1.00  0.00     0.035 C 
ENDROOT
BRANCH   1   8
HETATM    8  C   UNL     1       8.239  31.299  61.309  1.00  0.00     0.155 C 
BRANCH   8   9
HETATM    9  C   UNL     1       7.432  31.962  62.405  1.00  0.00    -0.029 A 
HETATM   10  C   UNL     1       6.029  31.901  62.413  1.00  0.00     0.011 A 
HETATM   11  C   UNL     1       5.298  32.487  63.449  1.00  0.00     0.024 A 
HETATM   12  C   UNL     1       5.962  33.141  64.484  1.00  0.00     0.034 A 
HETATM   13  C   UNL     1       7.353  33.223  64.485  1.00  0.00     0.024 A 
HETATM   14 CL   UNL     1       5.065  33.849  65.768  1.00  0.00    -0.084 Cl
HETATM   15  C   UNL     1       8.084  32.641  63.447  1.00  0.00     0.011 A 
ENDBRANCH   8   9
BRANCH   8  16
HETATM   16  O   UNL     1       9.585  31.112  61.726  1.00  0.00    -0.391 OA
HETATM   17  H   UNL     1      10.019  30.496  61.106  1.00  0.00     0.210 HD
ENDBRANCH   8  16
ENDBRANCH   1   8
BRANCH   4  18
HETATM   18  C   UNL     1       8.807  28.608  57.387  1.00  0.00     0.295 C 
BRANCH  18  19
HETATM   19  C   UNL     1       8.111  28.357  56.089  1.00  0.00     0.081 A 
HETATM   20  N   UNL     1       8.590  28.912  54.964  1.00  0.00    -0.178 NA
HETATM   21  N   UNL     1       7.730  28.495  54.008  1.00  0.00    -0.289 N 
HETATM   22  H   UNL     1       7.896  28.765  53.042  1.00  0.00     0.188 HD
HETATM   23  C   UNL     1       6.702  27.749  54.506  1.00  0.00     0.111 A 
HETATM   24  C   UNL     1       6.922  27.631  55.856  1.00  0.00     0.049 A 
ENDBRANCH  18  19
ENDBRANCH   4  18
TORSDOF 5
ENDMDL
MODEL 8
REMARK VINA RESULT:      -7.1      9.697     11.601
REMARK  5 active torsions:
REMARK  status: ('A' for Active; 'I' for Inactive)
REMARK    1  A    between atoms: C_2  and  C_3 
REMARK    2  A    between atoms: C_3  and  O_4 
REMARK    3  A    between atoms: C_3  and  C_5 
REMARK    4  A    between atoms: N_8  and  C_10 
REMARK    5  A    between atoms: C_10  and  C_11 
ROOT
HETATM    1  C   UNL     1       8.704  31.683  61.052  1.00  0.00     0.022 C 
HETATM    2  C   UNL     1       7.944  32.760  60.266  1.00  0.00     0.035 C 
HETATM    3  C   UNL     1       6.812  32.173  59.437  1.00  0.00     0.235 C 
HETATM    4  N   UNL     1       7.346  31.108  58.512  1.00  0.00    -0.066 N 
HETATM    5  H   UNL     1       7.916  31.602  57.806  1.00  0.00     0.280 HD
HETATM    6  C   UNL     1       8.179  30.045  59.172  1.00  0.00     0.235 C 
HETATM    7  C   UNL     1       9.265  30.669  60.038  1.00  0.00     0.035 C 
ENDROOT
BRANCH   1   8
HETATM    8  C   UNL     1       7.841  31.000  62.148  1.00  0.00     0.155 C 
BRANCH   8   9
HETATM    9  C   UNL     1       7.196  31.967  63.118  1.00  0.00    -0.029 A 
HETATM   10  C   UNL     1       7.973  32.811  63.926  1.00  0.00     0.011 A 
HETATM   11  C   UNL     1       7.365  33.725  64.791  1.00  0.00     0.024 A 
HETATM   12  C   UNL     1       5.975  33.801  64.855  1.00  0.00     0.034 A 
HETATM   13  C   UNL     1       5.189  32.962  64.070  1.00  0.00     0.024 A 
HETATM   14 CL   UNL     1       5.226  34.935  65.907  1.00  0.00    -0.084 Cl
HETATM   15  C   UNL     1       5.796  32.045  63.209  1.00  0.00     0.011 A 
ENDBRANCH   8   9
BRANCH   8  16
HETATM   16  O   UNL     1       8.652  30.062  62.845  1.00  0.00    -0.391 OA
HETATM   17  H   UNL     1       8.951  30.471  63.679  1.00  0.00     0.210 HD
ENDBRANCH   8  16
ENDBRANCH   1   8
BRANCH   4  18
HETATM   18  C   UNL     1       6.237  30.492  57.663  1.00  0.00     0.295 C 
BRANCH  18  19
HETATM   19  C   UNL     1       6.695  29.270  56.935  1.00  0.00     0.081 A 
HETATM   20  N   UNL     1       6.204  28.070  57.284  1.00  0.00    -0.178 NA
HETATM   21  N   UNL     1       6.830  27.211  56.449  1.00  0.00    -0.289 N 
HETATM   22  H   UNL     1       6.603  26.221  56.498  1.00  0.00     0.188 HD
HETATM   23  C   UNL     1       7.733  27.826  55.632  1.00  0.00     0.111 A 
HETATM   24  C   UNL     1       7.666  29.168  55.915  1.00  0.00     0.049 A 
ENDBRANCH  18  19
ENDBRANCH   4  18
TORSDOF 5
ENDMDL
MODEL 9
REMARK VINA RESULT:      -6.9      4.248      5.791
REMARK  5 active torsions:
REMARK  status: ('A' for Active; 'I' for Inactive)
REMARK    1  A    between atoms: C_2  and  C_3 
REMARK    2  A    between atoms: C_3  and  O_4 
REMARK    3  A    between atoms: C_3  and  C_5 
REMARK    4  A    between atoms: N_8  and  C_10 
REMARK    5  A    between atoms: C_10  and  C_11 
ROOT
HETATM    1  C   UNL     1       5.597  25.443  55.753  1.00  0.00     0.022 C 
HETATM    2  C   UNL     1       5.444  26.339  54.516  1.00  0.00     0.035 C 
HETATM    3  C   UNL     1       6.174  27.664  54.677  1.00  0.00     0.235 C 
HETATM    4  N   UNL     1       5.694  28.373  55.918  1.00  0.00    -0.066 N 
HETATM    5  H   UNL     1       4.722  28.667  55.722  1.00  0.00     0.280 HD
HETATM    6  C   UNL     1       5.722  27.552  57.177  1.00  0.00     0.235 C 
HETATM    7  C   UNL     1       5.034  26.211  56.963  1.00  0.00     0.035 C 
ENDROOT
BRANCH   1   8
HETATM    8  C   UNL     1       7.056  24.965  55.988  1.00  0.00     0.155 C 
BRANCH   8   9
HETATM    9  C   UNL     1       7.458  23.773  55.146  1.00  0.00    -0.029 A 
HETATM   10  C   UNL     1       7.521  22.483  55.696  1.00  0.00     0.011 A 
HETATM   11  C   UNL     1       7.859  21.386  54.899  1.00  0.00     0.024 A 
HETATM   12  C   UNL     1       8.139  21.571  53.547  1.00  0.00     0.034 A 
HETATM   13  C   UNL     1       8.095  22.845  52.987  1.00  0.00     0.024 A 
HETATM   14 CL   UNL     1       8.540  20.220  52.562  1.00  0.00    -0.084 Cl
HETATM   15  C   UNL     1       7.761  23.943  53.784  1.00  0.00     0.011 A 
ENDBRANCH   8   9
BRANCH   8  16
HETATM   16  O   UNL     1       7.221  24.676  57.371  1.00  0.00    -0.391 OA
HETATM   17  H   UNL     1       6.346  24.705  57.800  1.00  0.00     0.210 HD
ENDBRANCH   8  16
ENDBRANCH   1   8
BRANCH   4  18
HETATM   18  C   UNL     1       6.405  29.709  56.115  1.00  0.00     0.295 C 
BRANCH  18  19
HETATM   19  C   UNL     1       5.470  30.788  56.554  1.00  0.00     0.081 A 
HETATM   20  N   UNL     1       5.055  31.705  55.665  1.00  0.00    -0.178 NA
HETATM   21  N   UNL     1       4.251  32.515  56.389  1.00  0.00    -0.289 N 
HETATM   22  H   UNL     1       3.782  33.289  55.925  1.00  0.00     0.188 HD
HETATM   23  C   UNL     1       4.195  32.169  57.707  1.00  0.00     0.111 A 
HETATM   24  C   UNL     1       4.969  31.044  57.849  1.00  0.00     0.049 A 
ENDBRANCH  18  19
ENDBRANCH   4  18
TORSDOF 5
ENDMDL
MODEL 10
REMARK VINA RESULT:      -6.9      2.903      5.040
REMARK  5 active torsions:
REMARK  status: ('A' for Active; 'I' for Inactive)
REMARK    1  A    between atoms: C_2  and  C_3 
REMARK    2  A    between atoms: C_3  and  O_4 
REMARK    3  A    between atoms: C_3  and  C_5 
REMARK    4  A    between atoms: N_8  and  C_10 
REMARK    5  A    between atoms: C_10  and  C_11 
ROOT
HETATM    1  C   UNL     1       6.841  25.922  52.442  1.00  0.00     0.022 C 
HETATM    2  C   UNL     1       7.644  26.936  53.269  1.00  0.00     0.035 C 
HETATM    3  C   UNL     1       6.741  27.883  54.045  1.00  0.00     0.235 C 
HETATM    4  N   UNL     1       5.795  28.585  53.104  1.00  0.00    -0.066 N 
HETATM    5  H   UNL     1       6.377  29.229  52.541  1.00  0.00     0.280 HD
HETATM    6  C   UNL     1       5.018  27.684  52.185  1.00  0.00     0.235 C 
HETATM    7  C   UNL     1       5.946  26.712  51.470  1.00  0.00     0.035 C 
ENDROOT
BRANCH   1   8
HETATM    8  C   UNL     1       6.027  24.928  53.313  1.00  0.00     0.155 C 
BRANCH   8   9
HETATM    9  C   UNL     1       6.854  23.809  53.910  1.00  0.00    -0.029 A 
HETATM   10  C   UNL     1       7.520  22.882  53.093  1.00  0.00     0.011 A 
HETATM   11  C   UNL     1       8.309  21.876  53.656  1.00  0.00     0.024 A 
HETATM   12  C   UNL     1       8.439  21.788  55.040  1.00  0.00     0.034 A 
HETATM   13  C   UNL     1       7.775  22.691  55.867  1.00  0.00     0.024 A 
HETATM   14 CL   UNL     1       9.422  20.561  55.734  1.00  0.00    -0.084 Cl
HETATM   15  C   UNL     1       6.982  23.694  55.305  1.00  0.00     0.011 A 
ENDBRANCH   8   9
BRANCH   8  16
HETATM   16  O   UNL     1       4.967  24.397  52.527  1.00  0.00    -0.391 OA
HETATM   17  H   UNL     1       4.240  24.135  53.122  1.00  0.00     0.210 HD
ENDBRANCH   8  16
ENDBRANCH   1   8
BRANCH   4  18
HETATM   18  C   UNL     1       4.870  29.545  53.847  1.00  0.00     0.295 C 
BRANCH  18  19
HETATM   19  C   UNL     1       4.968  29.390  55.330  1.00  0.00     0.081 A 
HETATM   20  N   UNL     1       4.198  28.482  55.951  1.00  0.00    -0.178 NA
HETATM   21  N   UNL     1       4.529  28.618  57.254  1.00  0.00    -0.289 N 
HETATM   22  H   UNL     1       4.092  28.009  57.942  1.00  0.00     0.188 HD
HETATM   23  C   UNL     1       5.433  29.616  57.473  1.00  0.00     0.111 A 
HETATM   24  C   UNL     1       5.748  30.135  56.241  1.00  0.00     0.049 A 
ENDBRANCH  18  19
ENDBRANCH   4  18
TORSDOF 5
ENDMDL
