MODEL 1
REMARK VINA RESULT:     -10.8      0.000      0.000
REMARK  6 active torsions:
REMARK  status: ('A' for Active; 'I' for Inactive)
REMARK    1  A    between atoms: O_2  and  C_3 
REMARK    2  A    between atoms: C_5  and  N_6 
REMARK    3  A    between atoms: C_8  and  C_9 
REMARK    4  A    between atoms: C_9  and  N_10 
REMARK       I    between atoms: N_10  and  C_11 
REMARK       I    between atoms: C_11  and  N_12 
REMARK    5  A    between atoms: N_12  and  C_13 
REMARK    6  A    between atoms: C_13  and  C_14 
ROOT
HETATM    1  N   UNL     1       8.298  28.836  57.719  1.00  0.00    -0.343 N 
HETATM    2  C   UNL     1       7.318  28.134  57.071  1.00  0.00     0.316 C 
HETATM    3  N   UNL     1       7.848  27.323  56.104  1.00  0.00    -0.339 N 
HETATM    4  O   UNL     1       6.129  28.189  57.352  1.00  0.00    -0.248 OA
HETATM    5  H   UNL     1       9.244  28.509  57.595  1.00  0.00     0.164 HD
HETATM    6  H   UNL     1       8.695  27.649  55.667  1.00  0.00     0.164 HD
ENDROOT
BRANCH   1   7
HETATM    7  C   UNL     1       8.015  29.627  58.904  1.00  0.00     0.130 C 
BRANCH   7   8
HETATM    8  C   UNL     1       8.127  31.142  58.663  1.00  0.00     0.023 C 
HETATM    9  C   UNL     1       7.182  31.951  59.558  1.00  0.00     0.129 C 
HETATM   10  N   UNL     1       7.935  32.135  60.798  1.00  0.00    -0.380 N 
HETATM   11  C   UNL     1       9.361  31.888  60.594  1.00  0.00     0.123 C 
HETATM   12  C   UNL     1       9.495  31.680  59.085  1.00  0.00     0.028 C 
BRANCH  10  13
HETATM   13  C   UNL     1       7.366  32.462  62.008  1.00  0.00     0.032 A 
HETATM   14  C   UNL     1       5.970  32.552  62.171  1.00  0.00     0.066 A 
HETATM   15  C   UNL     1       5.382  32.907  63.394  1.00  0.00     0.070 A 
HETATM   16  C   UNL     1       6.196  33.193  64.486  1.00  0.00     0.037 A 
HETATM   17  C   UNL     1       7.576  33.101  64.366  1.00  0.00     0.005 A 
HETATM   18  C   UNL     1       8.147  32.734  63.143  1.00  0.00     0.029 A 
BRANCH  15  19
HETATM   19  O   UNL     1       4.041  33.021  63.639  1.00  0.00    -0.356 OA
HETATM   20  C   UNL     1       3.555  34.316  63.967  1.00  0.00     0.210 C 
ENDBRANCH  15  19
ENDBRANCH  10  13
ENDBRANCH   7   8
ENDBRANCH   1   7
BRANCH   3  21
HETATM   21  C   UNL     1       6.980  26.498  55.295  1.00  0.00     0.162 C 
BRANCH  21  22
HETATM   22  C   UNL     1       7.410  25.056  55.339  1.00  0.00    -0.040 A 
HETATM   23  C   UNL     1       7.387  24.261  54.183  1.00  0.00     0.021 A 
HETATM   24  C   UNL     1       7.757  22.906  54.225  1.00  0.00    -0.025 A 
HETATM   25  C   UNL     1       8.164  22.334  55.452  1.00  0.00    -0.026 A 
HETATM   26  C   UNL     1       7.727  22.102  53.073  1.00  0.00     0.012 A 
HETATM   27  C   UNL     1       8.188  23.133  56.605  1.00  0.00     0.013 A 
HETATM   28  C   UNL     1       8.529  20.979  55.494  1.00  0.00     0.012 A 
HETATM   29  C   UNL     1       7.811  24.476  56.550  1.00  0.00     0.010 A 
HETATM   30  C   UNL     1       8.492  20.194  54.341  1.00  0.00     0.001 A 
HETATM   31  C   UNL     1       8.091  20.755  53.132  1.00  0.00     0.001 A 
ENDBRANCH  21  22
ENDBRANCH   3  21
TORSDOF 6
ENDMDL
MODEL 2
REMARK VINA RESULT:     -10.8      0.735      1.409
REMARK  6 active torsions:
REMARK  status: ('A' for Active; 'I' for Inactive)
REMARK    1  A    between atoms: O_2  and  C_3 
REMARK    2  A    between atoms: C_5  and  N_6 
REMARK    3  A    between atoms: C_8  and  C_9 
REMARK    4  A    between atoms: C_9  and  N_10 
REMARK       I    between atoms: N_10  and  C_11 
REMARK       I    between atoms: C_11  and  N_12 
REMARK    5  A    between atoms: N_12  and  C_13 
REMARK    6  A    between atoms: C_13  and  C_14 
ROOT
HETATM    1  N   UNL     1       8.057  28.476  57.365  1.00  0.00    -0.343 N 
HETATM    2  C   UNL     1       6.948  27.858  56.854  1.00  0.00     0.316 C 
HETATM    3  N   UNL     1       7.282  27.001  55.841  1.00  0.00    -0.339 N 
HETATM    4  O   UNL     1       5.813  28.016  57.280  1.00  0.00    -0.248 OA
HETATM    5  H   UNL     1       8.950  28.068  57.129  1.00  0.00     0.164 HD
HETATM    6  H   UNL     1       8.093  27.250  55.297  1.00  0.00     0.164 HD
ENDROOT
BRANCH   1   7
HETATM    7  C   UNL     1       7.994  29.293  58.563  1.00  0.00     0.130 C 
BRANCH   7   8
HETATM    8  C   UNL     1       8.074  30.802  58.274  1.00  0.00     0.023 C 
HETATM    9  C   UNL     1       7.171  31.626  59.198  1.00  0.00     0.129 C 
HETATM   10  N   UNL     1       7.991  31.854  60.387  1.00  0.00    -0.380 N 
HETATM   11  C   UNL     1       9.406  31.615  60.110  1.00  0.00     0.123 C 
HETATM   12  C   UNL     1       9.457  31.365  58.602  1.00  0.00     0.028 C 
BRANCH  10  13
HETATM   13  C   UNL     1       7.487  32.210  61.618  1.00  0.00     0.032 A 
HETATM   14  C   UNL     1       6.103  32.347  61.842  1.00  0.00     0.066 A 
HETATM   15  C   UNL     1       5.582  32.731  63.085  1.00  0.00     0.070 A 
HETATM   16  C   UNL     1       6.452  32.999  64.138  1.00  0.00     0.037 A 
HETATM   17  C   UNL     1       7.822  32.861  63.959  1.00  0.00     0.005 A 
HETATM   18  C   UNL     1       8.326  32.465  62.715  1.00  0.00     0.029 A 
BRANCH  15  19
HETATM   19  O   UNL     1       4.257  32.891  63.388  1.00  0.00    -0.356 OA
HETATM   20  C   UNL     1       3.880  34.120  63.995  1.00  0.00     0.210 C 
ENDBRANCH  15  19
ENDBRANCH  10  13
ENDBRANCH   7   8
ENDBRANCH   1   7
BRANCH   3  21
HETATM   21  C   UNL     1       6.253  26.250  55.158  1.00  0.00     0.162 C 
BRANCH  21  22
HETATM   22  C   UNL     1       6.801  24.960  54.606  1.00  0.00    -0.040 A 
HETATM   23  C   UNL     1       6.994  23.846  55.436  1.00  0.00     0.021 A 
HETATM   24  C   UNL     1       7.534  22.649  54.934  1.00  0.00    -0.025 A 
HETATM   25  C   UNL     1       7.886  22.566  53.567  1.00  0.00    -0.026 A 
HETATM   26  C   UNL     1       7.739  21.533  55.761  1.00  0.00     0.012 A 
HETATM   27  C   UNL     1       7.689  23.682  52.740  1.00  0.00     0.013 A 
HETATM   28  C   UNL     1       8.430  21.373  53.067  1.00  0.00     0.012 A 
HETATM   29  C   UNL     1       7.158  24.866  53.255  1.00  0.00     0.010 A 
HETATM   30  C   UNL     1       8.629  20.273  53.903  1.00  0.00     0.001 A 
HETATM   31  C   UNL     1       8.284  20.354  55.248  1.00  0.00     0.001 A 
ENDBRANCH  21  22
ENDBRANCH   3  21
TORSDOF 6
ENDMDL
MODEL 3
REMARK VINA RESULT:     -10.4      2.021     11.651
REMARK  6 active torsions:
REMARK  status: ('A' for Active; 'I' for Inactive)
REMARK    1  A    between atoms: O_2  and  C_3 
REMARK    2  A    between atoms: C_5  and  N_6 
REMARK    3  A    between atoms: C_8  and  C_9 
REMARK    4  A    between atoms: C_9  and  N_10 
REMARK       I    between atoms: N_10  and  C_11 
REMARK       I    between atoms: C_11  and  N_12 
REMARK    5  A    between atoms: N_12  and  C_13 
REMARK    6  A    between atoms: C_13  and  C_14 
ROOT
HETATM    1  N   UNL     1       7.930  29.253  58.824  1.00  0.00    -0.343 N 
HETATM    2  C   UNL     1       8.470  30.360  59.420  1.00  0.00     0.316 C 
HETATM    3  N   UNL     1       8.274  30.338  60.774  1.00  0.00    -0.339 N 
HETATM    4  O   UNL     1       9.087  31.231  58.824  1.00  0.00    -0.248 OA
HETATM    5  H   UNL     1       7.695  28.482  59.432  1.00  0.00     0.164 HD
HETATM    6  H   UNL     1       7.440  29.871  61.095  1.00  0.00     0.164 HD
ENDROOT
BRANCH   1   7
HETATM    7  C   UNL     1       8.159  28.950  57.422  1.00  0.00     0.130 C 
BRANCH   7   8
HETATM    8  C   UNL     1       6.886  29.045  56.564  1.00  0.00     0.023 C 
HETATM    9  C   UNL     1       7.053  28.387  55.190  1.00  0.00     0.129 C 
HETATM   10  N   UNL     1       6.736  26.979  55.429  1.00  0.00    -0.380 N 
HETATM   11  C   UNL     1       6.008  26.804  56.684  1.00  0.00     0.123 C 
HETATM   12  C   UNL     1       5.740  28.231  57.166  1.00  0.00     0.028 C 
BRANCH  10  13
HETATM   13  C   UNL     1       7.110  25.949  54.596  1.00  0.00     0.032 A 
HETATM   14  C   UNL     1       7.051  24.603  55.007  1.00  0.00     0.066 A 
HETATM   15  C   UNL     1       7.452  23.549  54.174  1.00  0.00     0.070 A 
HETATM   16  C   UNL     1       7.937  23.831  52.900  1.00  0.00     0.037 A 
HETATM   17  C   UNL     1       7.996  25.145  52.455  1.00  0.00     0.005 A 
HETATM   18  C   UNL     1       7.581  26.184  53.294  1.00  0.00     0.029 A 
BRANCH  15  19
HETATM   19  O   UNL     1       7.431  22.218  54.493  1.00  0.00    -0.356 OA
HETATM   20  C   UNL     1       8.082  21.332  53.593  1.00  0.00     0.210 C 
ENDBRANCH  15  19
ENDBRANCH  10  13
ENDBRANCH   7   8
ENDBRANCH   1   7
BRANCH   3  21
HETATM   21  C   UNL     1       8.763  31.423  61.594  1.00  0.00     0.162 C 
BRANCH  21  22
HETATM   22  C   UNL     1       7.658  32.004  62.436  1.00  0.00    -0.040 A 
HETATM   23  C   UNL     1       7.938  32.630  63.660  1.00  0.00     0.021 A 
HETATM   24  C   UNL     1       6.907  33.146  64.466  1.00  0.00    -0.025 A 
HETATM   25  C   UNL     1       5.566  33.036  64.033  1.00  0.00    -0.026 A 
HETATM   26  C   UNL     1       7.180  33.766  65.696  1.00  0.00     0.012 A 
HETATM   27  C   UNL     1       5.291  32.411  62.808  1.00  0.00     0.013 A 
HETATM   28  C   UNL     1       4.538  33.547  64.840  1.00  0.00     0.012 A 
HETATM   29  C   UNL     1       6.323  31.897  62.022  1.00  0.00     0.010 A 
HETATM   30  C   UNL     1       4.825  34.158  66.061  1.00  0.00     0.001 A 
HETATM   31  C   UNL     1       6.145  34.267  66.488  1.00  0.00     0.001 A 
ENDBRANCH  21  22
ENDBRANCH   3  21
TORSDOF 6
ENDMDL
MODEL 4
REMARK VINA RESULT:     -10.2      2.066     11.417
REMARK  6 active torsions:
REMARK  status: ('A' for Active; 'I' for Inactive)
REMARK    1  A    between atoms: O_2  and  C_3 
REMARK    2  A    between atoms: C_5  and  N_6 
REMARK    3  A    between atoms: C_8  and  C_9 
REMARK    4  A    between atoms: C_9  and  N_10 
REMARK       I    between atoms: N_10  and  C_11 
REMARK       I    between atoms: C_11  and  N_12 
REMARK    5  A    between atoms: N_12  and  C_13 
REMARK    6  A    between atoms: C_13  and  C_14 
ROOT
HETATM    1  N   UNL     1       6.772  29.369  56.625  1.00  0.00    -0.343 N 
HETATM    2  C   UNL     1       7.453  29.291  57.809  1.00  0.00     0.316 C 
HETATM    3  N   UNL     1       7.714  30.536  58.313  1.00  0.00    -0.339 N 
HETATM    4  O   UNL     1       7.748  28.243  58.366  1.00  0.00    -0.248 OA
HETATM    5  H   UNL     1       6.347  30.258  56.406  1.00  0.00     0.164 HD
HETATM    6  H   UNL     1       7.837  31.272  57.636  1.00  0.00     0.164 HD
ENDROOT
BRANCH   1   7
HETATM    7  C   UNL     1       6.220  28.191  55.980  1.00  0.00     0.130 C 
BRANCH   7   8
HETATM    8  C   UNL     1       6.496  28.140  54.468  1.00  0.00     0.023 C 
HETATM    9  C   UNL     1       7.526  27.069  54.093  1.00  0.00     0.129 C 
HETATM   10  N   UNL     1       6.733  25.848  53.947  1.00  0.00    -0.380 N 
HETATM   11  C   UNL     1       5.313  26.153  53.788  1.00  0.00     0.123 C 
HETATM   12  C   UNL     1       5.265  27.679  53.687  1.00  0.00     0.028 C 
BRANCH  10  13
HETATM   13  C   UNL     1       7.257  24.575  53.991  1.00  0.00     0.032 A 
HETATM   14  C   UNL     1       7.689  23.994  55.199  1.00  0.00     0.066 A 
HETATM   15  C   UNL     1       8.245  22.707  55.251  1.00  0.00     0.070 A 
HETATM   16  C   UNL     1       8.389  21.976  54.075  1.00  0.00     0.037 A 
HETATM   17  C   UNL     1       7.961  22.512  52.868  1.00  0.00     0.005 A 
HETATM   18  C   UNL     1       7.397  23.792  52.834  1.00  0.00     0.029 A 
BRANCH  15  19
HETATM   19  O   UNL     1       8.692  22.069  56.376  1.00  0.00    -0.356 OA
HETATM   20  C   UNL     1       8.244  20.736  56.579  1.00  0.00     0.210 C 
ENDBRANCH  15  19
ENDBRANCH  10  13
ENDBRANCH   7   8
ENDBRANCH   1   7
BRANCH   3  21
HETATM   21  C   UNL     1       8.434  30.678  59.558  1.00  0.00     0.162 C 
BRANCH  21  22
HETATM   22  C   UNL     1       7.726  31.630  60.485  1.00  0.00    -0.040 A 
HETATM   23  C   UNL     1       8.188  31.839  61.793  1.00  0.00     0.021 A 
HETATM   24  C   UNL     1       7.513  32.703  62.674  1.00  0.00    -0.025 A 
HETATM   25  C   UNL     1       6.352  33.376  62.233  1.00  0.00    -0.026 A 
HETATM   26  C   UNL     1       7.965  32.909  63.988  1.00  0.00     0.012 A 
HETATM   27  C   UNL     1       5.894  33.166  60.923  1.00  0.00     0.013 A 
HETATM   28  C   UNL     1       5.676  34.235  63.113  1.00  0.00     0.012 A 
HETATM   29  C   UNL     1       6.571  32.301  60.062  1.00  0.00     0.010 A 
HETATM   30  C   UNL     1       6.136  34.427  64.416  1.00  0.00     0.001 A 
HETATM   31  C   UNL     1       7.280  33.765  64.853  1.00  0.00     0.001 A 
ENDBRANCH  21  22
ENDBRANCH   3  21
TORSDOF 6
ENDMDL
MODEL 5
REMARK VINA RESULT:     -10.1      6.698     10.301
REMARK  6 active torsions:
REMARK  status: ('A' for Active; 'I' for Inactive)
REMARK    1  A    between atoms: O_2  and  C_3 
REMARK    2  A    between atoms: C_5  and  N_6 
REMARK    3  A    between atoms: C_8  and  C_9 
REMARK    4  A    between atoms: C_9  and  N_10 
REMARK       I    between atoms: N_10  and  C_11 
REMARK       I    between atoms: C_11  and  N_12 
REMARK    5  A    between atoms: N_12  and  C_13 
REMARK    6  A    between atoms: C_13  and  C_14 
ROOT
HETATM    1  N   UNL     1       3.845  27.855  53.669  1.00  0.00    -0.343 N 
HETATM    2  C   UNL     1       4.913  27.564  54.474  1.00  0.00     0.316 C 
HETATM    3  N   UNL     1       5.067  26.213  54.623  1.00  0.00    -0.339 N 
HETATM    4  O   UNL     1       5.659  28.403  54.959  1.00  0.00    -0.248 OA
HETATM    5  H   UNL     1       3.480  27.097  53.113  1.00  0.00     0.164 HD
HETATM    6  H   UNL     1       4.224  25.662  54.578  1.00  0.00     0.164 HD
ENDROOT
BRANCH   1   7
HETATM    7  C   UNL     1       3.579  29.207  53.211  1.00  0.00     0.130 C 
BRANCH   7   8
HETATM    8  C   UNL     1       4.568  29.690  52.136  1.00  0.00     0.023 C 
HETATM    9  C   UNL     1       4.804  28.645  51.040  1.00  0.00     0.129 C 
HETATM   10  N   UNL     1       3.720  28.879  50.087  1.00  0.00    -0.380 N 
HETATM   11  C   UNL     1       3.117  30.196  50.280  1.00  0.00     0.123 C 
HETATM   12  C   UNL     1       4.001  30.863  51.336  1.00  0.00     0.028 C 
BRANCH  10  13
HETATM   13  C   UNL     1       3.298  27.959  49.153  1.00  0.00     0.032 A 
HETATM   14  C   UNL     1       1.989  27.978  48.633  1.00  0.00     0.066 A 
HETATM   15  C   UNL     1       1.543  27.031  47.699  1.00  0.00     0.070 A 
HETATM   16  C   UNL     1       2.411  26.029  47.274  1.00  0.00     0.037 A 
HETATM   17  C   UNL     1       3.712  25.988  47.755  1.00  0.00     0.005 A 
HETATM   18  C   UNL     1       4.146  26.947  48.677  1.00  0.00     0.029 A 
BRANCH  15  19
HETATM   19  O   UNL     1       0.293  26.974  47.146  1.00  0.00    -0.356 OA
HETATM   20  C   UNL     1      -0.010  27.932  46.141  1.00  0.00     0.210 C 
ENDBRANCH  15  19
ENDBRANCH  10  13
ENDBRANCH   7   8
ENDBRANCH   1   7
BRANCH   3  21
HETATM   21  C   UNL     1       6.136  25.691  55.444  1.00  0.00     0.162 C 
BRANCH  21  22
HETATM   22  C   UNL     1       6.714  24.437  54.844  1.00  0.00    -0.040 A 
HETATM   23  C   UNL     1       7.117  23.368  55.659  1.00  0.00     0.021 A 
HETATM   24  C   UNL     1       7.687  22.207  55.107  1.00  0.00    -0.025 A 
HETATM   25  C   UNL     1       7.854  22.113  53.707  1.00  0.00    -0.026 A 
HETATM   26  C   UNL     1       8.100  21.137  55.917  1.00  0.00     0.012 A 
HETATM   27  C   UNL     1       7.448  23.184  52.895  1.00  0.00     0.013 A 
HETATM   28  C   UNL     1       8.427  20.956  53.156  1.00  0.00     0.012 A 
HETATM   29  C   UNL     1       6.889  24.333  53.458  1.00  0.00     0.010 A 
HETATM   30  C   UNL     1       8.835  19.903  53.976  1.00  0.00     0.001 A 
HETATM   31  C   UNL     1       8.671  19.994  55.355  1.00  0.00     0.001 A 
ENDBRANCH  21  22
ENDBRANCH   3  21
TORSDOF 6
ENDMDL
MODEL 6
REMARK VINA RESULT:     -10.0      3.073      4.439
REMARK  6 active torsions:
REMARK  status: ('A' for Active; 'I' for Inactive)
REMARK    1  A    between atoms: O_2  and  C_3 
REMARK    2  A    between atoms: C_5  and  N_6 
REMARK    3  A    between atoms: C_8  and  C_9 
REMARK    4  A    between atoms: C_9  and  N_10 
REMARK       I    between atoms: N_10  and  C_11 
REMARK       I    between atoms: C_11  and  N_12 
REMARK    5  A    between atoms: N_12  and  C_13 
REMARK    6  A    between atoms: C_13  and  C_14 
ROOT
HETATM    1  N   UNL     1       5.867  29.318  54.909  1.00  0.00    -0.343 N 
HETATM    2  C   UNL     1       5.960  28.363  53.934  1.00  0.00     0.316 C 
HETATM    3  N   UNL     1       7.121  27.649  54.049  1.00  0.00    -0.339 N 
HETATM    4  O   UNL     1       5.095  28.146  53.097  1.00  0.00    -0.248 OA
HETATM    5  H   UNL     1       6.493  29.223  55.695  1.00  0.00     0.164 HD
HETATM    6  H   UNL     1       7.910  28.143  54.435  1.00  0.00     0.164 HD
ENDROOT
BRANCH   1   7
HETATM    7  C   UNL     1       4.652  30.086  55.115  1.00  0.00     0.130 C 
BRANCH   7   8
HETATM    8  C   UNL     1       4.130  30.022  56.560  1.00  0.00     0.023 C 
HETATM    9  C   UNL     1       5.241  29.740  57.576  1.00  0.00     0.129 C 
HETATM   10  N   UNL     1       5.791  31.061  57.878  1.00  0.00    -0.380 N 
HETATM   11  C   UNL     1       4.871  32.123  57.477  1.00  0.00     0.123 C 
HETATM   12  C   UNL     1       3.610  31.381  57.031  1.00  0.00     0.028 C 
BRANCH  10  13
HETATM   13  C   UNL     1       7.033  31.275  58.434  1.00  0.00     0.032 A 
HETATM   14  C   UNL     1       8.201  30.722  57.874  1.00  0.00     0.066 A 
HETATM   15  C   UNL     1       9.466  30.915  58.446  1.00  0.00     0.070 A 
HETATM   16  C   UNL     1       9.583  31.666  59.612  1.00  0.00     0.037 A 
HETATM   17  C   UNL     1       8.454  32.238  60.185  1.00  0.00     0.005 A 
HETATM   18  C   UNL     1       7.200  32.046  59.595  1.00  0.00     0.029 A 
BRANCH  15  19
HETATM   19  O   UNL     1      10.648  30.414  57.972  1.00  0.00    -0.356 OA
HETATM   20  C   UNL     1      10.598  29.705  56.741  1.00  0.00     0.210 C 
ENDBRANCH  15  19
ENDBRANCH  10  13
ENDBRANCH   7   8
ENDBRANCH   1   7
BRANCH   3  21
HETATM   21  C   UNL     1       7.419  26.592  53.109  1.00  0.00     0.162 C 
BRANCH  21  22
HETATM   22  C   UNL     1       7.559  25.268  53.811  1.00  0.00    -0.040 A 
HETATM   23  C   UNL     1       7.771  24.086  53.085  1.00  0.00     0.021 A 
HETATM   24  C   UNL     1       7.871  22.842  53.733  1.00  0.00    -0.025 A 
HETATM   25  C   UNL     1       7.761  22.782  55.141  1.00  0.00    -0.026 A 
HETATM   26  C   UNL     1       8.073  21.654  53.012  1.00  0.00     0.012 A 
HETATM   27  C   UNL     1       7.552  23.966  55.863  1.00  0.00     0.013 A 
HETATM   28  C   UNL     1       7.857  21.539  55.787  1.00  0.00     0.012 A 
HETATM   29  C   UNL     1       7.448  25.193  55.206  1.00  0.00     0.010 A 
HETATM   30  C   UNL     1       8.055  20.368  55.056  1.00  0.00     0.001 A 
HETATM   31  C   UNL     1       8.163  20.426  53.669  1.00  0.00     0.001 A 
ENDBRANCH  21  22
ENDBRANCH   3  21
TORSDOF 6
ENDMDL
MODEL 7
REMARK VINA RESULT:     -10.0      1.587      2.482
REMARK  6 active torsions:
REMARK  status: ('A' for Active; 'I' for Inactive)
REMARK    1  A    between atoms: O_2  and  C_3 
REMARK    2  A    between atoms: C_5  and  N_6 
REMARK    3  A    between atoms: C_8  and  C_9 
REMARK    4  A    between atoms: C_9  and  N_10 
REMARK       I    between atoms: N_10  and  C_11 
REMARK       I    between atoms: C_11  and  N_12 
REMARK    5  A    between atoms: N_12  and  C_13 
REMARK    6  A    between atoms: C_13  and  C_14 
ROOT
HETATM    1  N   UNL     1       8.193  29.680  58.222  1.00  0.00    -0.343 N 
HETATM    2  C   UNL     1       7.377  29.589  57.127  1.00  0.00     0.316 C 
HETATM    3  N   UNL     1       7.808  28.615  56.268  1.00  0.00    -0.339 N 
HETATM    4  O   UNL     1       6.368  30.259  56.962  1.00  0.00    -0.248 OA
HETATM    5  H   UNL     1       8.820  28.906  58.383  1.00  0.00     0.164 HD
HETATM    6  H   UNL     1       8.802  28.446  56.250  1.00  0.00     0.164 HD
ENDROOT
BRANCH   1   7
HETATM    7  C   UNL     1       7.852  30.510  59.363  1.00  0.00     0.130 C 
BRANCH   7   8
HETATM    8  C   UNL     1       9.080  31.114  60.065  1.00  0.00     0.023 C 
HETATM    9  C   UNL     1       8.781  32.471  60.710  1.00  0.00     0.129 C 
HETATM   10  N   UNL     1       8.249  32.129  62.029  1.00  0.00    -0.380 N 
HETATM   11  C   UNL     1       8.581  30.753  62.395  1.00  0.00     0.123 C 
HETATM   12  C   UNL     1       9.506  30.278  61.273  1.00  0.00     0.028 C 
BRANCH  10  13
HETATM   13  C   UNL     1       7.500  32.983  62.807  1.00  0.00     0.032 A 
HETATM   14  C   UNL     1       7.616  33.001  64.211  1.00  0.00     0.066 A 
HETATM   15  C   UNL     1       6.841  33.851  65.013  1.00  0.00     0.070 A 
HETATM   16  C   UNL     1       5.915  34.700  64.414  1.00  0.00     0.037 A 
HETATM   17  C   UNL     1       5.783  34.719  63.032  1.00  0.00     0.005 A 
HETATM   18  C   UNL     1       6.572  33.874  62.245  1.00  0.00     0.029 A 
BRANCH  15  19
HETATM   19  O   UNL     1       6.887  33.932  66.378  1.00  0.00    -0.356 OA
HETATM   20  C   UNL     1       5.719  34.409  67.033  1.00  0.00     0.210 C 
ENDBRANCH  15  19
ENDBRANCH  10  13
ENDBRANCH   7   8
ENDBRANCH   1   7
BRANCH   3  21
HETATM   21  C   UNL     1       7.088  28.360  55.041  1.00  0.00     0.162 C 
BRANCH  21  22
HETATM   22  C   UNL     1       7.324  26.953  54.560  1.00  0.00    -0.040 A 
HETATM   23  C   UNL     1       7.266  25.868  55.447  1.00  0.00     0.021 A 
HETATM   24  C   UNL     1       7.516  24.556  55.010  1.00  0.00    -0.025 A 
HETATM   25  C   UNL     1       7.826  24.324  53.650  1.00  0.00    -0.026 A 
HETATM   26  C   UNL     1       7.469  23.466  55.895  1.00  0.00     0.012 A 
HETATM   27  C   UNL     1       7.880  25.411  52.765  1.00  0.00     0.013 A 
HETATM   28  C   UNL     1       8.080  23.014  53.214  1.00  0.00     0.012 A 
HETATM   29  C   UNL     1       7.636  26.710  53.215  1.00  0.00     0.010 A 
HETATM   30  C   UNL     1       8.032  21.943  54.107  1.00  0.00     0.001 A 
HETATM   31  C   UNL     1       7.727  22.169  55.446  1.00  0.00     0.001 A 
ENDBRANCH  21  22
ENDBRANCH   3  21
TORSDOF 6
ENDMDL
MODEL 8
REMARK VINA RESULT:      -9.7      7.688     11.822
REMARK  6 active torsions:
REMARK  status: ('A' for Active; 'I' for Inactive)
REMARK    1  A    between atoms: O_2  and  C_3 
REMARK    2  A    between atoms: C_5  and  N_6 
REMARK    3  A    between atoms: C_8  and  C_9 
REMARK    4  A    between atoms: C_9  and  N_10 
REMARK       I    between atoms: N_10  and  C_11 
REMARK       I    between atoms: C_11  and  N_12 
REMARK    5  A    between atoms: N_12  and  C_13 
REMARK    6  A    between atoms: C_13  and  C_14 
ROOT
HETATM    1  N   UNL     1       5.389  26.023  50.058  1.00  0.00    -0.343 N 
HETATM    2  C   UNL     1       5.632  26.313  51.373  1.00  0.00     0.316 C 
HETATM    3  N   UNL     1       6.907  25.965  51.729  1.00  0.00    -0.339 N 
HETATM    4  O   UNL     1       4.830  26.856  52.119  1.00  0.00    -0.248 OA
HETATM    5  H   UNL     1       6.195  25.838  49.480  1.00  0.00     0.164 HD
HETATM    6  H   UNL     1       7.306  25.180  51.238  1.00  0.00     0.164 HD
ENDROOT
BRANCH   1   7
HETATM    7  C   UNL     1       4.175  26.459  49.391  1.00  0.00     0.130 C 
BRANCH   7   8
HETATM    8  C   UNL     1       4.325  26.560  47.864  1.00  0.00     0.023 C 
HETATM    9  C   UNL     1       2.985  26.790  47.155  1.00  0.00     0.129 C 
HETATM   10  N   UNL     1       2.808  28.242  47.191  1.00  0.00    -0.380 N 
HETATM   11  C   UNL     1       4.070  28.924  47.469  1.00  0.00     0.123 C 
HETATM   12  C   UNL     1       5.113  27.805  47.456  1.00  0.00     0.028 C 
BRANCH  10  13
HETATM   13  C   UNL     1       1.599  28.878  47.023  1.00  0.00     0.032 A 
HETATM   14  C   UNL     1       0.591  28.348  46.193  1.00  0.00     0.066 A 
HETATM   15  C   UNL     1      -0.635  29.001  45.997  1.00  0.00     0.070 A 
HETATM   16  C   UNL     1      -0.870  30.219  46.630  1.00  0.00     0.037 A 
HETATM   17  C   UNL     1       0.095  30.764  47.465  1.00  0.00     0.005 A 
HETATM   18  C   UNL     1       1.308  30.095  47.660  1.00  0.00     0.029 A 
BRANCH  15  19
HETATM   19  O   UNL     1      -1.664  28.561  45.210  1.00  0.00    -0.356 OA
HETATM   20  C   UNL     1      -1.583  28.858  43.822  1.00  0.00     0.210 C 
ENDBRANCH  15  19
ENDBRANCH  10  13
ENDBRANCH   7   8
ENDBRANCH   1   7
BRANCH   3  21
HETATM   21  C   UNL     1       7.367  26.182  53.082  1.00  0.00     0.162 C 
BRANCH  21  22
HETATM   22  C   UNL     1       7.536  24.876  53.811  1.00  0.00    -0.040 A 
HETATM   23  C   UNL     1       7.938  23.717  53.131  1.00  0.00     0.021 A 
HETATM   24  C   UNL     1       8.067  22.487  53.800  1.00  0.00    -0.025 A 
HETATM   25  C   UNL     1       7.790  22.418  55.185  1.00  0.00    -0.026 A 
HETATM   26  C   UNL     1       8.461  21.322  53.123  1.00  0.00     0.012 A 
HETATM   27  C   UNL     1       7.390  23.580  55.862  1.00  0.00     0.013 A 
HETATM   28  C   UNL     1       7.914  21.190  55.852  1.00  0.00     0.012 A 
HETATM   29  C   UNL     1       7.260  24.792  55.183  1.00  0.00     0.010 A 
HETATM   30  C   UNL     1       8.305  20.040  55.164  1.00  0.00     0.001 A 
HETATM   31  C   UNL     1       8.577  20.106  53.801  1.00  0.00     0.001 A 
ENDBRANCH  21  22
ENDBRANCH   3  21
TORSDOF 6
ENDMDL
MODEL 9
REMARK VINA RESULT:      -9.4      2.380      3.439
REMARK  6 active torsions:
REMARK  status: ('A' for Active; 'I' for Inactive)
REMARK    1  A    between atoms: O_2  and  C_3 
REMARK    2  A    between atoms: C_5  and  N_6 
REMARK    3  A    between atoms: C_8  and  C_9 
REMARK    4  A    between atoms: C_9  and  N_10 
REMARK       I    between atoms: N_10  and  C_11 
REMARK       I    between atoms: C_11  and  N_12 
REMARK    5  A    between atoms: N_12  and  C_13 
REMARK    6  A    between atoms: C_13  and  C_14 
ROOT
HETATM    1  N   UNL     1       4.041  29.230  56.115  1.00  0.00    -0.343 N 
HETATM    2  C   UNL     1       4.856  28.332  56.749  1.00  0.00     0.316 C 
HETATM    3  N   UNL     1       4.485  27.045  56.471  1.00  0.00    -0.339 N 
HETATM    4  O   UNL     1       5.819  28.641  57.436  1.00  0.00    -0.248 OA
HETATM    5  H   UNL     1       3.466  28.869  55.368  1.00  0.00     0.164 HD
HETATM    6  H   UNL     1       3.504  26.893  56.295  1.00  0.00     0.164 HD
ENDROOT
BRANCH   1   7
HETATM    7  C   UNL     1       4.333  30.652  56.102  1.00  0.00     0.130 C 
BRANCH   7   8
HETATM    8  C   UNL     1       3.509  31.451  57.125  1.00  0.00     0.023 C 
HETATM    9  C   UNL     1       4.051  31.319  58.552  1.00  0.00     0.129 C 
HETATM   10  N   UNL     1       5.082  32.354  58.638  1.00  0.00    -0.380 N 
HETATM   11  C   UNL     1       4.928  33.345  57.576  1.00  0.00     0.123 C 
HETATM   12  C   UNL     1       3.620  32.957  56.885  1.00  0.00     0.028 C 
BRANCH  10  13
HETATM   13  C   UNL     1       6.088  32.367  59.578  1.00  0.00     0.032 A 
HETATM   14  C   UNL     1       5.900  32.924  60.858  1.00  0.00     0.066 A 
HETATM   15  C   UNL     1       6.926  32.963  61.813  1.00  0.00     0.070 A 
HETATM   16  C   UNL     1       8.179  32.448  61.492  1.00  0.00     0.037 A 
HETATM   17  C   UNL     1       8.397  31.879  60.245  1.00  0.00     0.005 A 
HETATM   18  C   UNL     1       7.360  31.837  59.307  1.00  0.00     0.029 A 
BRANCH  15  19
HETATM   19  O   UNL     1       6.831  33.485  63.074  1.00  0.00    -0.356 OA
HETATM   20  C   UNL     1       7.749  32.996  64.043  1.00  0.00     0.210 C 
ENDBRANCH  15  19
ENDBRANCH  10  13
ENDBRANCH   7   8
ENDBRANCH   1   7
BRANCH   3  21
HETATM   21  C   UNL     1       5.214  25.939  57.049  1.00  0.00     0.162 C 
BRANCH  21  22
HETATM   22  C   UNL     1       5.862  25.101  55.979  1.00  0.00    -0.040 A 
HETATM   23  C   UNL     1       6.863  24.172  56.300  1.00  0.00     0.021 A 
HETATM   24  C   UNL     1       7.493  23.408  55.301  1.00  0.00    -0.025 A 
HETATM   25  C   UNL     1       7.110  23.577  53.951  1.00  0.00    -0.026 A 
HETATM   26  C   UNL     1       8.503  22.483  55.614  1.00  0.00     0.012 A 
HETATM   27  C   UNL     1       6.107  24.506  53.636  1.00  0.00     0.013 A 
HETATM   28  C   UNL     1       7.742  22.819  52.955  1.00  0.00     0.012 A 
HETATM   29  C   UNL     1       5.494  25.261  54.637  1.00  0.00     0.010 A 
HETATM   30  C   UNL     1       8.745  21.905  53.282  1.00  0.00     0.001 A 
HETATM   31  C   UNL     1       9.125  21.738  54.610  1.00  0.00     0.001 A 
ENDBRANCH  21  22
ENDBRANCH   3  21
TORSDOF 6
ENDMDL
MODEL 10
REMARK VINA RESULT:      -9.4      7.341     11.431
REMARK  6 active torsions:
REMARK  status: ('A' for Active; 'I' for Inactive)
REMARK    1  A    between atoms: O_2  and  C_3 
REMARK    2  A    between atoms: C_5  and  N_6 
REMARK    3  A    between atoms: C_8  and  C_9 
REMARK    4  A    between atoms: C_9  and  N_10 
REMARK       I    between atoms: N_10  and  C_11 
REMARK       I    between atoms: C_11  and  N_12 
REMARK    5  A    between atoms: N_12  and  C_13 
REMARK    6  A    between atoms: C_13  and  C_14 
ROOT
HETATM    1  N   UNL     1       4.064  27.477  51.742  1.00  0.00    -0.343 N 
HETATM    2  C   UNL     1       5.195  27.382  52.508  1.00  0.00     0.316 C 
HETATM    3  N   UNL     1       5.067  26.409  53.461  1.00  0.00    -0.339 N 
HETATM    4  O   UNL     1       6.204  28.049  52.331  1.00  0.00    -0.248 OA
HETATM    5  H   UNL     1       3.416  26.705  51.797  1.00  0.00     0.164 HD
HETATM    6  H   UNL     1       4.134  26.244  53.805  1.00  0.00     0.164 HD
ENDROOT
BRANCH   1   7
HETATM    7  C   UNL     1       4.014  28.306  50.552  1.00  0.00     0.130 C 
BRANCH   7   8
HETATM    8  C   UNL     1       4.358  27.541  49.263  1.00  0.00     0.023 C 
HETATM    9  C   UNL     1       3.110  27.075  48.504  1.00  0.00     0.129 C 
HETATM   10  N   UNL     1       2.748  28.225  47.674  1.00  0.00    -0.380 N 
HETATM   11  C   UNL     1       3.864  29.159  47.547  1.00  0.00     0.123 C 
HETATM   12  C   UNL     1       5.032  28.448  48.232  1.00  0.00     0.028 C 
BRANCH  10  13
HETATM   13  C   UNL     1       1.503  28.417  47.119  1.00  0.00     0.032 A 
HETATM   14  C   UNL     1       0.852  29.665  47.172  1.00  0.00     0.066 A 
HETATM   15  C   UNL     1      -0.425  29.864  46.629  1.00  0.00     0.070 A 
HETATM   16  C   UNL     1      -1.086  28.798  46.026  1.00  0.00     0.037 A 
HETATM   17  C   UNL     1      -0.469  27.557  45.942  1.00  0.00     0.005 A 
HETATM   18  C   UNL     1       0.811  27.377  46.478  1.00  0.00     0.029 A 
BRANCH  15  19
HETATM   19  O   UNL     1      -1.129  31.038  46.639  1.00  0.00    -0.356 OA
HETATM   20  C   UNL     1      -0.963  31.877  47.775  1.00  0.00     0.210 C 
ENDBRANCH  15  19
ENDBRANCH  10  13
ENDBRANCH   7   8
ENDBRANCH   1   7
BRANCH   3  21
HETATM   21  C   UNL     1       6.150  26.151  54.382  1.00  0.00     0.162 C 
BRANCH  21  22
HETATM   22  C   UNL     1       6.776  24.807  54.117  1.00  0.00    -0.040 A 
HETATM   23  C   UNL     1       6.889  23.851  55.137  1.00  0.00     0.021 A 
HETATM   24  C   UNL     1       7.502  22.607  54.904  1.00  0.00    -0.025 A 
HETATM   25  C   UNL     1       8.008  22.313  53.618  1.00  0.00    -0.026 A 
HETATM   26  C   UNL     1       7.627  21.649  55.923  1.00  0.00     0.012 A 
HETATM   27  C   UNL     1       7.891  23.271  52.600  1.00  0.00     0.013 A 
HETATM   28  C   UNL     1       8.623  21.072  53.386  1.00  0.00     0.012 A 
HETATM   29  C   UNL     1       7.286  24.504  52.848  1.00  0.00     0.010 A 
HETATM   30  C   UNL     1       8.742  20.132  54.411  1.00  0.00     0.001 A 
HETATM   31  C   UNL     1       8.244  20.421  55.678  1.00  0.00     0.001 A 
ENDBRANCH  21  22
ENDBRANCH   3  21
TORSDOF 6
ENDMDL
