MODEL 1
REMARK VINA RESULT:     -11.0      0.000      0.000
REMARK  4 active torsions:
REMARK  status: ('A' for Active; 'I' for Inactive)
REMARK    1  A    between atoms: C_5  and  C_6 
REMARK    2  A    between atoms: C_7  and  C_8 
REMARK       I    between atoms: C_8  and  N_9 
REMARK    3  A    between atoms: N_9  and  C_10 
REMARK    4  A    between atoms: C_17  and  C_18 
REMARK       I    between atoms: C_18  and  N_19 
ROOT
HETATM    1  C   UNL     1       6.925  27.264  56.572  1.00  0.00     0.245 C 
HETATM    2  N   UNL     1       8.143  27.888  56.397  1.00  0.00    -0.324 N 
HETATM    3  O   UNL     1       6.039  27.570  57.357  1.00  0.00    -0.268 OA
HETATM    4  H   UNL     1       8.776  27.479  55.722  1.00  0.00     0.169 HD
ENDROOT
BRANCH   2   5
HETATM    5  C   UNL     1       8.646  29.000  57.109  1.00  0.00     0.035 A 
HETATM    6  C   UNL     1       7.866  29.807  57.948  1.00  0.00     0.046 A 
HETATM    7  C   UNL     1       8.467  30.883  58.639  1.00  0.00     0.030 A 
HETATM    8  C   UNL     1       9.825  31.116  58.465  1.00  0.00     0.063 A 
HETATM    9  C   UNL     1       8.033  31.892  59.552  1.00  0.00     0.156 A 
HETATM   10  N   UNL     1      10.113  32.195  59.253  1.00  0.00    -0.277 N 
HETATM   11  C   UNL     1      10.631  30.341  57.630  1.00  0.00     0.034 A 
HETATM   12  H   UNL     1      11.014  32.642  59.377  1.00  0.00     0.189 HD
HETATM   13  N   UNL     1       9.061  32.691  59.923  1.00  0.00    -0.168 NA
HETATM   14  C   UNL     1      10.012  29.281  56.955  1.00  0.00     0.032 A 
BRANCH   9  15
HETATM   15  C   UNL     1       6.677  32.108  60.074  1.00  0.00     0.270 C 
HETATM   16  N   UNL     1       6.476  31.606  61.332  1.00  0.00    -0.365 N 
HETATM   17  H   UNL     1       7.246  31.140  61.796  1.00  0.00     0.159 HD
HETATM   18  H   UNL     1       5.576  31.710  61.772  1.00  0.00     0.159 HD
HETATM   19  O   UNL     1       5.777  32.683  59.471  1.00  0.00    -0.266 OA
ENDBRANCH   9  15
ENDBRANCH   2   5
BRANCH   1  20
HETATM   20  C   UNL     1       6.783  26.074  55.686  1.00  0.00     0.075 C 
HETATM   21  C   UNL     1       7.818  25.231  55.549  1.00  0.00     0.018 C 
BRANCH  21  22
HETATM   22  C   UNL     1       7.790  24.035  54.687  1.00  0.00    -0.025 A 
HETATM   23  C   UNL     1       8.005  22.730  55.216  1.00  0.00    -0.016 A 
HETATM   24  C   UNL     1       8.037  21.629  54.321  1.00  0.00    -0.025 A 
HETATM   25  C   UNL     1       8.187  22.456  56.593  1.00  0.00     0.013 A 
HETATM   26  C   UNL     1       8.258  20.330  54.808  1.00  0.00     0.012 A 
HETATM   27  C   UNL     1       7.852  21.839  52.946  1.00  0.00     0.012 A 
HETATM   28  C   UNL     1       8.444  20.096  56.170  1.00  0.00     0.001 A 
HETATM   29  C   UNL     1       8.406  21.159  57.063  1.00  0.00     0.001 A 
HETATM   30  C   UNL     1       7.644  23.119  52.440  1.00  0.00     0.002 A 
HETATM   31  C   UNL     1       7.620  24.209  53.304  1.00  0.00     0.012 A 
ENDBRANCH  21  22
ENDBRANCH   1  20
TORSDOF 4
ENDMDL
MODEL 2
REMARK VINA RESULT:     -10.7      1.747      2.205
REMARK  4 active torsions:
REMARK  status: ('A' for Active; 'I' for Inactive)
REMARK    1  A    between atoms: C_5  and  C_6 
REMARK    2  A    between atoms: C_7  and  C_8 
REMARK       I    between atoms: C_8  and  N_9 
REMARK    3  A    between atoms: N_9  and  C_10 
REMARK    4  A    between atoms: C_17  and  C_18 
REMARK       I    between atoms: C_18  and  N_19 
ROOT
HETATM    1  C   UNL     1       7.721  26.843  57.353  1.00  0.00     0.245 C 
HETATM    2  N   UNL     1       7.514  28.128  56.895  1.00  0.00    -0.324 N 
HETATM    3  O   UNL     1       7.675  26.449  58.511  1.00  0.00    -0.268 OA
HETATM    4  H   UNL     1       7.625  28.285  55.902  1.00  0.00     0.169 HD
ENDROOT
BRANCH   2   5
HETATM    5  C   UNL     1       7.234  29.278  57.667  1.00  0.00     0.035 A 
HETATM    6  C   UNL     1       7.977  29.662  58.792  1.00  0.00     0.046 A 
HETATM    7  C   UNL     1       7.635  30.845  59.484  1.00  0.00     0.030 A 
HETATM    8  C   UNL     1       6.562  31.601  59.031  1.00  0.00     0.063 A 
HETATM    9  C   UNL     1       8.126  31.550  60.625  1.00  0.00     0.156 A 
HETATM   10  N   UNL     1       6.483  32.668  59.881  1.00  0.00    -0.277 N 
HETATM   11  C   UNL     1       5.794  31.245  57.922  1.00  0.00     0.034 A 
HETATM   12  H   UNL     1       5.817  33.431  59.848  1.00  0.00     0.189 HD
HETATM   13  N   UNL     1       7.407  32.673  60.854  1.00  0.00    -0.168 NA
HETATM   14  C   UNL     1       6.152  30.067  57.253  1.00  0.00     0.032 A 
BRANCH   9  15
HETATM   15  C   UNL     1       9.256  31.182  61.491  1.00  0.00     0.270 C 
HETATM   16  N   UNL     1       9.070  30.018  62.187  1.00  0.00    -0.365 N 
HETATM   17  H   UNL     1       8.202  29.511  62.060  1.00  0.00     0.159 HD
HETATM   18  H   UNL     1       9.794  29.685  62.804  1.00  0.00     0.159 HD
HETATM   19  O   UNL     1      10.290  31.831  61.606  1.00  0.00    -0.266 OA
ENDBRANCH   9  15
ENDBRANCH   2   5
BRANCH   1  20
HETATM   20  C   UNL     1       8.068  25.912  56.244  1.00  0.00     0.075 C 
HETATM   21  C   UNL     1       7.239  24.896  55.956  1.00  0.00     0.018 C 
BRANCH  21  22
HETATM   22  C   UNL     1       7.493  23.908  54.891  1.00  0.00    -0.025 A 
HETATM   23  C   UNL     1       7.916  22.581  55.191  1.00  0.00    -0.016 A 
HETATM   24  C   UNL     1       8.212  21.702  54.117  1.00  0.00    -0.025 A 
HETATM   25  C   UNL     1       8.056  22.075  56.506  1.00  0.00     0.013 A 
HETATM   26  C   UNL     1       8.641  20.390  54.378  1.00  0.00     0.012 A 
HETATM   27  C   UNL     1       8.081  22.146  52.792  1.00  0.00     0.012 A 
HETATM   28  C   UNL     1       8.779  19.926  55.686  1.00  0.00     0.001 A 
HETATM   29  C   UNL     1       8.484  20.768  56.750  1.00  0.00     0.001 A 
HETATM   30  C   UNL     1       7.669  23.445  52.511  1.00  0.00     0.002 A 
HETATM   31  C   UNL     1       7.384  24.321  53.554  1.00  0.00     0.012 A 
ENDBRANCH  21  22
ENDBRANCH   1  20
TORSDOF 4
ENDMDL
MODEL 3
REMARK VINA RESULT:     -10.5      1.856      2.583
REMARK  4 active torsions:
REMARK  status: ('A' for Active; 'I' for Inactive)
REMARK    1  A    between atoms: C_5  and  C_6 
REMARK    2  A    between atoms: C_7  and  C_8 
REMARK       I    between atoms: C_8  and  N_9 
REMARK    3  A    between atoms: N_9  and  C_10 
REMARK    4  A    between atoms: C_17  and  C_18 
REMARK       I    between atoms: C_18  and  N_19 
ROOT
HETATM    1  C   UNL     1       7.398  27.467  54.309  1.00  0.00     0.245 C 
HETATM    2  N   UNL     1       7.040  27.472  55.642  1.00  0.00    -0.324 N 
HETATM    3  O   UNL     1       7.506  28.432  53.564  1.00  0.00    -0.268 OA
HETATM    4  H   UNL     1       6.966  26.574  56.101  1.00  0.00     0.169 HD
ENDROOT
BRANCH   2   5
HETATM    5  C   UNL     1       6.689  28.590  56.431  1.00  0.00     0.035 A 
HETATM    6  C   UNL     1       7.609  29.334  57.182  1.00  0.00     0.046 A 
HETATM    7  C   UNL     1       7.165  30.454  57.921  1.00  0.00     0.030 A 
HETATM    8  C   UNL     1       5.817  30.789  57.884  1.00  0.00     0.063 A 
HETATM    9  C   UNL     1       7.765  31.430  58.773  1.00  0.00     0.156 A 
HETATM   10  N   UNL     1       5.697  31.899  58.672  1.00  0.00    -0.277 N 
HETATM   11  C   UNL     1       4.872  30.066  57.156  1.00  0.00     0.034 A 
HETATM   12  H   UNL     1       4.851  32.421  58.872  1.00  0.00     0.189 HD
HETATM   13  N   UNL     1       6.847  32.316  59.225  1.00  0.00    -0.168 NA
HETATM   14  C   UNL     1       5.337  28.959  56.434  1.00  0.00     0.032 A 
BRANCH   9  15
HETATM   15  C   UNL     1       9.179  31.539  59.159  1.00  0.00     0.270 C 
HETATM   16  N   UNL     1       9.499  30.857  60.302  1.00  0.00    -0.365 N 
HETATM   17  H   UNL     1       8.769  30.346  60.782  1.00  0.00     0.159 HD
HETATM   18  H   UNL     1      10.448  30.872  60.642  1.00  0.00     0.159 HD
HETATM   19  O   UNL     1      10.027  32.171  58.539  1.00  0.00    -0.266 OA
ENDBRANCH   9  15
ENDBRANCH   2   5
BRANCH   1  20
HETATM   20  C   UNL     1       7.622  26.084  53.803  1.00  0.00     0.075 C 
HETATM   21  C   UNL     1       7.419  25.043  54.626  1.00  0.00     0.018 C 
BRANCH  21  22
HETATM   22  C   UNL     1       7.626  23.637  54.234  1.00  0.00    -0.025 A 
HETATM   23  C   UNL     1       7.944  22.635  55.195  1.00  0.00    -0.016 A 
HETATM   24  C   UNL     1       8.202  21.315  54.741  1.00  0.00    -0.025 A 
HETATM   25  C   UNL     1       8.016  22.871  56.589  1.00  0.00     0.013 A 
HETATM   26  C   UNL     1       8.529  20.305  55.662  1.00  0.00     0.012 A 
HETATM   27  C   UNL     1       8.135  21.019  53.371  1.00  0.00     0.012 A 
HETATM   28  C   UNL     1       8.601  20.574  57.027  1.00  0.00     0.001 A 
HETATM   29  C   UNL     1       8.342  21.857  57.491  1.00  0.00     0.001 A 
HETATM   30  C   UNL     1       7.826  22.007  52.441  1.00  0.00     0.002 A 
HETATM   31  C   UNL     1       7.579  23.308  52.869  1.00  0.00     0.012 A 
ENDBRANCH  21  22
ENDBRANCH   1  20
TORSDOF 4
ENDMDL
MODEL 4
REMARK VINA RESULT:     -10.4      5.766      8.576
REMARK  4 active torsions:
REMARK  status: ('A' for Active; 'I' for Inactive)
REMARK    1  A    between atoms: C_5  and  C_6 
REMARK    2  A    between atoms: C_7  and  C_8 
REMARK       I    between atoms: C_8  and  N_9 
REMARK    3  A    between atoms: N_9  and  C_10 
REMARK    4  A    between atoms: C_17  and  C_18 
REMARK       I    between atoms: C_18  and  N_19 
ROOT
HETATM    1  C   UNL     1       4.957  26.299  53.230  1.00  0.00     0.245 C 
HETATM    2  N   UNL     1       5.381  26.169  51.924  1.00  0.00    -0.324 N 
HETATM    3  O   UNL     1       4.245  27.176  53.698  1.00  0.00    -0.268 OA
HETATM    4  H   UNL     1       5.998  25.396  51.715  1.00  0.00     0.169 HD
ENDROOT
BRANCH   2   5
HETATM    5  C   UNL     1       5.111  27.041  50.846  1.00  0.00     0.035 A 
HETATM    6  C   UNL     1       4.312  26.698  49.746  1.00  0.00     0.046 A 
HETATM    7  C   UNL     1       4.079  27.650  48.728  1.00  0.00     0.030 A 
HETATM    8  C   UNL     1       4.654  28.909  48.843  1.00  0.00     0.063 A 
HETATM    9  C   UNL     1       3.352  27.687  47.500  1.00  0.00     0.156 A 
HETATM   10  N   UNL     1       4.249  29.597  47.733  1.00  0.00    -0.277 N 
HETATM   11  C   UNL     1       5.462  29.282  49.917  1.00  0.00     0.034 A 
HETATM   12  H   UNL     1       4.476  30.553  47.488  1.00  0.00     0.189 HD
HETATM   13  N   UNL     1       3.464  28.896  46.900  1.00  0.00    -0.168 NA
HETATM   14  C   UNL     1       5.680  28.321  50.913  1.00  0.00     0.032 A 
BRANCH   9  15
HETATM   15  C   UNL     1       2.558  26.610  46.892  1.00  0.00     0.270 C 
HETATM   16  N   UNL     1       1.282  26.976  46.559  1.00  0.00    -0.365 N 
HETATM   17  H   UNL     1       0.986  27.926  46.746  1.00  0.00     0.159 HD
HETATM   18  H   UNL     1       0.665  26.302  46.134  1.00  0.00     0.159 HD
HETATM   19  O   UNL     1       2.966  25.472  46.683  1.00  0.00    -0.266 OA
ENDBRANCH   9  15
ENDBRANCH   2   5
BRANCH   1  20
HETATM   20  C   UNL     1       5.509  25.221  54.098  1.00  0.00     0.075 C 
HETATM   21  C   UNL     1       6.838  25.046  54.162  1.00  0.00     0.018 C 
BRANCH  21  22
HETATM   22  C   UNL     1       7.489  24.001  54.974  1.00  0.00    -0.025 A 
HETATM   23  C   UNL     1       7.827  22.731  54.424  1.00  0.00    -0.016 A 
HETATM   24  C   UNL     1       8.386  21.746  55.279  1.00  0.00    -0.025 A 
HETATM   25  C   UNL     1       7.645  22.387  53.063  1.00  0.00     0.013 A 
HETATM   26  C   UNL     1       8.721  20.480  54.770  1.00  0.00     0.012 A 
HETATM   27  C   UNL     1       8.599  22.035  56.635  1.00  0.00     0.012 A 
HETATM   28  C   UNL     1       8.519  20.169  53.426  1.00  0.00     0.001 A 
HETATM   29  C   UNL     1       7.984  21.124  52.572  1.00  0.00     0.001 A 
HETATM   30  C   UNL     1       8.262  23.278  57.162  1.00  0.00     0.002 A 
HETATM   31  C   UNL     1       7.705  24.252  56.339  1.00  0.00     0.012 A 
ENDBRANCH  21  22
ENDBRANCH   1  20
TORSDOF 4
ENDMDL
MODEL 5
REMARK VINA RESULT:     -10.1      5.841      7.969
REMARK  4 active torsions:
REMARK  status: ('A' for Active; 'I' for Inactive)
REMARK    1  A    between atoms: C_5  and  C_6 
REMARK    2  A    between atoms: C_7  and  C_8 
REMARK       I    between atoms: C_8  and  N_9 
REMARK    3  A    between atoms: N_9  and  C_10 
REMARK    4  A    between atoms: C_17  and  C_18 
REMARK       I    between atoms: C_18  and  N_19 
ROOT
HETATM    1  C   UNL     1       4.868  26.103  52.813  1.00  0.00     0.245 C 
HETATM    2  N   UNL     1       5.159  25.805  51.498  1.00  0.00    -0.324 N 
HETATM    3  O   UNL     1       4.263  27.077  53.240  1.00  0.00    -0.268 OA
HETATM    4  H   UNL     1       5.701  24.969  51.325  1.00  0.00     0.169 HD
ENDROOT
BRANCH   2   5
HETATM    5  C   UNL     1       4.849  26.578  50.356  1.00  0.00     0.035 A 
HETATM    6  C   UNL     1       5.146  27.942  50.233  1.00  0.00     0.046 A 
HETATM    7  C   UNL     1       4.820  28.623  49.039  1.00  0.00     0.030 A 
HETATM    8  C   UNL     1       4.204  27.919  48.012  1.00  0.00     0.063 A 
HETATM    9  C   UNL     1       4.956  29.955  48.543  1.00  0.00     0.156 A 
HETATM   10  N   UNL     1       4.025  28.826  47.006  1.00  0.00    -0.277 N 
HETATM   11  C   UNL     1       3.884  26.564  48.103  1.00  0.00     0.034 A 
HETATM   12  H   UNL     1       3.607  28.659  46.097  1.00  0.00     0.189 HD
HETATM   13  N   UNL     1       4.464  30.063  47.287  1.00  0.00    -0.168 NA
HETATM   14  C   UNL     1       4.217  25.911  49.297  1.00  0.00     0.032 A 
BRANCH   9  15
HETATM   15  C   UNL     1       5.540  31.115  49.231  1.00  0.00     0.270 C 
HETATM   16  N   UNL     1       4.811  32.267  49.102  1.00  0.00    -0.365 N 
HETATM   17  H   UNL     1       3.953  32.239  48.564  1.00  0.00     0.159 HD
HETATM   18  H   UNL     1       5.134  33.113  49.544  1.00  0.00     0.159 HD
HETATM   19  O   UNL     1       6.584  31.095  49.874  1.00  0.00    -0.266 OA
ENDBRANCH   9  15
ENDBRANCH   2   5
BRANCH   1  20
HETATM   20  C   UNL     1       5.425  25.083  53.746  1.00  0.00     0.075 C 
HETATM   21  C   UNL     1       6.747  25.053  53.972  1.00  0.00     0.018 C 
BRANCH  21  22
HETATM   22  C   UNL     1       7.403  24.077  54.861  1.00  0.00    -0.025 A 
HETATM   23  C   UNL     1       7.786  22.785  54.397  1.00  0.00    -0.016 A 
HETATM   24  C   UNL     1       8.348  21.868  55.323  1.00  0.00    -0.025 A 
HETATM   25  C   UNL     1       7.645  22.354  53.056  1.00  0.00     0.013 A 
HETATM   26  C   UNL     1       8.727  20.583  54.900  1.00  0.00     0.012 A 
HETATM   27  C   UNL     1       8.522  22.245  56.663  1.00  0.00     0.012 A 
HETATM   28  C   UNL     1       8.564  20.186  53.574  1.00  0.00     0.001 A 
HETATM   29  C   UNL     1       8.026  21.073  52.651  1.00  0.00     0.001 A 
HETATM   30  C   UNL     1       8.143  23.508  57.106  1.00  0.00     0.002 A 
HETATM   31  C   UNL     1       7.582  24.415  56.212  1.00  0.00     0.012 A 
ENDBRANCH  21  22
ENDBRANCH   1  20
TORSDOF 4
ENDMDL
MODEL 6
REMARK VINA RESULT:     -10.1      6.713      9.235
REMARK  4 active torsions:
REMARK  status: ('A' for Active; 'I' for Inactive)
REMARK    1  A    between atoms: C_5  and  C_6 
REMARK    2  A    between atoms: C_7  and  C_8 
REMARK       I    between atoms: C_8  and  N_9 
REMARK    3  A    between atoms: N_9  and  C_10 
REMARK    4  A    between atoms: C_17  and  C_18 
REMARK       I    between atoms: C_18  and  N_19 
ROOT
HETATM    1  C   UNL     1       5.454  26.858  51.444  1.00  0.00     0.245 C 
HETATM    2  N   UNL     1       5.718  27.100  50.112  1.00  0.00    -0.324 N 
HETATM    3  O   UNL     1       4.534  27.306  52.114  1.00  0.00    -0.268 OA
HETATM    4  H   UNL     1       6.547  26.672  49.722  1.00  0.00     0.169 HD
ENDROOT
BRANCH   2   5
HETATM    5  C   UNL     1       4.999  27.944  49.236  1.00  0.00     0.035 A 
HETATM    6  C   UNL     1       3.773  27.600  48.652  1.00  0.00     0.046 A 
HETATM    7  C   UNL     1       3.117  28.524  47.808  1.00  0.00     0.030 A 
HETATM    8  C   UNL     1       3.711  29.758  47.575  1.00  0.00     0.063 A 
HETATM    9  C   UNL     1       1.902  28.551  47.057  1.00  0.00     0.156 A 
HETATM   10  N   UNL     1       2.853  30.423  46.744  1.00  0.00    -0.277 N 
HETATM   11  C   UNL     1       4.935  30.131  48.130  1.00  0.00     0.034 A 
HETATM   12  H   UNL     1       2.964  31.358  46.370  1.00  0.00     0.189 HD
HETATM   13  N   UNL     1       1.753  29.730  46.409  1.00  0.00    -0.168 NA
HETATM   14  C   UNL     1       5.566  29.197  48.962  1.00  0.00     0.032 A 
BRANCH   9  15
HETATM   15  C   UNL     1       0.890  27.492  46.946  1.00  0.00     0.270 C 
HETATM   16  N   UNL     1       0.333  27.379  45.700  1.00  0.00    -0.365 N 
HETATM   17  H   UNL     1       0.646  28.009  44.971  1.00  0.00     0.159 HD
HETATM   18  H   UNL     1      -0.368  26.677  45.530  1.00  0.00     0.159 HD
HETATM   19  O   UNL     1       0.548  26.751  47.861  1.00  0.00    -0.266 OA
ENDBRANCH   9  15
ENDBRANCH   2   5
BRANCH   1  20
HETATM   20  C   UNL     1       6.481  25.969  52.057  1.00  0.00     0.075 C 
HETATM   21  C   UNL     1       6.090  24.985  52.881  1.00  0.00     0.018 C 
BRANCH  21  22
HETATM   22  C   UNL     1       7.022  24.060  53.552  1.00  0.00    -0.025 A 
HETATM   23  C   UNL     1       7.508  24.316  54.867  1.00  0.00    -0.016 A 
HETATM   24  C   UNL     1       8.458  23.422  55.426  1.00  0.00    -0.025 A 
HETATM   25  C   UNL     1       7.096  25.412  55.662  1.00  0.00     0.013 A 
HETATM   26  C   UNL     1       8.965  23.651  56.716  1.00  0.00     0.012 A 
HETATM   27  C   UNL     1       8.895  22.312  54.688  1.00  0.00     0.012 A 
HETATM   28  C   UNL     1       8.546  24.747  57.469  1.00  0.00     0.001 A 
HETATM   29  C   UNL     1       7.609  25.626  56.943  1.00  0.00     0.001 A 
HETATM   30  C   UNL     1       8.416  22.074  53.404  1.00  0.00     0.002 A 
HETATM   31  C   UNL     1       7.490  22.945  52.838  1.00  0.00     0.012 A 
ENDBRANCH  21  22
ENDBRANCH   1  20
TORSDOF 4
ENDMDL
MODEL 7
REMARK VINA RESULT:     -10.0      3.114      9.626
REMARK  4 active torsions:
REMARK  status: ('A' for Active; 'I' for Inactive)
REMARK    1  A    between atoms: C_5  and  C_6 
REMARK    2  A    between atoms: C_7  and  C_8 
REMARK       I    between atoms: C_8  and  N_9 
REMARK    3  A    between atoms: N_9  and  C_10 
REMARK    4  A    between atoms: C_17  and  C_18 
REMARK       I    between atoms: C_18  and  N_19 
ROOT
HETATM    1  C   UNL     1       7.909  27.320  56.885  1.00  0.00     0.245 C 
HETATM    2  N   UNL     1       7.048  26.621  56.063  1.00  0.00    -0.324 N 
HETATM    3  O   UNL     1       9.107  27.128  57.042  1.00  0.00    -0.268 OA
HETATM    4  H   UNL     1       6.075  26.893  56.081  1.00  0.00     0.169 HD
ENDROOT
BRANCH   2   5
HETATM    5  C   UNL     1       7.357  25.510  55.248  1.00  0.00     0.035 A 
HETATM    6  C   UNL     1       7.714  24.250  55.747  1.00  0.00     0.046 A 
HETATM    7  C   UNL     1       7.979  23.191  54.850  1.00  0.00     0.030 A 
HETATM    8  C   UNL     1       7.881  23.429  53.485  1.00  0.00     0.063 A 
HETATM    9  C   UNL     1       8.354  21.818  54.959  1.00  0.00     0.156 A 
HETATM   10  N   UNL     1       8.180  22.238  52.886  1.00  0.00    -0.277 N 
HETATM   11  C   UNL     1       7.539  24.672  52.951  1.00  0.00     0.034 A 
HETATM   12  H   UNL     1       8.203  22.040  51.892  1.00  0.00     0.189 HD
HETATM   13  N   UNL     1       8.471  21.244  53.739  1.00  0.00    -0.168 NA
HETATM   14  C   UNL     1       7.282  25.706  53.861  1.00  0.00     0.032 A 
BRANCH   9  15
HETATM   15  C   UNL     1       8.598  21.047  56.187  1.00  0.00     0.270 C 
HETATM   16  N   UNL     1       9.250  19.861  55.982  1.00  0.00    -0.365 N 
HETATM   17  H   UNL     1       9.509  19.608  55.036  1.00  0.00     0.159 HD
HETATM   18  H   UNL     1       9.463  19.267  56.767  1.00  0.00     0.159 HD
HETATM   19  O   UNL     1       8.266  21.401  57.313  1.00  0.00    -0.266 OA
ENDBRANCH   9  15
ENDBRANCH   2   5
BRANCH   1  20
HETATM   20  C   UNL     1       7.199  28.383  57.650  1.00  0.00     0.075 C 
HETATM   21  C   UNL     1       7.783  29.581  57.804  1.00  0.00     0.018 C 
BRANCH  21  22
HETATM   22  C   UNL     1       7.177  30.697  58.555  1.00  0.00    -0.025 A 
HETATM   23  C   UNL     1       7.701  31.122  59.810  1.00  0.00    -0.016 A 
HETATM   24  C   UNL     1       7.027  32.154  60.514  1.00  0.00    -0.025 A 
HETATM   25  C   UNL     1       8.865  30.579  60.404  1.00  0.00     0.013 A 
HETATM   26  C   UNL     1       7.511  32.589  61.758  1.00  0.00     0.012 A 
HETATM   27  C   UNL     1       5.873  32.736  59.967  1.00  0.00     0.012 A 
HETATM   28  C   UNL     1       8.655  32.026  62.321  1.00  0.00     0.001 A 
HETATM   29  C   UNL     1       9.334  31.023  61.642  1.00  0.00     0.001 A 
HETATM   30  C   UNL     1       5.369  32.311  58.742  1.00  0.00     0.002 A 
HETATM   31  C   UNL     1       6.013  31.294  58.044  1.00  0.00     0.012 A 
ENDBRANCH  21  22
ENDBRANCH   1  20
TORSDOF 4
ENDMDL
MODEL 8
REMARK VINA RESULT:      -9.9      3.039      4.074
REMARK  4 active torsions:
REMARK  status: ('A' for Active; 'I' for Inactive)
REMARK    1  A    between atoms: C_5  and  C_6 
REMARK    2  A    between atoms: C_7  and  C_8 
REMARK       I    between atoms: C_8  and  N_9 
REMARK    3  A    between atoms: N_9  and  C_10 
REMARK    4  A    between atoms: C_17  and  C_18 
REMARK       I    between atoms: C_18  and  N_19 
ROOT
HETATM    1  C   UNL     1       7.595  27.020  56.800  1.00  0.00     0.245 C 
HETATM    2  N   UNL     1       6.229  27.058  56.608  1.00  0.00    -0.324 N 
HETATM    3  O   UNL     1       8.368  27.967  56.842  1.00  0.00    -0.268 OA
HETATM    4  H   UNL     1       5.746  26.171  56.568  1.00  0.00     0.169 HD
ENDROOT
BRANCH   2   5
HETATM    5  C   UNL     1       5.427  28.200  56.385  1.00  0.00     0.035 A 
HETATM    6  C   UNL     1       4.994  29.060  57.403  1.00  0.00     0.046 A 
HETATM    7  C   UNL     1       4.216  30.193  57.076  1.00  0.00     0.030 A 
HETATM    8  C   UNL     1       3.895  30.424  55.745  1.00  0.00     0.063 A 
HETATM    9  C   UNL     1       3.609  31.268  57.794  1.00  0.00     0.156 A 
HETATM   10  N   UNL     1       3.157  31.575  55.743  1.00  0.00    -0.277 N 
HETATM   11  C   UNL     1       4.299  29.585  54.707  1.00  0.00     0.034 A 
HETATM   12  H   UNL     1       2.756  32.045  54.940  1.00  0.00     0.189 HD
HETATM   13  N   UNL     1       2.963  32.113  56.958  1.00  0.00    -0.168 NA
HETATM   14  C   UNL     1       5.069  28.468  55.056  1.00  0.00     0.032 A 
BRANCH   9  15
HETATM   15  C   UNL     1       3.633  31.507  59.244  1.00  0.00     0.270 C 
HETATM   16  N   UNL     1       2.900  30.608  59.971  1.00  0.00    -0.365 N 
HETATM   17  H   UNL     1       2.413  29.869  59.478  1.00  0.00     0.159 HD
HETATM   18  H   UNL     1       2.861  30.692  60.974  1.00  0.00     0.159 HD
HETATM   19  O   UNL     1       4.244  32.417  59.794  1.00  0.00    -0.266 OA
ENDBRANCH   9  15
ENDBRANCH   2   5
BRANCH   1  20
HETATM   20  C   UNL     1       8.095  25.622  56.926  1.00  0.00     0.075 C 
HETATM   21  C   UNL     1       7.552  24.659  56.164  1.00  0.00     0.018 C 
BRANCH  21  22
HETATM   22  C   UNL     1       7.959  23.244  56.220  1.00  0.00    -0.025 A 
HETATM   23  C   UNL     1       8.019  22.438  55.046  1.00  0.00    -0.016 A 
HETATM   24  C   UNL     1       8.349  21.064  55.179  1.00  0.00    -0.025 A 
HETATM   25  C   UNL     1       7.772  22.926  53.740  1.00  0.00     0.013 A 
HETATM   26  C   UNL     1       8.406  20.240  54.043  1.00  0.00     0.012 A 
HETATM   27  C   UNL     1       8.614  20.528  56.449  1.00  0.00     0.012 A 
HETATM   28  C   UNL     1       8.147  20.750  52.772  1.00  0.00     0.001 A 
HETATM   29  C   UNL     1       7.833  22.094  52.620  1.00  0.00     0.001 A 
HETATM   30  C   UNL     1       8.551  21.323  57.588  1.00  0.00     0.002 A 
HETATM   31  C   UNL     1       8.220  22.670  57.475  1.00  0.00     0.012 A 
ENDBRANCH  21  22
ENDBRANCH   1  20
TORSDOF 4
ENDMDL
MODEL 9
REMARK VINA RESULT:      -9.7      1.560      2.302
REMARK  4 active torsions:
REMARK  status: ('A' for Active; 'I' for Inactive)
REMARK    1  A    between atoms: C_5  and  C_6 
REMARK    2  A    between atoms: C_7  and  C_8 
REMARK       I    between atoms: C_8  and  N_9 
REMARK    3  A    between atoms: N_9  and  C_10 
REMARK    4  A    between atoms: C_17  and  C_18 
REMARK       I    between atoms: C_18  and  N_19 
ROOT
HETATM    1  C   UNL     1       6.597  28.403  56.777  1.00  0.00     0.245 C 
HETATM    2  N   UNL     1       7.534  29.367  57.086  1.00  0.00    -0.324 N 
HETATM    3  O   UNL     1       5.573  28.137  57.392  1.00  0.00    -0.268 OA
HETATM    4  H   UNL     1       8.344  29.430  56.484  1.00  0.00     0.169 HD
ENDROOT
BRANCH   2   5
HETATM    5  C   UNL     1       7.533  30.238  58.198  1.00  0.00     0.035 A 
HETATM    6  C   UNL     1       6.474  31.101  58.513  1.00  0.00     0.046 A 
HETATM    7  C   UNL     1       6.555  31.917  59.663  1.00  0.00     0.030 A 
HETATM    8  C   UNL     1       7.693  31.845  60.457  1.00  0.00     0.063 A 
HETATM    9  C   UNL     1       5.721  32.885  60.301  1.00  0.00     0.156 A 
HETATM   10  N   UNL     1       7.479  32.725  61.480  1.00  0.00    -0.277 N 
HETATM   11  C   UNL     1       8.770  31.006  60.170  1.00  0.00     0.034 A 
HETATM   12  H   UNL     1       8.101  32.931  62.253  1.00  0.00     0.189 HD
HETATM   13  N   UNL     1       6.304  33.372  61.421  1.00  0.00    -0.168 NA
HETATM   14  C   UNL     1       8.666  30.208  59.023  1.00  0.00     0.032 A 
BRANCH   9  15
HETATM   15  C   UNL     1       4.394  33.350  59.872  1.00  0.00     0.270 C 
HETATM   16  N   UNL     1       4.427  34.356  58.944  1.00  0.00    -0.365 N 
HETATM   17  H   UNL     1       5.328  34.695  58.630  1.00  0.00     0.159 HD
HETATM   18  H   UNL     1       3.564  34.736  58.590  1.00  0.00     0.159 HD
HETATM   19  O   UNL     1       3.329  32.901  60.282  1.00  0.00    -0.266 OA
ENDBRANCH   9  15
ENDBRANCH   2   5
BRANCH   1  20
HETATM   20  C   UNL     1       6.981  27.629  55.564  1.00  0.00     0.075 C 
HETATM   21  C   UNL     1       6.839  26.294  55.564  1.00  0.00     0.018 C 
BRANCH  21  22
HETATM   22  C   UNL     1       7.203  25.432  54.425  1.00  0.00    -0.025 A 
HETATM   23  C   UNL     1       7.472  24.043  54.597  1.00  0.00    -0.016 A 
HETATM   24  C   UNL     1       7.886  23.286  53.471  1.00  0.00    -0.025 A 
HETATM   25  C   UNL     1       7.345  23.362  55.832  1.00  0.00     0.013 A 
HETATM   26  C   UNL     1       8.169  21.917  53.609  1.00  0.00     0.012 A 
HETATM   27  C   UNL     1       8.018  23.906  52.219  1.00  0.00     0.012 A 
HETATM   28  C   UNL     1       8.046  21.278  54.842  1.00  0.00     0.001 A 
HETATM   29  C   UNL     1       7.631  22.000  55.953  1.00  0.00     0.001 A 
HETATM   30  C   UNL     1       7.755  25.264  52.063  1.00  0.00     0.002 A 
HETATM   31  C   UNL     1       7.356  26.022  53.160  1.00  0.00     0.012 A 
ENDBRANCH  21  22
ENDBRANCH   1  20
TORSDOF 4
ENDMDL
MODEL 10
REMARK VINA RESULT:      -9.5      2.339      3.916
REMARK  4 active torsions:
REMARK  status: ('A' for Active; 'I' for Inactive)
REMARK    1  A    between atoms: C_5  and  C_6 
REMARK    2  A    between atoms: C_7  and  C_8 
REMARK       I    between atoms: C_8  and  N_9 
REMARK    3  A    between atoms: N_9  and  C_10 
REMARK    4  A    between atoms: C_17  and  C_18 
REMARK       I    between atoms: C_18  and  N_19 
ROOT
HETATM    1  C   UNL     1       9.206  30.224  58.034  1.00  0.00     0.245 C 
HETATM    2  N   UNL     1       8.289  30.071  59.053  1.00  0.00    -0.324 N 
HETATM    3  O   UNL     1      10.141  31.011  57.986  1.00  0.00    -0.268 OA
HETATM    4  H   UNL     1       7.555  29.390  58.913  1.00  0.00     0.169 HD
ENDROOT
BRANCH   2   5
HETATM    5  C   UNL     1       8.208  30.815  60.252  1.00  0.00     0.035 A 
HETATM    6  C   UNL     1       7.058  31.496  60.672  1.00  0.00     0.046 A 
HETATM    7  C   UNL     1       7.067  32.192  61.901  1.00  0.00     0.030 A 
HETATM    8  C   UNL     1       8.227  32.186  62.666  1.00  0.00     0.063 A 
HETATM    9  C   UNL     1       6.135  32.973  62.650  1.00  0.00     0.156 A 
HETATM   10  N   UNL     1       7.932  32.921  63.780  1.00  0.00    -0.277 N 
HETATM   11  C   UNL     1       9.393  31.529  62.276  1.00  0.00     0.034 A 
HETATM   12  H   UNL     1       8.545  33.124  64.561  1.00  0.00     0.189 HD
HETATM   13  N   UNL     1       6.683  33.412  63.807  1.00  0.00    -0.168 NA
HETATM   14  C   UNL     1       9.360  30.846  61.053  1.00  0.00     0.032 A 
BRANCH   9  15
HETATM   15  C   UNL     1       4.748  33.304  62.293  1.00  0.00     0.270 C 
HETATM   16  N   UNL     1       4.626  34.399  61.481  1.00  0.00    -0.365 N 
HETATM   17  H   UNL     1       5.467  34.885  61.194  1.00  0.00     0.159 HD
HETATM   18  H   UNL     1       3.712  34.699  61.183  1.00  0.00     0.159 HD
HETATM   19  O   UNL     1       3.761  32.679  62.666  1.00  0.00    -0.266 OA
ENDBRANCH   9  15
ENDBRANCH   2   5
BRANCH   1  20
HETATM   20  C   UNL     1       8.923  29.306  56.895  1.00  0.00     0.075 C 
HETATM   21  C   UNL     1       7.970  28.370  57.028  1.00  0.00     0.018 C 
BRANCH  21  22
HETATM   22  C   UNL     1       7.620  27.402  55.972  1.00  0.00    -0.025 A 
HETATM   23  C   UNL     1       7.895  26.012  56.115  1.00  0.00    -0.016 A 
HETATM   24  C   UNL     1       7.599  25.145  55.031  1.00  0.00    -0.025 A 
HETATM   25  C   UNL     1       8.447  25.431  57.282  1.00  0.00     0.013 A 
HETATM   26  C   UNL     1       7.867  23.770  55.135  1.00  0.00     0.012 A 
HETATM   27  C   UNL     1       7.041  25.663  53.852  1.00  0.00     0.012 A 
HETATM   28  C   UNL     1       8.421  23.232  56.295  1.00  0.00     0.001 A 
HETATM   29  C   UNL     1       8.708  24.062  57.370  1.00  0.00     0.001 A 
HETATM   30  C   UNL     1       6.778  27.023  53.723  1.00  0.00     0.002 A 
HETATM   31  C   UNL     1       7.072  27.887  54.774  1.00  0.00     0.012 A 
ENDBRANCH  21  22
ENDBRANCH   1  20
TORSDOF 4
ENDMDL
