MODEL 1
REMARK VINA RESULT:      -9.2      0.000      0.000
REMARK  5 active torsions:
REMARK  status: ('A' for Active; 'I' for Inactive)
REMARK    1  A    between atoms: C_8  and  C_9 
REMARK    2  A    between atoms: C_9  and  N_10 
REMARK       I    between atoms: N_10  and  C_11 
REMARK       I    between atoms: C_11  and  N_12 
REMARK    3  A    between atoms: N_12  and  C_13 
REMARK    4  A    between atoms: C_15  and  N_16 
REMARK       I    between atoms: N_16  and  C_17 
REMARK    5  A    between atoms: C_17  and  C_18 
ROOT
HETATM    1  C   UNL     1       5.554  32.530  63.309  1.00  0.00     0.038 A 
HETATM    2  C   UNL     1       6.055  31.766  62.257  1.00  0.00     0.059 A 
HETATM    3  C   UNL     1       7.428  31.557  62.089  1.00  0.00     0.036 A 
HETATM    4  C   UNL     1       8.328  32.207  62.928  1.00  0.00     0.029 A 
HETATM    5  C   UNL     1       7.846  33.001  63.970  1.00  0.00     0.004 A 
HETATM    6  C   UNL     1       6.468  33.153  64.164  1.00  0.00     0.029 A 
ENDROOT
BRANCH   1   7
HETATM    7  N   UNL     1       4.181  32.770  63.523  1.00  0.00    -0.309 N 
HETATM    8  C   UNL     1       3.424  33.901  63.423  1.00  0.00     0.320 C 
HETATM    9  N   UNL     1       3.906  34.920  62.674  1.00  0.00    -0.338 N 
HETATM   10  O   UNL     1       2.346  33.949  64.009  1.00  0.00    -0.247 OA
HETATM   11  H   UNL     1       4.557  34.704  61.933  1.00  0.00     0.164 HD
HETATM   12  H   UNL     1       3.656  32.019  63.954  1.00  0.00     0.170 HD
BRANCH   9  13
HETATM   13  C   UNL     1       3.375  36.262  62.715  1.00  0.00     0.167 C 
BRANCH  13  14
HETATM   14  C   UNL     1       4.433  37.155  63.275  1.00  0.00     0.009 A 
HETATM   15  C   UNL     1       4.921  37.188  64.572  1.00  0.00     0.034 A 
HETATM   16  C   UNL     1       4.590  36.384  65.772  1.00  0.00     0.070 C 
HETATM   17  N   UNL     1       5.876  38.164  64.593  1.00  0.00    -0.282 N 
HETATM   18  H   UNL     1       6.442  38.466  65.378  1.00  0.00     0.189 HD
HETATM   19  N   UNL     1       6.056  38.769  63.413  1.00  0.00    -0.179 NA
HETATM   20  C   UNL     1       5.181  38.164  62.600  1.00  0.00     0.060 A 
HETATM   21  C   UNL     1       5.092  38.573  61.176  1.00  0.00     0.073 C 
ENDBRANCH  13  14
ENDBRANCH   9  13
ENDBRANCH   1   7
BRANCH   3  22
HETATM   22  N   UNL     1       7.902  30.746  61.037  1.00  0.00    -0.327 N 
HETATM   23  C   UNL     1       8.247  31.247  59.789  1.00  0.00     0.226 C 
HETATM   24  O   UNL     1       7.927  32.362  59.379  1.00  0.00    -0.273 OA
HETATM   25  H   UNL     1       7.761  29.749  61.122  1.00  0.00     0.169 HD
BRANCH  23  26
HETATM   26  C   UNL     1       9.166  30.353  58.969  1.00  0.00     0.078 C 
HETATM   27  C   UNL     1       8.540  29.489  57.882  1.00  0.00     0.014 C 
HETATM   28  C   UNL     1       9.747  29.047  57.070  1.00  0.00     0.001 C 
HETATM   29  C   UNL     1      10.680  30.254  57.063  1.00  0.00     0.001 C 
HETATM   30  C   UNL     1      10.205  31.166  58.194  1.00  0.00     0.014 C 
ENDBRANCH  23  26
ENDBRANCH   3  22
TORSDOF 5
ENDMDL
MODEL 2
REMARK VINA RESULT:      -9.2      4.624     10.766
REMARK  5 active torsions:
REMARK  status: ('A' for Active; 'I' for Inactive)
REMARK    1  A    between atoms: C_8  and  C_9 
REMARK    2  A    between atoms: C_9  and  N_10 
REMARK       I    between atoms: N_10  and  C_11 
REMARK       I    between atoms: C_11  and  N_12 
REMARK    3  A    between atoms: N_12  and  C_13 
REMARK    4  A    between atoms: C_15  and  N_16 
REMARK       I    between atoms: N_16  and  C_17 
REMARK    5  A    between atoms: C_17  and  C_18 
ROOT
HETATM    1  C   UNL     1       7.985  29.342  56.078  1.00  0.00     0.038 A 
HETATM    2  C   UNL     1       7.799  29.656  57.423  1.00  0.00     0.059 A 
HETATM    3  C   UNL     1       8.872  29.988  58.255  1.00  0.00     0.036 A 
HETATM    4  C   UNL     1      10.172  29.908  57.764  1.00  0.00     0.029 A 
HETATM    5  C   UNL     1      10.381  29.567  56.427  1.00  0.00     0.004 A 
HETATM    6  C   UNL     1       9.295  29.294  55.588  1.00  0.00     0.029 A 
ENDROOT
BRANCH   1   7
HETATM    7  N   UNL     1       6.939  29.002  55.196  1.00  0.00    -0.309 N 
HETATM    8  C   UNL     1       6.223  27.852  55.027  1.00  0.00     0.320 C 
HETATM    9  N   UNL     1       6.204  26.963  56.048  1.00  0.00    -0.338 N 
HETATM   10  O   UNL     1       5.629  27.672  53.968  1.00  0.00    -0.247 OA
HETATM   11  H   UNL     1       6.359  27.306  56.985  1.00  0.00     0.164 HD
HETATM   12  H   UNL     1       6.744  29.663  54.455  1.00  0.00     0.170 HD
BRANCH   9  13
HETATM   13  C   UNL     1       5.750  25.600  55.911  1.00  0.00     0.167 C 
BRANCH  13  14
HETATM   14  C   UNL     1       6.884  24.793  55.368  1.00  0.00     0.009 A 
HETATM   15  C   UNL     1       8.039  24.400  56.026  1.00  0.00     0.034 A 
HETATM   16  C   UNL     1       8.509  24.618  57.414  1.00  0.00     0.070 C 
HETATM   17  N   UNL     1       8.764  23.680  55.119  1.00  0.00    -0.282 N 
HETATM   18  H   UNL     1       9.667  23.238  55.251  1.00  0.00     0.189 HD
HETATM   19  N   UNL     1       8.174  23.567  53.923  1.00  0.00    -0.179 NA
HETATM   20  C   UNL     1       7.027  24.243  54.061  1.00  0.00     0.060 A 
HETATM   21  C   UNL     1       6.083  24.336  52.919  1.00  0.00     0.073 C 
ENDBRANCH  13  14
ENDBRANCH   9  13
ENDBRANCH   1   7
BRANCH   3  22
HETATM   22  N   UNL     1       8.647  30.340  59.602  1.00  0.00    -0.327 N 
HETATM   23  C   UNL     1       8.585  31.655  60.043  1.00  0.00     0.226 C 
HETATM   24  O   UNL     1       8.983  32.621  59.393  1.00  0.00    -0.273 OA
HETATM   25  H   UNL     1       8.770  29.616  60.296  1.00  0.00     0.169 HD
BRANCH  23  26
HETATM   26  C   UNL     1       7.874  31.854  61.374  1.00  0.00     0.078 C 
HETATM   27  C   UNL     1       8.726  32.152  62.601  1.00  0.00     0.014 C 
HETATM   28  C   UNL     1       7.699  32.639  63.610  1.00  0.00     0.001 C 
HETATM   29  C   UNL     1       6.696  33.446  62.792  1.00  0.00     0.001 C 
HETATM   30  C   UNL     1       6.918  33.048  61.334  1.00  0.00     0.014 C 
ENDBRANCH  23  26
ENDBRANCH   3  22
TORSDOF 5
ENDMDL
MODEL 3
REMARK VINA RESULT:      -9.2      5.774      9.928
REMARK  5 active torsions:
REMARK  status: ('A' for Active; 'I' for Inactive)
REMARK    1  A    between atoms: C_8  and  C_9 
REMARK    2  A    between atoms: C_9  and  N_10 
REMARK       I    between atoms: N_10  and  C_11 
REMARK       I    between atoms: C_11  and  N_12 
REMARK    3  A    between atoms: N_12  and  C_13 
REMARK    4  A    between atoms: C_15  and  N_16 
REMARK       I    between atoms: N_16  and  C_17 
REMARK    5  A    between atoms: C_17  and  C_18 
ROOT
HETATM    1  C   UNL     1       5.846  28.254  54.302  1.00  0.00     0.038 A 
HETATM    2  C   UNL     1       6.721  27.185  54.487  1.00  0.00     0.059 A 
HETATM    3  C   UNL     1       6.601  26.002  53.751  1.00  0.00     0.036 A 
HETATM    4  C   UNL     1       5.525  25.839  52.883  1.00  0.00     0.029 A 
HETATM    5  C   UNL     1       4.621  26.887  52.706  1.00  0.00     0.004 A 
HETATM    6  C   UNL     1       4.786  28.090  53.404  1.00  0.00     0.029 A 
ENDROOT
BRANCH   1   7
HETATM    7  N   UNL     1       5.923  29.467  55.016  1.00  0.00    -0.309 N 
HETATM    8  C   UNL     1       6.469  29.784  56.225  1.00  0.00     0.320 C 
HETATM    9  N   UNL     1       7.407  28.950  56.733  1.00  0.00    -0.338 N 
HETATM   10  O   UNL     1       6.094  30.802  56.799  1.00  0.00    -0.247 OA
HETATM   11  H   UNL     1       7.942  28.383  56.092  1.00  0.00     0.164 HD
HETATM   12  H   UNL     1       5.372  30.236  54.653  1.00  0.00     0.170 HD
BRANCH   9  13
HETATM   13  C   UNL     1       7.849  28.988  58.107  1.00  0.00     0.167 C 
BRANCH  13  14
HETATM   14  C   UNL     1       8.794  30.136  58.251  1.00  0.00     0.009 A 
HETATM   15  C   UNL     1      10.042  30.289  57.669  1.00  0.00     0.034 A 
HETATM   16  C   UNL     1      10.813  29.425  56.745  1.00  0.00     0.070 C 
HETATM   17  N   UNL     1      10.513  31.498  58.096  1.00  0.00    -0.282 N 
HETATM   18  H   UNL     1      11.399  31.937  57.871  1.00  0.00     0.189 HD
HETATM   19  N   UNL     1       9.671  32.150  58.907  1.00  0.00    -0.179 NA
HETATM   20  C   UNL     1       8.619  31.330  59.011  1.00  0.00     0.060 A 
HETATM   21  C   UNL     1       7.455  31.725  59.843  1.00  0.00     0.073 C 
ENDBRANCH  13  14
ENDBRANCH   9  13
ENDBRANCH   1   7
BRANCH   3  22
HETATM   22  N   UNL     1       7.526  24.953  53.932  1.00  0.00    -0.327 N 
HETATM   23  C   UNL     1       7.368  23.959  54.888  1.00  0.00     0.226 C 
HETATM   24  O   UNL     1       6.585  24.029  55.835  1.00  0.00    -0.273 OA
HETATM   25  H   UNL     1       8.440  25.065  53.516  1.00  0.00     0.169 HD
BRANCH  23  26
HETATM   26  C   UNL     1       8.164  22.687  54.631  1.00  0.00     0.078 C 
HETATM   27  C   UNL     1       7.772  21.432  55.399  1.00  0.00     0.014 C 
HETATM   28  C   UNL     1       8.501  20.335  54.640  1.00  0.00     0.001 C 
HETATM   29  C   UNL     1       8.423  20.751  53.175  1.00  0.00     0.001 C 
HETATM   30  C   UNL     1       8.055  22.234  53.173  1.00  0.00     0.014 C 
ENDBRANCH  23  26
ENDBRANCH   3  22
TORSDOF 5
ENDMDL
MODEL 4
REMARK VINA RESULT:      -9.1      4.579     10.733
REMARK  5 active torsions:
REMARK  status: ('A' for Active; 'I' for Inactive)
REMARK    1  A    between atoms: C_8  and  C_9 
REMARK    2  A    between atoms: C_9  and  N_10 
REMARK       I    between atoms: N_10  and  C_11 
REMARK       I    between atoms: C_11  and  N_12 
REMARK    3  A    between atoms: N_12  and  C_13 
REMARK    4  A    between atoms: C_15  and  N_16 
REMARK       I    between atoms: N_16  and  C_17 
REMARK    5  A    between atoms: C_17  and  C_18 
ROOT
HETATM    1  C   UNL     1       7.738  29.407  56.314  1.00  0.00     0.038 A 
HETATM    2  C   UNL     1       7.539  29.745  57.651  1.00  0.00     0.059 A 
HETATM    3  C   UNL     1       8.610  30.031  58.504  1.00  0.00     0.036 A 
HETATM    4  C   UNL     1       9.914  29.877  58.043  1.00  0.00     0.029 A 
HETATM    5  C   UNL     1      10.134  29.509  56.715  1.00  0.00     0.004 A 
HETATM    6  C   UNL     1       9.053  29.284  55.854  1.00  0.00     0.029 A 
ENDROOT
BRANCH   1   7
HETATM    7  N   UNL     1       6.694  29.111  55.413  1.00  0.00    -0.309 N 
HETATM    8  C   UNL     1       5.981  27.971  55.182  1.00  0.00     0.320 C 
HETATM    9  N   UNL     1       5.961  27.029  56.154  1.00  0.00    -0.338 N 
HETATM   10  O   UNL     1       5.390  27.846  54.113  1.00  0.00    -0.247 OA
HETATM   11  H   UNL     1       6.113  27.322  57.108  1.00  0.00     0.164 HD
HETATM   12  H   UNL     1       6.500  29.810  54.707  1.00  0.00     0.170 HD
BRANCH   9  13
HETATM   13  C   UNL     1       5.511  25.674  55.944  1.00  0.00     0.167 C 
BRANCH  13  14
HETATM   14  C   UNL     1       6.634  24.910  55.322  1.00  0.00     0.009 A 
HETATM   15  C   UNL     1       6.732  24.451  54.018  1.00  0.00     0.034 A 
HETATM   16  C   UNL     1       5.818  24.570  52.858  1.00  0.00     0.070 C 
HETATM   17  N   UNL     1       7.939  23.817  53.930  1.00  0.00    -0.282 N 
HETATM   18  H   UNL     1       8.344  23.357  53.122  1.00  0.00     0.189 HD
HETATM   19  N   UNL     1       8.639  23.828  55.070  1.00  0.00    -0.179 NA
HETATM   20  C   UNL     1       7.854  24.490  55.928  1.00  0.00     0.060 A 
HETATM   21  C   UNL     1       8.309  24.711  57.324  1.00  0.00     0.073 C 
ENDBRANCH  13  14
ENDBRANCH   9  13
ENDBRANCH   1   7
BRANCH   3  22
HETATM   22  N   UNL     1       8.374  30.409  59.842  1.00  0.00    -0.327 N 
HETATM   23  C   UNL     1       8.374  31.730  60.268  1.00  0.00     0.226 C 
HETATM   24  O   UNL     1       8.839  32.666  59.617  1.00  0.00    -0.273 OA
HETATM   25  H   UNL     1       8.441  29.687  60.546  1.00  0.00     0.169 HD
BRANCH  23  26
HETATM   26  C   UNL     1       7.645  31.983  61.580  1.00  0.00     0.078 C 
HETATM   27  C   UNL     1       8.485  32.205  62.831  1.00  0.00     0.014 C 
HETATM   28  C   UNL     1       7.474  32.773  63.815  1.00  0.00     0.001 C 
HETATM   29  C   UNL     1       6.563  33.662  62.975  1.00  0.00     0.001 C 
HETATM   30  C   UNL     1       6.792  33.252  61.520  1.00  0.00     0.014 C 
ENDBRANCH  23  26
ENDBRANCH   3  22
TORSDOF 5
ENDMDL
MODEL 5
REMARK VINA RESULT:      -9.0      8.334     11.315
REMARK  5 active torsions:
REMARK  status: ('A' for Active; 'I' for Inactive)
REMARK    1  A    between atoms: C_8  and  C_9 
REMARK    2  A    between atoms: C_9  and  N_10 
REMARK       I    between atoms: N_10  and  C_11 
REMARK       I    between atoms: C_11  and  N_12 
REMARK    3  A    between atoms: N_12  and  C_13 
REMARK    4  A    between atoms: C_15  and  N_16 
REMARK       I    between atoms: N_16  and  C_17 
REMARK    5  A    between atoms: C_17  and  C_18 
ROOT
HETATM    1  C   UNL     1       4.424  27.798  52.806  1.00  0.00     0.038 A 
HETATM    2  C   UNL     1       5.018  26.601  53.200  1.00  0.00     0.059 A 
HETATM    3  C   UNL     1       5.524  25.689  52.268  1.00  0.00     0.036 A 
HETATM    4  C   UNL     1       5.344  25.926  50.909  1.00  0.00     0.029 A 
HETATM    5  C   UNL     1       4.724  27.106  50.494  1.00  0.00     0.004 A 
HETATM    6  C   UNL     1       4.276  28.039  51.436  1.00  0.00     0.029 A 
ENDROOT
BRANCH   1   7
HETATM    7  N   UNL     1       3.900  28.750  53.703  1.00  0.00    -0.309 N 
HETATM    8  C   UNL     1       4.399  29.300  54.848  1.00  0.00     0.320 C 
HETATM    9  N   UNL     1       5.737  29.247  55.044  1.00  0.00    -0.338 N 
HETATM   10  O   UNL     1       3.623  29.819  55.646  1.00  0.00    -0.247 OA
HETATM   11  H   UNL     1       6.338  29.179  54.235  1.00  0.00     0.164 HD
HETATM   12  H   UNL     1       2.926  28.998  53.576  1.00  0.00     0.170 HD
BRANCH   9  13
HETATM   13  C   UNL     1       6.369  29.511  56.315  1.00  0.00     0.167 C 
BRANCH  13  14
HETATM   14  C   UNL     1       7.029  28.249  56.767  1.00  0.00     0.009 A 
HETATM   15  C   UNL     1       6.438  27.019  57.009  1.00  0.00     0.034 A 
HETATM   16  C   UNL     1       5.036  26.557  56.892  1.00  0.00     0.070 C 
HETATM   17  N   UNL     1       7.447  26.184  57.397  1.00  0.00    -0.282 N 
HETATM   18  H   UNL     1       7.384  25.206  57.655  1.00  0.00     0.189 HD
HETATM   19  N   UNL     1       8.651  26.768  57.424  1.00  0.00    -0.179 NA
HETATM   20  C   UNL     1       8.411  28.029  57.043  1.00  0.00     0.060 A 
HETATM   21  C   UNL     1       9.531  28.997  56.947  1.00  0.00     0.073 C 
ENDBRANCH  13  14
ENDBRANCH   9  13
ENDBRANCH   1   7
BRANCH   3  22
HETATM   22  N   UNL     1       6.155  24.505  52.701  1.00  0.00    -0.327 N 
HETATM   23  C   UNL     1       7.534  24.355  52.753  1.00  0.00     0.226 C 
HETATM   24  O   UNL     1       8.332  25.102  52.187  1.00  0.00    -0.273 OA
HETATM   25  H   UNL     1       5.589  23.669  52.747  1.00  0.00     0.169 HD
BRANCH  23  26
HETATM   26  C   UNL     1       8.027  23.244  53.670  1.00  0.00     0.078 C 
HETATM   27  C   UNL     1       7.332  23.066  55.013  1.00  0.00     0.014 C 
HETATM   28  C   UNL     1       7.817  21.696  55.461  1.00  0.00     0.001 C 
HETATM   29  C   UNL     1       7.887  20.866  54.182  1.00  0.00     0.001 C 
HETATM   30  C   UNL     1       7.868  21.865  53.026  1.00  0.00     0.014 C 
ENDBRANCH  23  26
ENDBRANCH   3  22
TORSDOF 5
ENDMDL
MODEL 6
REMARK VINA RESULT:      -8.8      4.569      7.997
REMARK  5 active torsions:
REMARK  status: ('A' for Active; 'I' for Inactive)
REMARK    1  A    between atoms: C_8  and  C_9 
REMARK    2  A    between atoms: C_9  and  N_10 
REMARK       I    between atoms: N_10  and  C_11 
REMARK       I    between atoms: C_11  and  N_12 
REMARK    3  A    between atoms: N_12  and  C_13 
REMARK    4  A    between atoms: C_15  and  N_16 
REMARK       I    between atoms: N_16  and  C_17 
REMARK    5  A    between atoms: C_17  and  C_18 
ROOT
HETATM    1  C   UNL     1       8.446  28.692  57.237  1.00  0.00     0.038 A 
HETATM    2  C   UNL     1       8.552  27.310  57.093  1.00  0.00     0.059 A 
HETATM    3  C   UNL     1       7.425  26.500  56.924  1.00  0.00     0.036 A 
HETATM    4  C   UNL     1       6.155  27.066  57.002  1.00  0.00     0.029 A 
HETATM    5  C   UNL     1       6.028  28.446  57.175  1.00  0.00     0.004 A 
HETATM    6  C   UNL     1       7.166  29.254  57.283  1.00  0.00     0.029 A 
ENDROOT
BRANCH   1   7
HETATM    7  N   UNL     1       9.550  29.553  57.409  1.00  0.00    -0.309 N 
HETATM    8  C   UNL     1       9.719  30.685  58.151  1.00  0.00     0.320 C 
HETATM    9  N   UNL     1       8.870  30.897  59.183  1.00  0.00    -0.338 N 
HETATM   10  O   UNL     1      10.628  31.458  57.859  1.00  0.00    -0.247 OA
HETATM   11  H   UNL     1       8.425  30.097  59.611  1.00  0.00     0.164 HD
HETATM   12  H   UNL     1      10.334  29.407  56.784  1.00  0.00     0.170 HD
BRANCH   9  13
HETATM   13  C   UNL     1       8.736  32.166  59.859  1.00  0.00     0.167 C 
BRANCH  13  14
HETATM   14  C   UNL     1       7.415  32.174  60.557  1.00  0.00     0.009 A 
HETATM   15  C   UNL     1       6.153  32.253  59.989  1.00  0.00     0.034 A 
HETATM   16  C   UNL     1       5.708  32.333  58.578  1.00  0.00     0.070 C 
HETATM   17  N   UNL     1       5.268  32.221  61.029  1.00  0.00    -0.282 N 
HETATM   18  H   UNL     1       4.255  32.261  60.988  1.00  0.00     0.189 HD
HETATM   19  N   UNL     1       5.849  32.124  62.231  1.00  0.00    -0.179 NA
HETATM   20  C   UNL     1       7.159  32.095  61.958  1.00  0.00     0.060 A 
HETATM   21  C   UNL     1       8.141  31.984  63.065  1.00  0.00     0.073 C 
ENDBRANCH  13  14
ENDBRANCH   9  13
ENDBRANCH   1   7
BRANCH   3  22
HETATM   22  N   UNL     1       7.567  25.110  56.741  1.00  0.00    -0.327 N 
HETATM   23  C   UNL     1       7.818  24.528  55.506  1.00  0.00     0.226 C 
HETATM   24  O   UNL     1       7.671  25.104  54.429  1.00  0.00    -0.273 OA
HETATM   25  H   UNL     1       7.244  24.509  57.488  1.00  0.00     0.169 HD
BRANCH  23  26
HETATM   26  C   UNL     1       8.410  23.127  55.563  1.00  0.00     0.078 C 
HETATM   27  C   UNL     1       8.314  22.364  56.877  1.00  0.00     0.014 C 
HETATM   28  C   UNL     1       8.652  20.941  56.462  1.00  0.00     0.001 C 
HETATM   29  C   UNL     1       8.017  20.770  55.086  1.00  0.00     0.001 C 
HETATM   30  C   UNL     1       7.723  22.181  54.576  1.00  0.00     0.014 C 
ENDBRANCH  23  26
ENDBRANCH   3  22
TORSDOF 5
ENDMDL
MODEL 7
REMARK VINA RESULT:      -8.7      4.143      7.087
REMARK  5 active torsions:
REMARK  status: ('A' for Active; 'I' for Inactive)
REMARK    1  A    between atoms: C_8  and  C_9 
REMARK    2  A    between atoms: C_9  and  N_10 
REMARK       I    between atoms: N_10  and  C_11 
REMARK       I    between atoms: C_11  and  N_12 
REMARK    3  A    between atoms: N_12  and  C_13 
REMARK    4  A    between atoms: C_15  and  N_16 
REMARK       I    between atoms: N_16  and  C_17 
REMARK    5  A    between atoms: C_17  and  C_18 
ROOT
HETATM    1  C   UNL     1       7.623  29.191  58.062  1.00  0.00     0.038 A 
HETATM    2  C   UNL     1       7.861  27.980  57.416  1.00  0.00     0.059 A 
HETATM    3  C   UNL     1       7.119  27.585  56.299  1.00  0.00     0.036 A 
HETATM    4  C   UNL     1       6.048  28.367  55.875  1.00  0.00     0.029 A 
HETATM    5  C   UNL     1       5.775  29.570  56.527  1.00  0.00     0.004 A 
HETATM    6  C   UNL     1       6.563  29.984  57.608  1.00  0.00     0.029 A 
ENDROOT
BRANCH   1   7
HETATM    7  N   UNL     1       8.342  29.637  59.191  1.00  0.00    -0.309 N 
HETATM    8  C   UNL     1       8.194  30.728  59.996  1.00  0.00     0.320 C 
HETATM    9  N   UNL     1       6.992  31.350  60.005  1.00  0.00    -0.338 N 
HETATM   10  O   UNL     1       9.147  31.098  60.677  1.00  0.00    -0.247 OA
HETATM   11  H   UNL     1       6.173  30.814  59.759  1.00  0.00     0.164 HD
HETATM   12  H   UNL     1       9.208  29.152  59.391  1.00  0.00     0.170 HD
BRANCH   9  13
HETATM   13  C   UNL     1       6.777  32.664  60.563  1.00  0.00     0.167 C 
BRANCH  13  14
HETATM   14  C   UNL     1       5.855  32.519  61.730  1.00  0.00     0.009 A 
HETATM   15  C   UNL     1       4.481  32.339  61.711  1.00  0.00     0.034 A 
HETATM   16  C   UNL     1       3.516  32.218  60.593  1.00  0.00     0.070 C 
HETATM   17  N   UNL     1       4.092  32.257  63.017  1.00  0.00    -0.282 N 
HETATM   18  H   UNL     1       3.155  32.127  63.383  1.00  0.00     0.189 HD
HETATM   19  N   UNL     1       5.102  32.364  63.889  1.00  0.00    -0.179 NA
HETATM   20  C   UNL     1       6.183  32.526  63.117  1.00  0.00     0.060 A 
HETATM   21  C   UNL     1       7.521  32.677  63.743  1.00  0.00     0.073 C 
ENDBRANCH  13  14
ENDBRANCH   9  13
ENDBRANCH   1   7
BRANCH   3  22
HETATM   22  N   UNL     1       7.410  26.371  55.643  1.00  0.00    -0.327 N 
HETATM   23  C   UNL     1       6.753  25.181  55.923  1.00  0.00     0.226 C 
HETATM   24  O   UNL     1       6.070  24.989  56.929  1.00  0.00    -0.273 OA
HETATM   25  H   UNL     1       8.277  26.320  55.127  1.00  0.00     0.169 HD
BRANCH  23  26
HETATM   26  C   UNL     1       6.839  24.125  54.830  1.00  0.00     0.078 C 
HETATM   27  C   UNL     1       7.721  24.417  53.623  1.00  0.00     0.014 C 
HETATM   28  C   UNL     1       7.848  23.053  52.965  1.00  0.00     0.001 C 
HETATM   29  C   UNL     1       7.924  22.062  54.123  1.00  0.00     0.001 C 
HETATM   30  C   UNL     1       7.414  22.809  55.355  1.00  0.00     0.014 C 
ENDBRANCH  23  26
ENDBRANCH   3  22
TORSDOF 5
ENDMDL
MODEL 8
REMARK VINA RESULT:      -8.6     10.959     13.620
REMARK  5 active torsions:
REMARK  status: ('A' for Active; 'I' for Inactive)
REMARK    1  A    between atoms: C_8  and  C_9 
REMARK    2  A    between atoms: C_9  and  N_10 
REMARK       I    between atoms: N_10  and  C_11 
REMARK       I    between atoms: C_11  and  N_12 
REMARK    3  A    between atoms: N_12  and  C_13 
REMARK    4  A    between atoms: C_15  and  N_16 
REMARK       I    between atoms: N_16  and  C_17 
REMARK    5  A    between atoms: C_17  and  C_18 
ROOT
HETATM    1  C   UNL     1       5.141  27.620  53.532  1.00  0.00     0.038 A 
HETATM    2  C   UNL     1       5.231  26.240  53.702  1.00  0.00     0.059 A 
HETATM    3  C   UNL     1       6.457  25.605  53.923  1.00  0.00     0.036 A 
HETATM    4  C   UNL     1       7.633  26.347  53.871  1.00  0.00     0.029 A 
HETATM    5  C   UNL     1       7.567  27.727  53.671  1.00  0.00     0.004 A 
HETATM    6  C   UNL     1       6.328  28.360  53.512  1.00  0.00     0.029 A 
ENDROOT
BRANCH   1   7
HETATM    7  N   UNL     1       3.931  28.309  53.308  1.00  0.00    -0.309 N 
HETATM    8  C   UNL     1       3.240  28.597  52.167  1.00  0.00     0.320 C 
HETATM    9  N   UNL     1       3.495  27.849  51.068  1.00  0.00    -0.338 N 
HETATM   10  O   UNL     1       2.422  29.512  52.182  1.00  0.00    -0.247 OA
HETATM   11  H   UNL     1       3.851  26.913  51.197  1.00  0.00     0.164 HD
HETATM   12  H   UNL     1       3.543  28.803  54.102  1.00  0.00     0.170 HD
BRANCH   9  13
HETATM   13  C   UNL     1       3.074  28.216  49.737  1.00  0.00     0.167 C 
BRANCH  13  14
HETATM   14  C   UNL     1       4.154  27.812  48.788  1.00  0.00     0.009 A 
HETATM   15  C   UNL     1       5.366  28.444  48.560  1.00  0.00     0.034 A 
HETATM   16  C   UNL     1       5.976  29.655  49.156  1.00  0.00     0.070 C 
HETATM   17  N   UNL     1       6.009  27.698  47.613  1.00  0.00    -0.282 N 
HETATM   18  H   UNL     1       6.921  27.864  47.201  1.00  0.00     0.189 HD
HETATM   19  N   UNL     1       5.317  26.627  47.207  1.00  0.00    -0.179 NA
HETATM   20  C   UNL     1       4.182  26.685  47.915  1.00  0.00     0.060 A 
HETATM   21  C   UNL     1       3.146  25.638  47.735  1.00  0.00     0.073 C 
ENDBRANCH  13  14
ENDBRANCH   9  13
ENDBRANCH   1   7
BRANCH   3  22
HETATM   22  N   UNL     1       6.511  24.212  54.131  1.00  0.00    -0.327 N 
HETATM   23  C   UNL     1       7.335  23.366  53.402  1.00  0.00     0.226 C 
HETATM   24  O   UNL     1       7.881  23.677  52.344  1.00  0.00    -0.273 OA
HETATM   25  H   UNL     1       5.759  23.794  54.662  1.00  0.00     0.169 HD
BRANCH  23  26
HETATM   26  C   UNL     1       7.624  22.024  54.059  1.00  0.00     0.078 C 
HETATM   27  C   UNL     1       8.330  20.959  53.230  1.00  0.00     0.014 C 
HETATM   28  C   UNL     1       8.763  19.950  54.281  1.00  0.00     0.001 C 
HETATM   29  C   UNL     1       9.158  20.789  55.493  1.00  0.00     0.001 C 
HETATM   30  C   UNL     1       8.547  22.172  55.270  1.00  0.00     0.014 C 
ENDBRANCH  23  26
ENDBRANCH   3  22
TORSDOF 5
ENDMDL
MODEL 9
REMARK VINA RESULT:      -8.5     10.759     13.565
REMARK  5 active torsions:
REMARK  status: ('A' for Active; 'I' for Inactive)
REMARK    1  A    between atoms: C_8  and  C_9 
REMARK    2  A    between atoms: C_9  and  N_10 
REMARK       I    between atoms: N_10  and  C_11 
REMARK       I    between atoms: C_11  and  N_12 
REMARK    3  A    between atoms: N_12  and  C_13 
REMARK    4  A    between atoms: C_15  and  N_16 
REMARK       I    between atoms: N_16  and  C_17 
REMARK    5  A    between atoms: C_17  and  C_18 
ROOT
HETATM    1  C   UNL     1       5.952  27.869  53.344  1.00  0.00     0.038 A 
HETATM    2  C   UNL     1       6.765  26.754  53.148  1.00  0.00     0.059 A 
HETATM    3  C   UNL     1       6.763  25.677  54.040  1.00  0.00     0.036 A 
HETATM    4  C   UNL     1       6.011  25.754  55.208  1.00  0.00     0.029 A 
HETATM    5  C   UNL     1       5.212  26.876  55.438  1.00  0.00     0.004 A 
HETATM    6  C   UNL     1       5.176  27.922  54.508  1.00  0.00     0.029 A 
ENDROOT
BRANCH   1   7
HETATM    7  N   UNL     1       5.915  28.980  52.477  1.00  0.00    -0.309 N 
HETATM    8  C   UNL     1       5.648  29.090  51.143  1.00  0.00     0.320 C 
HETATM    9  N   UNL     1       4.964  28.084  50.550  1.00  0.00    -0.338 N 
HETATM   10  O   UNL     1       6.034  30.088  50.540  1.00  0.00    -0.247 OA
HETATM   11  H   UNL     1       4.356  27.515  51.121  1.00  0.00     0.164 HD
HETATM   12  H   UNL     1       6.269  29.852  52.850  1.00  0.00     0.170 HD
BRANCH   9  13
HETATM   13  C   UNL     1       4.869  27.918  49.119  1.00  0.00     0.167 C 
BRANCH  13  14
HETATM   14  C   UNL     1       3.420  27.847  48.762  1.00  0.00     0.009 A 
HETATM   15  C   UNL     1       2.477  28.861  48.829  1.00  0.00     0.034 A 
HETATM   16  C   UNL     1       2.581  30.281  49.237  1.00  0.00     0.070 C 
HETATM   17  N   UNL     1       1.302  28.314  48.397  1.00  0.00    -0.282 N 
HETATM   18  H   UNL     1       0.397  28.763  48.314  1.00  0.00     0.189 HD
HETATM   19  N   UNL     1       1.402  27.025  48.049  1.00  0.00    -0.179 NA
HETATM   20  C   UNL     1       2.689  26.727  48.268  1.00  0.00     0.060 A 
HETATM   21  C   UNL     1       3.188  25.359  47.985  1.00  0.00     0.073 C 
ENDBRANCH  13  14
ENDBRANCH   9  13
ENDBRANCH   1   7
BRANCH   3  22
HETATM   22  N   UNL     1       7.568  24.546  53.792  1.00  0.00    -0.327 N 
HETATM   23  C   UNL     1       8.274  23.885  54.788  1.00  0.00     0.226 C 
HETATM   24  O   UNL     1       8.499  24.353  55.904  1.00  0.00    -0.273 OA
HETATM   25  H   UNL     1       7.822  24.360  52.832  1.00  0.00     0.169 HD
BRANCH  23  26
HETATM   26  C   UNL     1       8.676  22.456  54.450  1.00  0.00     0.078 C 
HETATM   27  C   UNL     1       8.213  21.344  55.383  1.00  0.00     0.014 C 
HETATM   28  C   UNL     1       8.468  20.091  54.561  1.00  0.00     0.001 C 
HETATM   29  C   UNL     1       8.130  20.485  53.126  1.00  0.00     0.001 C 
HETATM   30  C   UNL     1       8.116  22.013  53.097  1.00  0.00     0.014 C 
ENDBRANCH  23  26
ENDBRANCH   3  22
TORSDOF 5
ENDMDL
MODEL 10
REMARK VINA RESULT:      -8.5     10.589     13.428
REMARK  5 active torsions:
REMARK  status: ('A' for Active; 'I' for Inactive)
REMARK    1  A    between atoms: C_8  and  C_9 
REMARK    2  A    between atoms: C_9  and  N_10 
REMARK       I    between atoms: N_10  and  C_11 
REMARK       I    between atoms: C_11  and  N_12 
REMARK    3  A    between atoms: N_12  and  C_13 
REMARK    4  A    between atoms: C_15  and  N_16 
REMARK       I    between atoms: N_16  and  C_17 
REMARK    5  A    between atoms: C_17  and  C_18 
ROOT
HETATM    1  C   UNL     1       5.920  27.942  53.429  1.00  0.00     0.038 A 
HETATM    2  C   UNL     1       6.387  26.652  53.191  1.00  0.00     0.059 A 
HETATM    3  C   UNL     1       6.179  25.614  54.105  1.00  0.00     0.036 A 
HETATM    4  C   UNL     1       5.581  25.890  55.331  1.00  0.00     0.029 A 
HETATM    5  C   UNL     1       5.133  27.184  55.602  1.00  0.00     0.004 A 
HETATM    6  C   UNL     1       5.293  28.201  54.653  1.00  0.00     0.029 A 
ENDROOT
BRANCH   1   7
HETATM    7  N   UNL     1       6.102  29.023  52.541  1.00  0.00    -0.309 N 
HETATM    8  C   UNL     1       5.446  29.392  51.404  1.00  0.00     0.320 C 
HETATM    9  N   UNL     1       4.197  28.908  51.208  1.00  0.00    -0.338 N 
HETATM   10  O   UNL     1       6.007  30.142  50.610  1.00  0.00    -0.247 OA
HETATM   11  H   UNL     1       3.654  28.641  52.018  1.00  0.00     0.164 HD
HETATM   12  H   UNL     1       6.943  29.572  52.670  1.00  0.00     0.170 HD
BRANCH   9  13
HETATM   13  C   UNL     1       3.507  28.965  49.942  1.00  0.00     0.167 C 
BRANCH  13  14
HETATM   14  C   UNL     1       4.292  28.161  48.958  1.00  0.00     0.009 A 
HETATM   15  C   UNL     1       4.700  26.840  49.070  1.00  0.00     0.034 A 
HETATM   16  C   UNL     1       4.493  25.831  50.134  1.00  0.00     0.070 C 
HETATM   17  N   UNL     1       5.380  26.555  47.921  1.00  0.00    -0.282 N 
HETATM   18  H   UNL     1       5.823  25.682  47.658  1.00  0.00     0.189 HD
HETATM   19  N   UNL     1       5.448  27.581  47.064  1.00  0.00    -0.179 NA
HETATM   20  C   UNL     1       4.789  28.568  47.685  1.00  0.00     0.060 A 
HETATM   21  C   UNL     1       4.647  29.889  47.025  1.00  0.00     0.073 C 
ENDBRANCH  13  14
ENDBRANCH   9  13
ENDBRANCH   1   7
BRANCH   3  22
HETATM   22  N   UNL     1       6.629  24.309  53.817  1.00  0.00    -0.327 N 
HETATM   23  C   UNL     1       7.642  23.682  54.528  1.00  0.00     0.226 C 
HETATM   24  O   UNL     1       8.426  24.266  55.276  1.00  0.00    -0.273 OA
HETATM   25  H   UNL     1       6.368  23.917  52.923  1.00  0.00     0.169 HD
BRANCH  23  26
HETATM   26  C   UNL     1       7.664  22.164  54.414  1.00  0.00     0.078 C 
HETATM   27  C   UNL     1       8.640  21.536  53.427  1.00  0.00     0.014 C 
HETATM   28  C   UNL     1       8.642  20.074  53.845  1.00  0.00     0.001 C 
HETATM   29  C   UNL     1       8.538  20.099  55.367  1.00  0.00     0.001 C 
HETATM   30  C   UNL     1       8.052  21.500  55.737  1.00  0.00     0.014 C 
ENDBRANCH  23  26
ENDBRANCH   3  22
TORSDOF 5
ENDMDL
