MODEL 1
REMARK VINA RESULT:      -9.2      0.000      0.000
REMARK  8 active torsions:
REMARK  status: ('A' for Active; 'I' for Inactive)
REMARK    1  A    between atoms: C_2  and  C_3 
REMARK    2  A    between atoms: C_3  and  N_4 
REMARK    3  A    between atoms: N_9  and  C_11 
REMARK    4  A    between atoms: C_11  and  C_12 
REMARK    5  A    between atoms: C_14  and  C_15 
REMARK    6  A    between atoms: C_15  and  C_16 
REMARK    7  A    between atoms: C_16  and  C_17 
REMARK    8  A    between atoms: C_17  and  O_18 
ROOT
HETATM    1  N   UNL     1       7.136  25.647  54.957  1.00  0.00    -0.066 N 
HETATM    2  H   UNL     1       7.775  25.273  55.670  1.00  0.00     0.280 HD
HETATM    3  C   UNL     1       7.232  27.157  54.938  1.00  0.00     0.246 C 
HETATM    4  C   UNL     1       6.887  27.742  56.319  1.00  0.00     0.009 C 
HETATM    5  C   UNL     1       6.958  29.280  56.281  1.00  0.00     0.246 C 
HETATM    6  N   UNL     1       7.203  29.686  57.717  1.00  0.00    -0.066 N 
HETATM    7  H   UNL     1       6.289  29.902  58.149  1.00  0.00     0.280 HD
HETATM    8  C   UNL     1       7.791  28.507  58.452  1.00  0.00     0.236 C 
HETATM    9  C   UNL     1       7.961  27.436  57.380  1.00  0.00     0.040 C 
HETATM   10  C   UNL     1       5.485  27.248  56.742  1.00  0.00     0.014 C 
HETATM   11  C   UNL     1       5.345  25.725  56.662  1.00  0.00     0.029 C 
HETATM   12  C   UNL     1       5.742  25.170  55.299  1.00  0.00     0.235 C 
ENDROOT
BRANCH   1  13
HETATM   13  C   UNL     1       7.618  25.006  53.653  1.00  0.00     0.273 C 
BRANCH  13  14
HETATM   14  C   UNL     1       8.061  23.578  53.846  1.00  0.00    -0.032 A 
HETATM   15  C   UNL     1       7.722  22.588  52.906  1.00  0.00     0.012 A 
HETATM   16  C   UNL     1       8.072  21.255  53.129  1.00  0.00     0.043 A 
HETATM   17  C   UNL     1       8.769  20.909  54.281  1.00  0.00     0.116 A 
HETATM   18  C   UNL     1       9.135  21.874  55.209  1.00  0.00     0.043 A 
HETATM   19  F   UNL     1       9.087  19.629  54.499  1.00  0.00    -0.206 F 
HETATM   20  C   UNL     1       8.786  23.209  54.993  1.00  0.00     0.012 A 
ENDBRANCH  13  14
ENDBRANCH   1  13
BRANCH   6  21
HETATM   21  C   UNL     1       7.994  30.970  57.885  1.00  0.00     0.280 C 
BRANCH  21  22
HETATM   22  C   UNL     1       8.324  31.245  59.313  1.00  0.00     0.009 A 
HETATM   23  S   UNL     1       7.194  32.083  60.296  1.00  0.00    -0.084 SA
HETATM   24  C   UNL     1       8.218  32.010  61.658  1.00  0.00     0.058 A 
HETATM   25  C   UNL     1       9.397  31.357  61.378  1.00  0.00     0.029 A 
HETATM   26  C   UNL     1       9.459  30.910  60.023  1.00  0.00     0.018 A 
BRANCH  24  27
HETATM   27  C   UNL     1       7.869  32.568  62.922  1.00  0.00    -0.057 C 
BRANCH  27  28
HETATM   28  C   UNL     1       7.560  33.058  63.975  1.00  0.00    -0.075 C 
BRANCH  28  29
HETATM   29  C   UNL     1       7.221  33.667  65.259  1.00  0.00     0.258 C 
BRANCH  29  30
HETATM   30  O   UNL     1       6.439  34.829  65.035  1.00  0.00    -0.389 OA
HETATM   31  H   UNL     1       5.540  34.627  65.345  1.00  0.00     0.210 HD
ENDBRANCH  29  30
ENDBRANCH  28  29
ENDBRANCH  27  28
ENDBRANCH  24  27
ENDBRANCH  21  22
ENDBRANCH   6  21
TORSDOF 8
ENDMDL
MODEL 2
REMARK VINA RESULT:      -8.6      5.646     10.700
REMARK  8 active torsions:
REMARK  status: ('A' for Active; 'I' for Inactive)
REMARK    1  A    between atoms: C_2  and  C_3 
REMARK    2  A    between atoms: C_3  and  N_4 
REMARK    3  A    between atoms: N_9  and  C_11 
REMARK    4  A    between atoms: C_11  and  C_12 
REMARK    5  A    between atoms: C_14  and  C_15 
REMARK    6  A    between atoms: C_15  and  C_16 
REMARK    7  A    between atoms: C_16  and  C_17 
REMARK    8  A    between atoms: C_17  and  O_18 
ROOT
HETATM    1  N   UNL     1       9.473  30.843  58.472  1.00  0.00    -0.066 N 
HETATM    2  H   UNL     1       9.539  30.057  59.133  1.00  0.00     0.280 HD
HETATM    3  C   UNL     1       8.256  30.661  57.592  1.00  0.00     0.246 C 
HETATM    4  C   UNL     1       8.333  29.328  56.826  1.00  0.00     0.009 C 
HETATM    5  C   UNL     1       7.104  29.167  55.911  1.00  0.00     0.246 C 
HETATM    6  N   UNL     1       6.975  27.674  55.706  1.00  0.00    -0.066 N 
HETATM    7  H   UNL     1       7.459  27.429  54.826  1.00  0.00     0.280 HD
HETATM    8  C   UNL     1       7.691  26.975  56.834  1.00  0.00     0.236 C 
HETATM    9  C   UNL     1       8.163  28.104  57.744  1.00  0.00     0.040 C 
HETATM   10  C   UNL     1       9.651  29.282  56.021  1.00  0.00     0.014 C 
HETATM   11  C   UNL     1      10.882  29.572  56.885  1.00  0.00     0.029 C 
HETATM   12  C   UNL     1      10.756  30.871  57.671  1.00  0.00     0.235 C 
ENDROOT
BRANCH   1  13
HETATM   13  C   UNL     1       9.375  32.077  59.373  1.00  0.00     0.273 C 
BRANCH  13  14
HETATM   14  C   UNL     1       8.332  31.921  60.450  1.00  0.00    -0.032 A 
HETATM   15  C   UNL     1       7.037  32.441  60.276  1.00  0.00     0.012 A 
HETATM   16  C   UNL     1       6.100  32.358  61.307  1.00  0.00     0.043 A 
HETATM   17  C   UNL     1       6.448  31.748  62.506  1.00  0.00     0.116 A 
HETATM   18  C   UNL     1       7.713  31.207  62.690  1.00  0.00     0.043 A 
HETATM   19  F   UNL     1       5.553  31.687  63.498  1.00  0.00    -0.206 F 
HETATM   20  C   UNL     1       8.656  31.289  61.664  1.00  0.00     0.012 A 
ENDBRANCH  13  14
ENDBRANCH   1  13
BRANCH   6  21
HETATM   21  C   UNL     1       5.555  27.187  55.485  1.00  0.00     0.280 C 
BRANCH  21  22
HETATM   22  C   UNL     1       5.372  26.580  54.136  1.00  0.00     0.009 A 
HETATM   23  S   UNL     1       5.242  27.598  52.761  1.00  0.00    -0.084 SA
HETATM   24  C   UNL     1       5.065  26.270  51.706  1.00  0.00     0.058 A 
HETATM   25  C   UNL     1       5.108  25.070  52.381  1.00  0.00     0.029 A 
HETATM   26  C   UNL     1       5.288  25.247  53.787  1.00  0.00     0.018 A 
BRANCH  24  27
HETATM   27  C   UNL     1       4.894  26.414  50.299  1.00  0.00    -0.057 C 
BRANCH  27  28
HETATM   28  C   UNL     1       4.762  26.560  49.113  1.00  0.00    -0.075 C 
BRANCH  28  29
HETATM   29  C   UNL     1       4.631  26.762  47.672  1.00  0.00     0.258 C 
BRANCH  29  30
HETATM   30  O   UNL     1       5.922  26.765  47.081  1.00  0.00    -0.389 OA
HETATM   31  H   UNL     1       5.790  26.813  46.119  1.00  0.00     0.210 HD
ENDBRANCH  29  30
ENDBRANCH  28  29
ENDBRANCH  27  28
ENDBRANCH  24  27
ENDBRANCH  21  22
ENDBRANCH   6  21
TORSDOF 8
ENDMDL
MODEL 3
REMARK VINA RESULT:      -8.4      2.741      3.705
REMARK  8 active torsions:
REMARK  status: ('A' for Active; 'I' for Inactive)
REMARK    1  A    between atoms: C_2  and  C_3 
REMARK    2  A    between atoms: C_3  and  N_4 
REMARK    3  A    between atoms: N_9  and  C_11 
REMARK    4  A    between atoms: C_11  and  C_12 
REMARK    5  A    between atoms: C_14  and  C_15 
REMARK    6  A    between atoms: C_15  and  C_16 
REMARK    7  A    between atoms: C_16  and  C_17 
REMARK    8  A    between atoms: C_17  and  O_18 
ROOT
HETATM    1  N   UNL     1       6.510  25.683  55.230  1.00  0.00    -0.066 N 
HETATM    2  H   UNL     1       7.227  26.030  54.580  1.00  0.00     0.280 HD
HETATM    3  C   UNL     1       6.098  26.797  56.168  1.00  0.00     0.246 C 
HETATM    4  C   UNL     1       7.314  27.325  56.951  1.00  0.00     0.009 C 
HETATM    5  C   UNL     1       6.880  28.438  57.924  1.00  0.00     0.246 C 
HETATM    6  N   UNL     1       8.134  29.249  58.159  1.00  0.00    -0.066 N 
HETATM    7  H   UNL     1       8.586  28.898  59.019  1.00  0.00     0.280 HD
HETATM    8  C   UNL     1       9.081  29.006  57.010  1.00  0.00     0.236 C 
HETATM    9  C   UNL     1       8.304  28.099  56.062  1.00  0.00     0.040 C 
HETATM   10  C   UNL     1       7.986  26.150  57.695  1.00  0.00     0.014 C 
HETATM   11  C   UNL     1       8.309  24.972  56.771  1.00  0.00     0.029 C 
HETATM   12  C   UNL     1       7.099  24.504  55.971  1.00  0.00     0.235 C 
ENDROOT
BRANCH   1  13
HETATM   13  C   UNL     1       5.370  25.227  54.315  1.00  0.00     0.273 C 
BRANCH  13  14
HETATM   14  C   UNL     1       5.336  25.990  53.016  1.00  0.00    -0.032 A 
HETATM   15  C   UNL     1       5.052  25.334  51.804  1.00  0.00     0.012 A 
HETATM   16  C   UNL     1       5.096  26.033  50.597  1.00  0.00     0.043 A 
HETATM   17  C   UNL     1       5.412  27.386  50.595  1.00  0.00     0.116 A 
HETATM   18  C   UNL     1       5.672  28.058  51.782  1.00  0.00     0.043 A 
HETATM   19  F   UNL     1       5.471  28.047  49.435  1.00  0.00    -0.206 F 
HETATM   20  C   UNL     1       5.632  27.365  52.993  1.00  0.00     0.012 A 
ENDBRANCH  13  14
ENDBRANCH   1  13
BRANCH   6  21
HETATM   21  C   UNL     1       7.891  30.718  58.452  1.00  0.00     0.280 C 
BRANCH  21  22
HETATM   22  C   UNL     1       8.213  31.071  59.865  1.00  0.00     0.009 A 
HETATM   23  S   UNL     1       7.096  31.996  60.782  1.00  0.00    -0.084 SA
HETATM   24  C   UNL     1       8.103  31.979  62.158  1.00  0.00     0.058 A 
HETATM   25  C   UNL     1       9.268  31.280  61.932  1.00  0.00     0.029 A 
HETATM   26  C   UNL     1       9.332  30.750  60.607  1.00  0.00     0.018 A 
BRANCH  24  27
HETATM   27  C   UNL     1       7.756  32.622  63.381  1.00  0.00    -0.057 C 
BRANCH  27  28
HETATM   28  C   UNL     1       7.437  33.159  64.408  1.00  0.00    -0.075 C 
BRANCH  28  29
HETATM   29  C   UNL     1       7.019  33.788  65.659  1.00  0.00     0.258 C 
BRANCH  29  30
HETATM   30  O   UNL     1       5.655  33.482  65.903  1.00  0.00    -0.389 OA
HETATM   31  H   UNL     1       5.335  34.127  66.557  1.00  0.00     0.210 HD
ENDBRANCH  29  30
ENDBRANCH  28  29
ENDBRANCH  27  28
ENDBRANCH  24  27
ENDBRANCH  21  22
ENDBRANCH   6  21
TORSDOF 8
ENDMDL
MODEL 4
REMARK VINA RESULT:      -8.4      5.320     11.022
REMARK  8 active torsions:
REMARK  status: ('A' for Active; 'I' for Inactive)
REMARK    1  A    between atoms: C_2  and  C_3 
REMARK    2  A    between atoms: C_3  and  N_4 
REMARK    3  A    between atoms: N_9  and  C_11 
REMARK    4  A    between atoms: C_11  and  C_12 
REMARK    5  A    between atoms: C_14  and  C_15 
REMARK    6  A    between atoms: C_15  and  C_16 
REMARK    7  A    between atoms: C_16  and  C_17 
REMARK    8  A    between atoms: C_17  and  O_18 
ROOT
HETATM    1  N   UNL     1       7.062  31.192  59.049  1.00  0.00    -0.066 N 
HETATM    2  H   UNL     1       6.945  30.390  59.681  1.00  0.00     0.280 HD
HETATM    3  C   UNL     1       6.513  30.842  57.683  1.00  0.00     0.246 C 
HETATM    4  C   UNL     1       7.229  29.605  57.111  1.00  0.00     0.009 C 
HETATM    5  C   UNL     1       6.684  29.275  55.709  1.00  0.00     0.246 C 
HETATM    6  N   UNL     1       6.979  27.803  55.523  1.00  0.00    -0.066 N 
HETATM    7  H   UNL     1       7.875  27.718  55.016  1.00  0.00     0.280 HD
HETATM    8  C   UNL     1       7.158  27.177  56.883  1.00  0.00     0.236 C 
HETATM    9  C   UNL     1       6.874  28.310  57.864  1.00  0.00     0.040 C 
HETATM   10  C   UNL     1       8.751  29.870  57.081  1.00  0.00     0.014 C 
HETATM   11  C   UNL     1       9.298  30.330  58.436  1.00  0.00     0.029 C 
HETATM   12  C   UNL     1       8.537  31.523  59.002  1.00  0.00     0.235 C 
ENDROOT
BRANCH   1  13
HETATM   13  C   UNL     1       6.280  32.319  59.731  1.00  0.00     0.273 C 
BRANCH  13  14
HETATM   14  C   UNL     1       6.715  32.538  61.157  1.00  0.00    -0.032 A 
HETATM   15  C   UNL     1       7.581  31.629  61.792  1.00  0.00     0.012 A 
HETATM   16  C   UNL     1       7.919  31.798  63.136  1.00  0.00     0.043 A 
HETATM   17  C   UNL     1       7.404  32.877  63.845  1.00  0.00     0.116 A 
HETATM   18  C   UNL     1       6.567  33.799  63.231  1.00  0.00     0.043 A 
HETATM   19  F   UNL     1       7.716  33.025  65.137  1.00  0.00    -0.206 F 
HETATM   20  C   UNL     1       6.222  33.634  61.888  1.00  0.00     0.012 A 
ENDBRANCH  13  14
ENDBRANCH   1  13
BRANCH   6  21
HETATM   21  C   UNL     1       5.991  27.068  54.636  1.00  0.00     0.280 C 
BRANCH  21  22
HETATM   22  C   UNL     1       6.631  25.946  53.890  1.00  0.00     0.009 A 
HETATM   23  S   UNL     1       6.852  24.432  54.665  1.00  0.00    -0.084 SA
HETATM   24  C   UNL     1       7.580  23.749  53.282  1.00  0.00     0.058 A 
HETATM   25  C   UNL     1       7.652  24.651  52.244  1.00  0.00     0.029 A 
HETATM   26  C   UNL     1       7.100  25.922  52.592  1.00  0.00     0.018 A 
BRANCH  24  27
HETATM   27  C   UNL     1       8.050  22.405  53.236  1.00  0.00    -0.057 C 
BRANCH  27  28
HETATM   28  C   UNL     1       8.420  21.263  53.198  1.00  0.00    -0.075 C 
BRANCH  28  29
HETATM   29  C   UNL     1       8.834  19.862  53.147  1.00  0.00     0.258 C 
BRANCH  29  30
HETATM   30  O   UNL     1       9.026  19.382  54.468  1.00  0.00    -0.389 OA
HETATM   31  H   UNL     1       9.977  19.451  54.657  1.00  0.00     0.210 HD
ENDBRANCH  29  30
ENDBRANCH  28  29
ENDBRANCH  27  28
ENDBRANCH  24  27
ENDBRANCH  21  22
ENDBRANCH   6  21
TORSDOF 8
ENDMDL
MODEL 5
REMARK VINA RESULT:      -8.3      6.763      9.925
REMARK  8 active torsions:
REMARK  status: ('A' for Active; 'I' for Inactive)
REMARK    1  A    between atoms: C_2  and  C_3 
REMARK    2  A    between atoms: C_3  and  N_4 
REMARK    3  A    between atoms: N_9  and  C_11 
REMARK    4  A    between atoms: C_11  and  C_12 
REMARK    5  A    between atoms: C_14  and  C_15 
REMARK    6  A    between atoms: C_15  and  C_16 
REMARK    7  A    between atoms: C_16  and  C_17 
REMARK    8  A    between atoms: C_17  and  O_18 
ROOT
HETATM    1  N   UNL     1       7.243  24.935  56.189  1.00  0.00    -0.066 N 
HETATM    2  H   UNL     1       8.041  25.569  56.055  1.00  0.00     0.280 HD
HETATM    3  C   UNL     1       6.529  24.735  54.870  1.00  0.00     0.246 C 
HETATM    4  C   UNL     1       6.047  26.084  54.304  1.00  0.00     0.009 C 
HETATM    5  C   UNL     1       5.296  25.866  52.976  1.00  0.00     0.246 C 
HETATM    6  N   UNL     1       5.411  27.190  52.253  1.00  0.00    -0.066 N 
HETATM    7  H   UNL     1       4.561  27.740  52.456  1.00  0.00     0.280 HD
HETATM    8  C   UNL     1       6.591  27.941  52.819  1.00  0.00     0.236 C 
HETATM    9  C   UNL     1       7.206  26.979  53.829  1.00  0.00     0.040 C 
HETATM   10  C   UNL     1       5.155  26.783  55.353  1.00  0.00     0.014 C 
HETATM   11  C   UNL     1       5.829  26.893  56.724  1.00  0.00     0.029 C 
HETATM   12  C   UNL     1       6.342  25.552  57.236  1.00  0.00     0.235 C 
ENDROOT
BRANCH   1  13
HETATM   13  C   UNL     1       7.879  23.647  56.720  1.00  0.00     0.273 C 
BRANCH  13  14
HETATM   14  C   UNL     1       8.141  22.643  55.627  1.00  0.00    -0.032 A 
HETATM   15  C   UNL     1       8.918  22.989  54.506  1.00  0.00     0.012 A 
HETATM   16  C   UNL     1       9.094  22.078  53.463  1.00  0.00     0.043 A 
HETATM   17  C   UNL     1       8.508  20.820  53.540  1.00  0.00     0.116 A 
HETATM   18  C   UNL     1       7.758  20.450  54.649  1.00  0.00     0.043 A 
HETATM   19  F   UNL     1       8.664  19.957  52.531  1.00  0.00    -0.206 F 
HETATM   20  C   UNL     1       7.575  21.358  55.694  1.00  0.00     0.012 A 
ENDBRANCH  13  14
ENDBRANCH   1  13
BRANCH   6  21
HETATM   21  C   UNL     1       5.421  27.084  50.739  1.00  0.00     0.280 C 
BRANCH  21  22
HETATM   22  C   UNL     1       4.159  27.594  50.131  1.00  0.00     0.009 A 
HETATM   23  S   UNL     1       3.528  26.834  48.729  1.00  0.00    -0.084 SA
HETATM   24  C   UNL     1       2.201  27.902  48.659  1.00  0.00     0.058 A 
HETATM   25  C   UNL     1       2.228  28.821  49.686  1.00  0.00     0.029 A 
HETATM   26  C   UNL     1       3.359  28.642  50.540  1.00  0.00     0.018 A 
BRANCH  24  27
HETATM   27  C   UNL     1       1.199  27.831  47.649  1.00  0.00    -0.057 C 
BRANCH  27  28
HETATM   28  C   UNL     1       0.371  27.784  46.779  1.00  0.00    -0.075 C 
BRANCH  28  29
HETATM   29  C   UNL     1      -0.608  27.733  45.696  1.00  0.00     0.258 C 
BRANCH  29  30
HETATM   30  O   UNL     1      -0.200  26.766  44.741  1.00  0.00    -0.389 OA
HETATM   31  H   UNL     1       0.404  26.156  45.199  1.00  0.00     0.210 HD
ENDBRANCH  29  30
ENDBRANCH  28  29
ENDBRANCH  27  28
ENDBRANCH  24  27
ENDBRANCH  21  22
ENDBRANCH   6  21
TORSDOF 8
ENDMDL
MODEL 6
REMARK VINA RESULT:      -8.1      7.290     11.295
REMARK  8 active torsions:
REMARK  status: ('A' for Active; 'I' for Inactive)
REMARK    1  A    between atoms: C_2  and  C_3 
REMARK    2  A    between atoms: C_3  and  N_4 
REMARK    3  A    between atoms: N_9  and  C_11 
REMARK    4  A    between atoms: C_11  and  C_12 
REMARK    5  A    between atoms: C_14  and  C_15 
REMARK    6  A    between atoms: C_15  and  C_16 
REMARK    7  A    between atoms: C_16  and  C_17 
REMARK    8  A    between atoms: C_17  and  O_18 
ROOT
HETATM    1  N   UNL     1       6.678  24.601  55.491  1.00  0.00    -0.066 N 
HETATM    2  H   UNL     1       5.707  24.269  55.428  1.00  0.00     0.280 HD
HETATM    3  C   UNL     1       6.871  25.776  54.557  1.00  0.00     0.246 C 
HETATM    4  C   UNL     1       6.539  25.378  53.108  1.00  0.00     0.009 C 
HETATM    5  C   UNL     1       6.766  26.571  52.161  1.00  0.00     0.246 C 
HETATM    6  N   UNL     1       5.883  26.285  50.968  1.00  0.00    -0.066 N 
HETATM    7  H   UNL     1       6.458  25.815  50.249  1.00  0.00     0.280 HD
HETATM    8  C   UNL     1       4.803  25.322  51.394  1.00  0.00     0.236 C 
HETATM    9  C   UNL     1       5.036  25.127  52.889  1.00  0.00     0.040 C 
HETATM   10  C   UNL     1       7.403  24.162  52.707  1.00  0.00     0.014 C 
HETATM   11  C   UNL     1       7.298  23.005  53.705  1.00  0.00     0.029 C 
HETATM   12  C   UNL     1       7.581  23.440  55.139  1.00  0.00     0.235 C 
ENDROOT
BRANCH   1  13
HETATM   13  C   UNL     1       6.844  24.982  56.965  1.00  0.00     0.273 C 
BRANCH  13  14
HETATM   14  C   UNL     1       6.828  26.474  57.178  1.00  0.00    -0.032 A 
HETATM   15  C   UNL     1       8.006  27.165  57.514  1.00  0.00     0.012 A 
HETATM   16  C   UNL     1       7.968  28.534  57.782  1.00  0.00     0.043 A 
HETATM   17  C   UNL     1       6.761  29.218  57.706  1.00  0.00     0.116 A 
HETATM   18  C   UNL     1       5.591  28.560  57.352  1.00  0.00     0.043 A 
HETATM   19  F   UNL     1       6.726  30.526  57.982  1.00  0.00    -0.206 F 
HETATM   20  C   UNL     1       5.621  27.190  57.086  1.00  0.00     0.012 A 
ENDBRANCH  13  14
ENDBRANCH   1  13
BRANCH   6  21
HETATM   21  C   UNL     1       5.358  27.520  50.259  1.00  0.00     0.280 C 
BRANCH  21  22
HETATM   22  C   UNL     1       4.456  27.176  49.122  1.00  0.00     0.009 A 
HETATM   23  S   UNL     1       2.977  28.024  48.929  1.00  0.00    -0.084 SA
HETATM   24  C   UNL     1       2.562  27.127  47.538  1.00  0.00     0.058 A 
HETATM   25  C   UNL     1       3.530  26.200  47.219  1.00  0.00     0.029 A 
HETATM   26  C   UNL     1       4.629  26.229  48.133  1.00  0.00     0.018 A 
BRANCH  24  27
HETATM   27  C   UNL     1       1.352  27.332  46.815  1.00  0.00    -0.057 C 
BRANCH  27  28
HETATM   28  C   UNL     1       0.325  27.478  46.209  1.00  0.00    -0.075 C 
BRANCH  28  29
HETATM   29  C   UNL     1      -0.922  27.694  45.478  1.00  0.00     0.258 C 
BRANCH  29  30
HETATM   30  O   UNL     1      -0.935  26.872  44.322  1.00  0.00    -0.389 OA
HETATM   31  H   UNL     1      -0.092  27.021  43.861  1.00  0.00     0.210 HD
ENDBRANCH  29  30
ENDBRANCH  28  29
ENDBRANCH  27  28
ENDBRANCH  24  27
ENDBRANCH  21  22
ENDBRANCH   6  21
TORSDOF 8
ENDMDL
MODEL 7
REMARK VINA RESULT:      -8.0      7.319     11.493
REMARK  8 active torsions:
REMARK  status: ('A' for Active; 'I' for Inactive)
REMARK    1  A    between atoms: C_2  and  C_3 
REMARK    2  A    between atoms: C_3  and  N_4 
REMARK    3  A    between atoms: N_9  and  C_11 
REMARK    4  A    between atoms: C_11  and  C_12 
REMARK    5  A    between atoms: C_14  and  C_15 
REMARK    6  A    between atoms: C_15  and  C_16 
REMARK    7  A    between atoms: C_16  and  C_17 
REMARK    8  A    between atoms: C_17  and  O_18 
ROOT
HETATM    1  N   UNL     1       7.026  27.195  56.503  1.00  0.00    -0.066 N 
HETATM    2  H   UNL     1       6.192  27.768  56.682  1.00  0.00     0.280 HD
HETATM    3  C   UNL     1       7.384  27.272  55.035  1.00  0.00     0.246 C 
HETATM    4  C   UNL     1       6.211  26.790  54.163  1.00  0.00     0.009 C 
HETATM    5  C   UNL     1       6.596  26.844  52.673  1.00  0.00     0.246 C 
HETATM    6  N   UNL     1       5.277  26.946  51.941  1.00  0.00    -0.066 N 
HETATM    7  H   UNL     1       4.989  25.993  51.665  1.00  0.00     0.280 HD
HETATM    8  C   UNL     1       4.241  27.478  52.900  1.00  0.00     0.236 C 
HETATM    9  C   UNL     1       5.018  27.762  54.181  1.00  0.00     0.040 C 
HETATM   10  C   UNL     1       5.812  25.361  54.595  1.00  0.00     0.014 C 
HETATM   11  C   UNL     1       5.551  25.249  56.100  1.00  0.00     0.029 C 
HETATM   12  C   UNL     1       6.708  25.781  56.938  1.00  0.00     0.235 C 
ENDROOT
BRANCH   1  13
HETATM   13  C   UNL     1       8.098  27.807  57.408  1.00  0.00     0.273 C 
BRANCH  13  14
HETATM   14  C   UNL     1       7.703  29.164  57.930  1.00  0.00    -0.032 A 
HETATM   15  C   UNL     1       8.494  29.824  58.888  1.00  0.00     0.012 A 
HETATM   16  C   UNL     1       8.081  31.047  59.421  1.00  0.00     0.043 A 
HETATM   17  C   UNL     1       6.889  31.618  58.992  1.00  0.00     0.116 A 
HETATM   18  C   UNL     1       6.106  30.996  58.030  1.00  0.00     0.043 A 
HETATM   19  F   UNL     1       6.489  32.781  59.519  1.00  0.00    -0.206 F 
HETATM   20  C   UNL     1       6.511  29.771  57.495  1.00  0.00     0.012 A 
ENDBRANCH  13  14
ENDBRANCH   1  13
BRANCH   6  21
HETATM   21  C   UNL     1       5.340  27.700  50.626  1.00  0.00     0.280 C 
BRANCH  21  22
HETATM   22  C   UNL     1       4.354  27.184  49.633  1.00  0.00     0.009 A 
HETATM   23  S   UNL     1       3.197  28.254  48.955  1.00  0.00    -0.084 SA
HETATM   24  C   UNL     1       2.503  27.017  48.007  1.00  0.00     0.058 A 
HETATM   25  C   UNL     1       3.139  25.810  48.195  1.00  0.00     0.029 A 
HETATM   26  C   UNL     1       4.213  25.905  49.133  1.00  0.00     0.018 A 
BRANCH  24  27
HETATM   27  C   UNL     1       1.397  27.235  47.136  1.00  0.00    -0.057 C 
BRANCH  27  28
HETATM   28  C   UNL     1       0.473  27.445  46.397  1.00  0.00    -0.075 C 
BRANCH  28  29
HETATM   29  C   UNL     1      -0.626  27.707  45.470  1.00  0.00     0.258 C 
BRANCH  29  30
HETATM   30  O   UNL     1      -0.568  26.776  44.401  1.00  0.00    -0.389 OA
HETATM   31  H   UNL     1       0.369  26.548  44.276  1.00  0.00     0.210 HD
ENDBRANCH  29  30
ENDBRANCH  28  29
ENDBRANCH  27  28
ENDBRANCH  24  27
ENDBRANCH  21  22
ENDBRANCH   6  21
TORSDOF 8
ENDMDL
MODEL 8
REMARK VINA RESULT:      -7.9      1.921      2.366
REMARK  8 active torsions:
REMARK  status: ('A' for Active; 'I' for Inactive)
REMARK    1  A    between atoms: C_2  and  C_3 
REMARK    2  A    between atoms: C_3  and  N_4 
REMARK    3  A    between atoms: N_9  and  C_11 
REMARK    4  A    between atoms: C_11  and  C_12 
REMARK    5  A    between atoms: C_14  and  C_15 
REMARK    6  A    between atoms: C_15  and  C_16 
REMARK    7  A    between atoms: C_16  and  C_17 
REMARK    8  A    between atoms: C_17  and  O_18 
ROOT
HETATM    1  N   UNL     1       7.228  25.541  55.045  1.00  0.00    -0.066 N 
HETATM    2  H   UNL     1       7.974  25.353  55.726  1.00  0.00     0.280 HD
HETATM    3  C   UNL     1       7.004  27.034  54.940  1.00  0.00     0.246 C 
HETATM    4  C   UNL     1       6.632  27.625  56.312  1.00  0.00     0.009 C 
HETATM    5  C   UNL     1       6.378  29.139  56.189  1.00  0.00     0.246 C 
HETATM    6  N   UNL     1       6.622  29.681  57.579  1.00  0.00    -0.066 N 
HETATM    7  H   UNL     1       5.713  29.733  58.067  1.00  0.00     0.280 HD
HETATM    8  C   UNL     1       7.489  28.699  58.328  1.00  0.00     0.236 C 
HETATM    9  C   UNL     1       7.811  27.617  57.303  1.00  0.00     0.040 C 
HETATM   10  C   UNL     1       5.394  26.884  56.863  1.00  0.00     0.014 C 
HETATM   11  C   UNL     1       5.570  25.363  56.873  1.00  0.00     0.029 C 
HETATM   12  C   UNL     1       5.988  24.812  55.515  1.00  0.00     0.235 C 
ENDROOT
BRANCH   1  13
HETATM   13  C   UNL     1       7.751  24.927  53.743  1.00  0.00     0.273 C 
BRANCH  13  14
HETATM   14  C   UNL     1       8.093  23.467  53.894  1.00  0.00    -0.032 A 
HETATM   15  C   UNL     1       8.879  23.020  54.972  1.00  0.00     0.012 A 
HETATM   16  C   UNL     1       9.253  21.679  55.063  1.00  0.00     0.043 A 
HETATM   17  C   UNL     1       8.837  20.779  54.089  1.00  0.00     0.116 A 
HETATM   18  C   UNL     1       8.040  21.194  53.030  1.00  0.00     0.043 A 
HETATM   19  F   UNL     1       9.213  19.499  54.171  1.00  0.00    -0.206 F 
HETATM   20  C   UNL     1       7.665  22.535  52.931  1.00  0.00     0.012 A 
ENDBRANCH  13  14
ENDBRANCH   1  13
BRANCH   6  21
HETATM   21  C   UNL     1       7.137  31.108  57.621  1.00  0.00     0.280 C 
BRANCH  21  22
HETATM   22  C   UNL     1       6.250  32.003  58.418  1.00  0.00     0.009 A 
HETATM   23  S   UNL     1       6.581  32.259  60.082  1.00  0.00    -0.084 SA
HETATM   24  C   UNL     1       5.241  33.299  60.262  1.00  0.00     0.058 A 
HETATM   25  C   UNL     1       4.553  33.457  59.079  1.00  0.00     0.029 A 
HETATM   26  C   UNL     1       5.137  32.711  58.010  1.00  0.00     0.018 A 
BRANCH  24  27
HETATM   27  C   UNL     1       4.897  33.915  61.499  1.00  0.00    -0.057 C 
BRANCH  27  28
HETATM   28  C   UNL     1       4.604  34.410  62.555  1.00  0.00    -0.075 C 
BRANCH  28  29
HETATM   29  C   UNL     1       4.222  35.033  63.820  1.00  0.00     0.258 C 
BRANCH  29  30
HETATM   30  O   UNL     1       3.016  35.759  63.639  1.00  0.00    -0.389 OA
HETATM   31  H   UNL     1       2.716  35.583  62.731  1.00  0.00     0.210 HD
ENDBRANCH  29  30
ENDBRANCH  28  29
ENDBRANCH  27  28
ENDBRANCH  24  27
ENDBRANCH  21  22
ENDBRANCH   6  21
TORSDOF 8
ENDMDL
MODEL 9
REMARK VINA RESULT:      -7.7      3.219      3.338
REMARK  8 active torsions:
REMARK  status: ('A' for Active; 'I' for Inactive)
REMARK    1  A    between atoms: C_2  and  C_3 
REMARK    2  A    between atoms: C_3  and  N_4 
REMARK    3  A    between atoms: N_9  and  C_11 
REMARK    4  A    between atoms: C_11  and  C_12 
REMARK    5  A    between atoms: C_14  and  C_15 
REMARK    6  A    between atoms: C_15  and  C_16 
REMARK    7  A    between atoms: C_16  and  C_17 
REMARK    8  A    between atoms: C_17  and  O_18 
ROOT
HETATM    1  N   UNL     1       7.523  25.570  55.148  1.00  0.00    -0.066 N 
HETATM    2  H   UNL     1       8.422  25.616  55.645  1.00  0.00     0.280 HD
HETATM    3  C   UNL     1       6.909  26.952  55.090  1.00  0.00     0.246 C 
HETATM    4  C   UNL     1       6.705  27.516  56.507  1.00  0.00     0.009 C 
HETATM    5  C   UNL     1       6.052  28.910  56.438  1.00  0.00     0.246 C 
HETATM    6  N   UNL     1       6.444  29.579  57.735  1.00  0.00    -0.066 N 
HETATM    7  H   UNL     1       5.680  29.434  58.415  1.00  0.00     0.280 HD
HETATM    8  C   UNL     1       7.674  28.891  58.274  1.00  0.00     0.236 C 
HETATM    9  C   UNL     1       8.032  27.861  57.207  1.00  0.00     0.040 C 
HETATM   10  C   UNL     1       5.846  26.527  57.327  1.00  0.00     0.014 C 
HETATM   11  C   UNL     1       6.403  25.100  57.303  1.00  0.00     0.029 C 
HETATM   12  C   UNL     1       6.644  24.587  55.888  1.00  0.00     0.235 C 
ENDROOT
BRANCH   1  13
HETATM   13  C   UNL     1       7.891  25.026  53.765  1.00  0.00     0.273 C 
BRANCH  13  14
HETATM   14  C   UNL     1       8.224  23.556  53.797  1.00  0.00    -0.032 A 
HETATM   15  C   UNL     1       7.756  22.692  52.790  1.00  0.00     0.012 A 
HETATM   16  C   UNL     1       8.006  21.321  52.866  1.00  0.00     0.043 A 
HETATM   17  C   UNL     1       8.730  20.811  53.937  1.00  0.00     0.116 A 
HETATM   18  C   UNL     1       9.221  21.649  54.929  1.00  0.00     0.043 A 
HETATM   19  F   UNL     1       8.951  19.494  54.016  1.00  0.00    -0.206 F 
HETATM   20  C   UNL     1       8.972  23.021  54.860  1.00  0.00     0.012 A 
ENDBRANCH  13  14
ENDBRANCH   1  13
BRANCH   6  21
HETATM   21  C   UNL     1       6.574  31.089  57.654  1.00  0.00     0.280 C 
BRANCH  21  22
HETATM   22  C   UNL     1       5.742  31.782  58.679  1.00  0.00     0.009 A 
HETATM   23  S   UNL     1       4.181  32.353  58.257  1.00  0.00    -0.084 SA
HETATM   24  C   UNL     1       3.904  32.968  59.824  1.00  0.00     0.058 A 
HETATM   25  C   UNL     1       4.975  32.741  60.660  1.00  0.00     0.029 A 
HETATM   26  C   UNL     1       6.039  32.052  60.000  1.00  0.00     0.018 A 
BRANCH  24  27
HETATM   27  C   UNL     1       2.700  33.633  60.195  1.00  0.00    -0.057 C 
BRANCH  27  28
HETATM   28  C   UNL     1       1.678  34.173  60.524  1.00  0.00    -0.075 C 
BRANCH  28  29
HETATM   29  C   UNL     1       0.425  34.830  60.888  1.00  0.00     0.258 C 
BRANCH  29  30
HETATM   30  O   UNL     1      -0.310  35.122  59.709  1.00  0.00    -0.389 OA
HETATM   31  H   UNL     1      -1.241  34.918  59.900  1.00  0.00     0.210 HD
ENDBRANCH  29  30
ENDBRANCH  28  29
ENDBRANCH  27  28
ENDBRANCH  24  27
ENDBRANCH  21  22
ENDBRANCH   6  21
TORSDOF 8
ENDMDL
MODEL 10
REMARK VINA RESULT:      -7.4      5.774     11.117
REMARK  8 active torsions:
REMARK  status: ('A' for Active; 'I' for Inactive)
REMARK    1  A    between atoms: C_2  and  C_3 
REMARK    2  A    between atoms: C_3  and  N_4 
REMARK    3  A    between atoms: N_9  and  C_11 
REMARK    4  A    between atoms: C_11  and  C_12 
REMARK    5  A    between atoms: C_14  and  C_15 
REMARK    6  A    between atoms: C_15  and  C_16 
REMARK    7  A    between atoms: C_16  and  C_17 
REMARK    8  A    between atoms: C_17  and  O_18 
ROOT
HETATM    1  N   UNL     1       4.359  32.474  58.695  1.00  0.00    -0.066 N 
HETATM    2  H   UNL     1       5.314  32.754  58.952  1.00  0.00     0.280 HD
HETATM    3  C   UNL     1       4.299  30.969  58.541  1.00  0.00     0.246 C 
HETATM    4  C   UNL     1       5.300  30.492  57.473  1.00  0.00     0.009 C 
HETATM    5  C   UNL     1       5.210  28.964  57.303  1.00  0.00     0.246 C 
HETATM    6  N   UNL     1       6.556  28.564  56.741  1.00  0.00    -0.066 N 
HETATM    7  H   UNL     1       6.473  28.519  55.713  1.00  0.00     0.280 HD
HETATM    8  C   UNL     1       7.553  29.646  57.076  1.00  0.00     0.236 C 
HETATM    9  C   UNL     1       6.765  30.641  57.921  1.00  0.00     0.040 C 
HETATM   10  C   UNL     1       5.012  31.229  56.146  1.00  0.00     0.014 C 
HETATM   11  C   UNL     1       4.963  32.751  56.312  1.00  0.00     0.029 C 
HETATM   12  C   UNL     1       4.004  33.191  57.411  1.00  0.00     0.235 C 
ENDROOT
BRANCH   1  13
HETATM   13  C   UNL     1       3.497  32.986  59.852  1.00  0.00     0.273 C 
BRANCH  13  14
HETATM   14  C   UNL     1       4.312  33.296  61.082  1.00  0.00    -0.032 A 
HETATM   15  C   UNL     1       3.684  33.637  62.293  1.00  0.00     0.012 A 
HETATM   16  C   UNL     1       4.446  33.995  63.406  1.00  0.00     0.043 A 
HETATM   17  C   UNL     1       5.833  34.002  63.318  1.00  0.00     0.116 A 
HETATM   18  C   UNL     1       6.474  33.645  62.139  1.00  0.00     0.043 A 
HETATM   19  F   UNL     1       6.559  34.363  64.381  1.00  0.00    -0.206 F 
HETATM   20  C   UNL     1       5.717  33.289  61.021  1.00  0.00     0.012 A 
ENDBRANCH  13  14
ENDBRANCH   1  13
BRANCH   6  21
HETATM   21  C   UNL     1       7.013  27.169  57.128  1.00  0.00     0.280 C 
BRANCH  21  22
HETATM   22  C   UNL     1       7.180  26.282  55.941  1.00  0.00     0.009 A 
HETATM   23  S   UNL     1       7.572  24.628  56.169  1.00  0.00    -0.084 SA
HETATM   24  C   UNL     1       7.590  24.327  54.490  1.00  0.00     0.058 A 
HETATM   25  C   UNL     1       7.299  25.460  53.764  1.00  0.00     0.029 A 
HETATM   26  C   UNL     1       7.058  26.592  54.601  1.00  0.00     0.018 A 
BRANCH  24  27
HETATM   27  C   UNL     1       7.877  23.047  53.934  1.00  0.00    -0.057 C 
BRANCH  27  28
HETATM   28  C   UNL     1       8.092  21.961  53.466  1.00  0.00    -0.075 C 
BRANCH  28  29
HETATM   29  C   UNL     1       8.315  20.635  52.895  1.00  0.00     0.258 C 
BRANCH  29  30
HETATM   30  O   UNL     1       8.704  19.741  53.926  1.00  0.00    -0.389 OA
HETATM   31  H   UNL     1       8.313  20.075  54.750  1.00  0.00     0.210 HD
ENDBRANCH  29  30
ENDBRANCH  28  29
ENDBRANCH  27  28
ENDBRANCH  24  27
ENDBRANCH  21  22
ENDBRANCH   6  21
TORSDOF 8
ENDMDL
