MODEL 1
REMARK VINA RESULT:      -9.3      0.000      0.000
REMARK  11 active torsions:
REMARK  status: ('A' for Active; 'I' for Inactive)
REMARK    1  A    between atoms: C_2  and  O_3 
REMARK    2  A    between atoms: O_3  and  C_4 
REMARK    3  A    between atoms: C_5  and  N_6 
REMARK       I    between atoms: N_6  and  C_7 
REMARK    4  A    between atoms: C_7  and  C_8 
REMARK    5  A    between atoms: C_9  and  C_10 
REMARK    6  A    between atoms: C_10  and  N_11 
REMARK    7  A    between atoms: C_24  and  N_25 
REMARK    8  A    between atoms: N_25  and  C_26 
REMARK    9  A    between atoms: C_30  and  O_31 
REMARK   10  A    between atoms: O_31  and  C_32 
REMARK   11  A    between atoms: C_32  and  C_33 
ROOT
HETATM    1  C   UNL     1       7.534  24.197  53.493  1.00  0.00     0.097 A 
HETATM    2  C   UNL     1       6.970  24.700  54.669  1.00  0.00     0.069 A 
HETATM    3  C   UNL     1       6.042  25.745  54.590  1.00  0.00     0.048 A 
HETATM    4  C   UNL     1       5.597  26.285  53.360  1.00  0.00     0.023 A 
HETATM    5  C   UNL     1       6.176  25.755  52.185  1.00  0.00     0.071 A 
HETATM    6  N   UNL     1       5.854  26.175  50.956  1.00  0.00    -0.259 NA
HETATM    7  C   UNL     1       4.930  27.149  50.834  1.00  0.00     0.142 A 
HETATM    8  C   UNL     1       4.310  27.760  51.908  1.00  0.00     0.089 A 
HETATM    9  C   UNL     1       3.359  28.794  51.649  1.00  0.00     0.103 C 
HETATM   10  N   UNL     1       2.603  29.655  51.468  1.00  0.00    -0.191 NA
HETATM   11  C   UNL     1       4.648  27.348  53.214  1.00  0.00     0.067 A 
HETATM   12  C   UNL     1       7.138  24.756  52.273  1.00  0.00     0.071 A 
ENDROOT
BRANCH  11  13
HETATM   13  N   UNL     1       4.030  28.006  54.312  1.00  0.00    -0.354 N 
HETATM   14  H   UNL     1       3.166  27.562  54.625  1.00  0.00     0.166 HD
BRANCH  13  15
HETATM   15  C   UNL     1       4.430  29.016  55.208  1.00  0.00     0.034 A 
HETATM   16  C   UNL     1       4.444  30.339  54.737  1.00  0.00     0.056 A 
HETATM   17  C   UNL     1       4.919  31.384  55.533  1.00  0.00     0.069 A 
HETATM   18 CL   UNL     1       4.913  32.981  54.881  1.00  0.00    -0.081 Cl
HETATM   19  C   UNL     1       5.410  31.116  56.810  1.00  0.00     0.091 A 
HETATM   20  C   UNL     1       5.369  29.813  57.309  1.00  0.00     0.041 A 
HETATM   21  C   UNL     1       4.887  28.768  56.507  1.00  0.00     0.032 A 
BRANCH  19  22
HETATM   22  O   UNL     1       5.849  32.149  57.593  1.00  0.00    -0.344 OA
BRANCH  22  23
HETATM   23  C   UNL     1       5.793  31.856  58.998  1.00  0.00     0.235 C 
BRANCH  23  24
HETATM   24  C   UNL     1       7.154  31.946  59.660  1.00  0.00     0.058 A 
HETATM   25  N   UNL     1       8.234  31.799  58.843  1.00  0.00    -0.263 NA
HETATM   26  C   UNL     1       9.458  31.823  59.420  1.00  0.00     0.117 A 
HETATM   27  C   UNL     1       9.671  31.997  60.775  1.00  0.00     0.019 A 
HETATM   28  C   UNL     1       8.563  32.147  61.597  1.00  0.00     0.003 A 
HETATM   29  C   UNL     1       7.289  32.111  61.038  1.00  0.00     0.029 A 
ENDBRANCH  23  24
ENDBRANCH  22  23
ENDBRANCH  19  22
ENDBRANCH  13  15
ENDBRANCH  11  13
BRANCH   2  30
HETATM   30  N   UNL     1       7.142  24.138  55.953  1.00  0.00    -0.321 N 
HETATM   31  C   UNL     1       7.875  24.603  57.004  1.00  0.00     0.245 C 
HETATM   32  O   UNL     1       8.499  23.841  57.739  1.00  0.00    -0.268 OA
HETATM   33  H   UNL     1       7.024  23.130  55.979  1.00  0.00     0.169 HD
BRANCH  31  34
HETATM   34  C   UNL     1       7.590  26.005  57.421  1.00  0.00     0.072 C 
HETATM   35  C   UNL     1       8.459  26.960  57.046  1.00  0.00     0.006 C 
BRANCH  35  36
HETATM   36  C   UNL     1       8.520  28.330  57.625  1.00  0.00     0.261 C 
BRANCH  36  37
HETATM   37  N   UNL     1       8.873  29.337  56.550  1.00  0.00    -0.076 N 
HETATM   38  H   UNL     1       8.383  30.206  56.802  1.00  0.00     0.279 HD
HETATM   39  C   UNL     1      10.340  29.669  56.512  1.00  0.00     0.269 C 
HETATM   40  C   UNL     1       8.365  28.940  55.196  1.00  0.00     0.269 C 
ENDBRANCH  36  37
ENDBRANCH  35  36
ENDBRANCH  31  34
ENDBRANCH   2  30
BRANCH   1  41
HETATM   41  O   UNL     1       8.419  23.156  53.584  1.00  0.00    -0.349 OA
BRANCH  41  42
HETATM   42  C   UNL     1       7.951  21.888  53.112  1.00  0.00     0.171 C 
HETATM   43  C   UNL     1       8.179  20.864  54.209  1.00  0.00     0.034 C 
ENDBRANCH  41  42
ENDBRANCH   1  41
TORSDOF 11
ENDMDL
MODEL 2
REMARK VINA RESULT:      -8.9      3.154      9.897
REMARK  11 active torsions:
REMARK  status: ('A' for Active; 'I' for Inactive)
REMARK    1  A    between atoms: C_2  and  O_3 
REMARK    2  A    between atoms: O_3  and  C_4 
REMARK    3  A    between atoms: C_5  and  N_6 
REMARK       I    between atoms: N_6  and  C_7 
REMARK    4  A    between atoms: C_7  and  C_8 
REMARK    5  A    between atoms: C_9  and  C_10 
REMARK    6  A    between atoms: C_10  and  N_11 
REMARK    7  A    between atoms: C_24  and  N_25 
REMARK    8  A    between atoms: N_25  and  C_26 
REMARK    9  A    between atoms: C_30  and  O_31 
REMARK   10  A    between atoms: O_31  and  C_32 
REMARK   11  A    between atoms: C_32  and  C_33 
ROOT
HETATM    1  C   UNL     1       7.253  32.910  61.760  1.00  0.00     0.097 A 
HETATM    2  C   UNL     1       6.227  32.176  61.159  1.00  0.00     0.069 A 
HETATM    3  C   UNL     1       6.492  31.469  59.980  1.00  0.00     0.048 A 
HETATM    4  C   UNL     1       7.778  31.413  59.391  1.00  0.00     0.023 A 
HETATM    5  C   UNL     1       8.800  32.158  60.021  1.00  0.00     0.071 A 
HETATM    6  N   UNL     1      10.059  32.201  59.570  1.00  0.00    -0.259 NA
HETATM    7  C   UNL     1      10.366  31.497  58.462  1.00  0.00     0.142 A 
HETATM    8  C   UNL     1       9.450  30.750  57.747  1.00  0.00     0.089 A 
HETATM    9  C   UNL     1       9.895  30.061  56.577  1.00  0.00     0.103 C 
HETATM   10  N   UNL     1      10.224  29.514  55.608  1.00  0.00    -0.191 NA
HETATM   11  C   UNL     1       8.111  30.705  58.191  1.00  0.00     0.067 A 
HETATM   12  C   UNL     1       8.517  32.902  61.160  1.00  0.00     0.071 A 
ENDROOT
BRANCH  11  13
HETATM   13  N   UNL     1       7.170  29.962  57.429  1.00  0.00    -0.354 N 
HETATM   14  H   UNL     1       6.519  30.542  56.899  1.00  0.00     0.166 HD
BRANCH  13  15
HETATM   15  C   UNL     1       7.043  28.606  57.069  1.00  0.00     0.034 A 
HETATM   16  C   UNL     1       6.336  28.306  55.894  1.00  0.00     0.056 A 
HETATM   17  C   UNL     1       6.085  26.985  55.519  1.00  0.00     0.069 A 
HETATM   18 CL   UNL     1       5.201  26.696  54.066  1.00  0.00    -0.081 Cl
HETATM   19  C   UNL     1       6.520  25.938  56.331  1.00  0.00     0.091 A 
HETATM   20  C   UNL     1       7.258  26.216  57.483  1.00  0.00     0.041 A 
HETATM   21  C   UNL     1       7.511  27.545  57.852  1.00  0.00     0.032 A 
BRANCH  19  22
HETATM   22  O   UNL     1       6.292  24.645  55.944  1.00  0.00    -0.344 OA
BRANCH  22  23
HETATM   23  C   UNL     1       7.391  23.767  56.236  1.00  0.00     0.235 C 
BRANCH  23  24
HETATM   24  C   UNL     1       7.588  22.715  55.161  1.00  0.00     0.058 A 
HETATM   25  N   UNL     1       7.678  21.425  55.588  1.00  0.00    -0.263 NA
HETATM   26  C   UNL     1       7.907  20.475  54.652  1.00  0.00     0.117 A 
HETATM   27  C   UNL     1       8.044  20.737  53.301  1.00  0.00     0.019 A 
HETATM   28  C   UNL     1       7.948  22.055  52.878  1.00  0.00     0.003 A 
HETATM   29  C   UNL     1       7.729  23.059  53.818  1.00  0.00     0.029 A 
ENDBRANCH  23  24
ENDBRANCH  22  23
ENDBRANCH  19  22
ENDBRANCH  13  15
ENDBRANCH  11  13
BRANCH   2  30
HETATM   30  N   UNL     1       4.953  31.953  61.725  1.00  0.00    -0.321 N 
HETATM   31  C   UNL     1       3.911  32.820  61.866  1.00  0.00     0.245 C 
HETATM   32  O   UNL     1       3.197  32.810  62.866  1.00  0.00    -0.268 OA
HETATM   33  H   UNL     1       4.935  31.212  62.419  1.00  0.00     0.169 HD
BRANCH  31  34
HETATM   34  C   UNL     1       3.473  33.512  60.621  1.00  0.00     0.072 C 
HETATM   35  C   UNL     1       4.006  34.716  60.351  1.00  0.00     0.006 C 
BRANCH  35  36
HETATM   36  C   UNL     1       3.467  35.681  59.355  1.00  0.00     0.261 C 
BRANCH  36  37
HETATM   37  N   UNL     1       2.246  35.101  58.672  1.00  0.00    -0.076 N 
HETATM   38  H   UNL     1       2.207  34.111  58.950  1.00  0.00     0.279 HD
HETATM   39  C   UNL     1       0.957  35.726  59.136  1.00  0.00     0.269 C 
HETATM   40  C   UNL     1       2.356  35.118  57.176  1.00  0.00     0.269 C 
ENDBRANCH  36  37
ENDBRANCH  35  36
ENDBRANCH  31  34
ENDBRANCH   2  30
BRANCH   1  41
HETATM   41  O   UNL     1       6.986  33.573  62.928  1.00  0.00    -0.349 OA
BRANCH  41  42
HETATM   42  C   UNL     1       7.752  33.172  64.070  1.00  0.00     0.171 C 
HETATM   43  C   UNL     1       7.036  33.663  65.314  1.00  0.00     0.034 C 
ENDBRANCH  41  42
ENDBRANCH   1  41
TORSDOF 11
ENDMDL
MODEL 3
REMARK VINA RESULT:      -8.8      4.075     10.682
REMARK  11 active torsions:
REMARK  status: ('A' for Active; 'I' for Inactive)
REMARK    1  A    between atoms: C_2  and  O_3 
REMARK    2  A    between atoms: O_3  and  C_4 
REMARK    3  A    between atoms: C_5  and  N_6 
REMARK       I    between atoms: N_6  and  C_7 
REMARK    4  A    between atoms: C_7  and  C_8 
REMARK    5  A    between atoms: C_9  and  C_10 
REMARK    6  A    between atoms: C_10  and  N_11 
REMARK    7  A    between atoms: C_24  and  N_25 
REMARK    8  A    between atoms: N_25  and  C_26 
REMARK    9  A    between atoms: C_30  and  O_31 
REMARK   10  A    between atoms: O_31  and  C_32 
REMARK   11  A    between atoms: C_32  and  C_33 
ROOT
HETATM    1  C   UNL     1       5.886  32.864  63.793  1.00  0.00     0.097 A 
HETATM    2  C   UNL     1       5.072  32.778  62.661  1.00  0.00     0.069 A 
HETATM    3  C   UNL     1       5.659  32.534  61.414  1.00  0.00     0.048 A 
HETATM    4  C   UNL     1       7.047  32.309  61.249  1.00  0.00     0.023 A 
HETATM    5  C   UNL     1       7.848  32.395  62.411  1.00  0.00     0.071 A 
HETATM    6  N   UNL     1       9.173  32.211  62.400  1.00  0.00    -0.259 NA
HETATM    7  C   UNL     1       9.771  31.929  61.226  1.00  0.00     0.142 A 
HETATM    8  C   UNL     1       9.099  31.841  60.022  1.00  0.00     0.089 A 
HETATM    9  C   UNL     1       9.850  31.553  58.840  1.00  0.00     0.103 C 
HETATM   10  N   UNL     1      10.438  31.347  57.862  1.00  0.00    -0.191 NA
HETATM   11  C   UNL     1       7.704  32.050  60.003  1.00  0.00     0.067 A 
HETATM   12  C   UNL     1       7.265  32.691  63.637  1.00  0.00     0.071 A 
ENDROOT
BRANCH  11  13
HETATM   13  N   UNL     1       7.028  31.992  58.755  1.00  0.00    -0.354 N 
HETATM   14  H   UNL     1       6.996  32.885  58.261  1.00  0.00     0.166 HD
BRANCH  13  15
HETATM   15  C   UNL     1       6.560  30.947  57.934  1.00  0.00     0.034 A 
HETATM   16  C   UNL     1       7.133  29.677  58.106  1.00  0.00     0.056 A 
HETATM   17  C   UNL     1       6.792  28.612  57.268  1.00  0.00     0.069 A 
HETATM   18 CL   UNL     1       7.545  27.083  57.536  1.00  0.00    -0.081 Cl
HETATM   19  C   UNL     1       5.886  28.810  56.227  1.00  0.00     0.091 A 
HETATM   20  C   UNL     1       5.279  30.056  56.065  1.00  0.00     0.041 A 
HETATM   21  C   UNL     1       5.621  31.120  56.912  1.00  0.00     0.032 A 
BRANCH  19  22
HETATM   22  O   UNL     1       5.538  27.755  55.427  1.00  0.00    -0.344 OA
BRANCH  22  23
HETATM   23  C   UNL     1       6.292  27.702  54.205  1.00  0.00     0.235 C 
BRANCH  23  24
HETATM   24  C   UNL     1       6.766  26.298  53.883  1.00  0.00     0.058 A 
HETATM   25  N   UNL     1       7.548  26.163  52.776  1.00  0.00    -0.263 NA
HETATM   26  C   UNL     1       7.939  24.913  52.439  1.00  0.00     0.117 A 
HETATM   27  C   UNL     1       7.600  23.777  53.152  1.00  0.00     0.019 A 
HETATM   28  C   UNL     1       6.804  23.927  54.278  1.00  0.00     0.003 A 
HETATM   29  C   UNL     1       6.371  25.199  54.644  1.00  0.00     0.029 A 
ENDBRANCH  23  24
ENDBRANCH  22  23
ENDBRANCH  19  22
ENDBRANCH  13  15
ENDBRANCH  11  13
BRANCH   2  30
HETATM   30  N   UNL     1       3.660  32.765  62.678  1.00  0.00    -0.321 N 
HETATM   31  C   UNL     1       2.794  33.781  62.954  1.00  0.00     0.245 C 
HETATM   32  O   UNL     1       1.757  33.589  63.583  1.00  0.00    -0.268 OA
HETATM   33  H   UNL     1       3.259  31.853  62.873  1.00  0.00     0.169 HD
BRANCH  31  34
HETATM   34  C   UNL     1       2.987  35.027  62.159  1.00  0.00     0.072 C 
HETATM   35  C   UNL     1       3.580  36.071  62.763  1.00  0.00     0.006 C 
BRANCH  35  36
HETATM   36  C   UNL     1       3.567  37.470  62.254  1.00  0.00     0.261 C 
BRANCH  36  37
HETATM   37  N   UNL     1       4.962  38.058  62.303  1.00  0.00    -0.076 N 
HETATM   38  H   UNL     1       5.452  37.700  61.472  1.00  0.00     0.279 HD
HETATM   39  C   UNL     1       4.974  39.559  62.194  1.00  0.00     0.269 C 
HETATM   40  C   UNL     1       5.746  37.589  63.493  1.00  0.00     0.269 C 
ENDBRANCH  36  37
ENDBRANCH  35  36
ENDBRANCH  31  34
ENDBRANCH   2  30
BRANCH   1  41
HETATM   41  O   UNL     1       5.295  33.074  65.011  1.00  0.00    -0.349 OA
BRANCH  41  42
HETATM   42  C   UNL     1       5.387  34.403  65.536  1.00  0.00     0.171 C 
HETATM   43  C   UNL     1       4.137  34.674  66.354  1.00  0.00     0.034 C 
ENDBRANCH  41  42
ENDBRANCH   1  41
TORSDOF 11
ENDMDL
MODEL 4
REMARK VINA RESULT:      -8.6      3.103      9.162
REMARK  11 active torsions:
REMARK  status: ('A' for Active; 'I' for Inactive)
REMARK    1  A    between atoms: C_2  and  O_3 
REMARK    2  A    between atoms: O_3  and  C_4 
REMARK    3  A    between atoms: C_5  and  N_6 
REMARK       I    between atoms: N_6  and  C_7 
REMARK    4  A    between atoms: C_7  and  C_8 
REMARK    5  A    between atoms: C_9  and  C_10 
REMARK    6  A    between atoms: C_10  and  N_11 
REMARK    7  A    between atoms: C_24  and  N_25 
REMARK    8  A    between atoms: N_25  and  C_26 
REMARK    9  A    between atoms: C_30  and  O_31 
REMARK   10  A    between atoms: O_31  and  C_32 
REMARK   11  A    between atoms: C_32  and  C_33 
ROOT
HETATM    1  C   UNL     1       6.973  30.337  57.981  1.00  0.00     0.097 A 
HETATM    2  C   UNL     1       5.911  30.266  57.075  1.00  0.00     0.069 A 
HETATM    3  C   UNL     1       5.693  29.077  56.369  1.00  0.00     0.048 A 
HETATM    4  C   UNL     1       6.468  27.911  56.571  1.00  0.00     0.023 A 
HETATM    5  C   UNL     1       7.532  28.006  57.497  1.00  0.00     0.071 A 
HETATM    6  N   UNL     1       8.348  26.984  57.781  1.00  0.00    -0.259 NA
HETATM    7  C   UNL     1       8.143  25.808  57.156  1.00  0.00     0.142 A 
HETATM    8  C   UNL     1       7.152  25.599  56.216  1.00  0.00     0.089 A 
HETATM    9  C   UNL     1       7.047  24.309  55.608  1.00  0.00     0.103 C 
HETATM   10  N   UNL     1       6.957  23.281  55.081  1.00  0.00    -0.191 NA
HETATM   11  C   UNL     1       6.291  26.666  55.884  1.00  0.00     0.067 A 
HETATM   12  C   UNL     1       7.777  29.205  58.155  1.00  0.00     0.071 A 
ENDROOT
BRANCH  11  13
HETATM   13  N   UNL     1       5.297  26.451  54.891  1.00  0.00    -0.354 N 
HETATM   14  H   UNL     1       4.348  26.400  55.263  1.00  0.00     0.166 HD
BRANCH  13  15
HETATM   15  C   UNL     1       5.285  26.491  53.484  1.00  0.00     0.034 A 
HETATM   16  C   UNL     1       5.439  27.742  52.865  1.00  0.00     0.056 A 
HETATM   17  C   UNL     1       5.343  27.878  51.478  1.00  0.00     0.069 A 
HETATM   18 CL   UNL     1       5.535  29.449  50.792  1.00  0.00    -0.081 Cl
HETATM   19  C   UNL     1       5.067  26.762  50.688  1.00  0.00     0.091 A 
HETATM   20  C   UNL     1       4.948  25.505  51.283  1.00  0.00     0.041 A 
HETATM   21  C   UNL     1       5.050  25.374  52.675  1.00  0.00     0.032 A 
BRANCH  19  22
HETATM   22  O   UNL     1       5.000  26.900  49.328  1.00  0.00    -0.344 OA
BRANCH  22  23
HETATM   23  C   UNL     1       3.899  26.187  48.743  1.00  0.00     0.235 C 
BRANCH  23  24
HETATM   24  C   UNL     1       2.957  27.104  47.986  1.00  0.00     0.058 A 
HETATM   25  N   UNL     1       3.413  28.361  47.730  1.00  0.00    -0.263 NA
HETATM   26  C   UNL     1       2.570  29.213  47.104  1.00  0.00     0.117 A 
HETATM   27  C   UNL     1       1.288  28.880  46.704  1.00  0.00     0.019 A 
HETATM   28  C   UNL     1       0.835  27.595  46.970  1.00  0.00     0.003 A 
HETATM   29  C   UNL     1       1.672  26.698  47.628  1.00  0.00     0.029 A 
ENDBRANCH  23  24
ENDBRANCH  22  23
ENDBRANCH  19  22
ENDBRANCH  13  15
ENDBRANCH  11  13
BRANCH   2  30
HETATM   30  N   UNL     1       4.920  31.259  56.911  1.00  0.00    -0.321 N 
HETATM   31  C   UNL     1       3.651  31.297  57.406  1.00  0.00     0.245 C 
HETATM   32  O   UNL     1       2.716  31.744  56.746  1.00  0.00    -0.268 OA
HETATM   33  H   UNL     1       5.019  31.800  56.058  1.00  0.00     0.169 HD
BRANCH  31  34
HETATM   34  C   UNL     1       3.527  31.113  58.880  1.00  0.00     0.072 C 
HETATM   35  C   UNL     1       3.500  32.215  59.650  1.00  0.00     0.006 C 
BRANCH  35  36
HETATM   36  C   UNL     1       3.705  32.228  61.124  1.00  0.00     0.261 C 
BRANCH  36  37
HETATM   37  N   UNL     1       2.747  33.204  61.776  1.00  0.00    -0.076 N 
HETATM   38  H   UNL     1       1.950  32.643  62.106  1.00  0.00     0.279 HD
HETATM   39  C   UNL     1       3.327  33.878  62.990  1.00  0.00     0.269 C 
HETATM   40  C   UNL     1       2.190  34.203  60.807  1.00  0.00     0.269 C 
ENDBRANCH  36  37
ENDBRANCH  35  36
ENDBRANCH  31  34
ENDBRANCH   2  30
BRANCH   1  41
HETATM   41  O   UNL     1       7.156  31.496  58.686  1.00  0.00    -0.349 OA
BRANCH  41  42
HETATM   42  C   UNL     1       7.616  31.349  60.034  1.00  0.00     0.171 C 
HETATM   43  C   UNL     1       8.730  32.353  60.265  1.00  0.00     0.034 C 
ENDBRANCH  41  42
ENDBRANCH   1  41
TORSDOF 11
ENDMDL
MODEL 5
REMARK VINA RESULT:      -8.5      3.542     10.282
REMARK  11 active torsions:
REMARK  status: ('A' for Active; 'I' for Inactive)
REMARK    1  A    between atoms: C_2  and  O_3 
REMARK    2  A    between atoms: O_3  and  C_4 
REMARK    3  A    between atoms: C_5  and  N_6 
REMARK       I    between atoms: N_6  and  C_7 
REMARK    4  A    between atoms: C_7  and  C_8 
REMARK    5  A    between atoms: C_9  and  C_10 
REMARK    6  A    between atoms: C_10  and  N_11 
REMARK    7  A    between atoms: C_24  and  N_25 
REMARK    8  A    between atoms: N_25  and  C_26 
REMARK    9  A    between atoms: C_30  and  O_31 
REMARK   10  A    between atoms: O_31  and  C_32 
REMARK   11  A    between atoms: C_32  and  C_33 
ROOT
HETATM    1  C   UNL     1       6.194  32.837  63.656  1.00  0.00     0.097 A 
HETATM    2  C   UNL     1       5.325  32.668  62.575  1.00  0.00     0.069 A 
HETATM    3  C   UNL     1       5.855  32.388  61.310  1.00  0.00     0.048 A 
HETATM    4  C   UNL     1       7.240  32.209  61.079  1.00  0.00     0.023 A 
HETATM    5  C   UNL     1       8.097  32.378  62.190  1.00  0.00     0.071 A 
HETATM    6  N   UNL     1       9.426  32.244  62.115  1.00  0.00    -0.259 NA
HETATM    7  C   UNL     1       9.972  31.930  60.923  1.00  0.00     0.142 A 
HETATM    8  C   UNL     1       9.241  31.761  59.763  1.00  0.00     0.089 A 
HETATM    9  C   UNL     1       9.938  31.447  58.556  1.00  0.00     0.103 C 
HETATM   10  N   UNL     1      10.482  31.217  57.558  1.00  0.00    -0.191 NA
HETATM   11  C   UNL     1       7.840  31.917  59.812  1.00  0.00     0.067 A 
HETATM   12  C   UNL     1       7.569  32.710  63.432  1.00  0.00     0.071 A 
ENDROOT
BRANCH  11  13
HETATM   13  N   UNL     1       7.101  31.775  58.606  1.00  0.00    -0.354 N 
HETATM   14  H   UNL     1       6.868  32.663  58.159  1.00  0.00     0.166 HD
BRANCH  13  15
HETATM   15  C   UNL     1       6.781  30.690  57.768  1.00  0.00     0.034 A 
HETATM   16  C   UNL     1       7.303  29.430  58.102  1.00  0.00     0.056 A 
HETATM   17  C   UNL     1       7.110  28.325  57.271  1.00  0.00     0.069 A 
HETATM   18 CL   UNL     1       7.790  26.812  57.745  1.00  0.00    -0.081 Cl
HETATM   19  C   UNL     1       6.409  28.469  56.074  1.00  0.00     0.091 A 
HETATM   20  C   UNL     1       5.851  29.705  55.744  1.00  0.00     0.041 A 
HETATM   21  C   UNL     1       6.043  30.811  56.585  1.00  0.00     0.032 A 
BRANCH  19  22
HETATM   22  O   UNL     1       6.203  27.375  55.278  1.00  0.00    -0.344 OA
BRANCH  22  23
HETATM   23  C   UNL     1       7.094  27.321  54.153  1.00  0.00     0.235 C 
BRANCH  23  24
HETATM   24  C   UNL     1       7.389  25.898  53.721  1.00  0.00     0.058 A 
HETATM   25  N   UNL     1       7.734  25.026  54.708  1.00  0.00    -0.263 NA
HETATM   26  C   UNL     1       8.053  23.764  54.339  1.00  0.00     0.117 A 
HETATM   27  C   UNL     1       8.040  23.312  53.032  1.00  0.00     0.019 A 
HETATM   28  C   UNL     1       7.685  24.210  52.035  1.00  0.00     0.003 A 
HETATM   29  C   UNL     1       7.367  25.521  52.378  1.00  0.00     0.029 A 
ENDBRANCH  23  24
ENDBRANCH  22  23
ENDBRANCH  19  22
ENDBRANCH  13  15
ENDBRANCH  11  13
BRANCH   2  30
HETATM   30  N   UNL     1       3.918  32.604  62.671  1.00  0.00    -0.321 N 
HETATM   31  C   UNL     1       3.016  33.619  62.788  1.00  0.00     0.245 C 
HETATM   32  O   UNL     1       2.019  33.515  63.498  1.00  0.00    -0.268 OA
HETATM   33  H   UNL     1       3.572  31.733  63.061  1.00  0.00     0.169 HD
BRANCH  31  34
HETATM   34  C   UNL     1       3.112  34.690  61.756  1.00  0.00     0.072 C 
HETATM   35  C   UNL     1       2.584  34.443  60.545  1.00  0.00     0.006 C 
BRANCH  35  36
HETATM   36  C   UNL     1       2.861  35.239  59.318  1.00  0.00     0.261 C 
BRANCH  36  37
HETATM   37  N   UNL     1       2.939  34.328  58.110  1.00  0.00    -0.076 N 
HETATM   38  H   UNL     1       1.973  34.035  57.911  1.00  0.00     0.279 HD
HETATM   39  C   UNL     1       3.437  35.028  56.874  1.00  0.00     0.269 C 
HETATM   40  C   UNL     1       3.716  33.074  58.381  1.00  0.00     0.269 C 
ENDBRANCH  36  37
ENDBRANCH  35  36
ENDBRANCH  31  34
ENDBRANCH   2  30
BRANCH   1  41
HETATM   41  O   UNL     1       5.660  33.081  64.894  1.00  0.00    -0.349 OA
BRANCH  41  42
HETATM   42  C   UNL     1       5.806  34.416  65.391  1.00  0.00     0.171 C 
HETATM   43  C   UNL     1       5.618  34.381  66.897  1.00  0.00     0.034 C 
ENDBRANCH  41  42
ENDBRANCH   1  41
TORSDOF 11
ENDMDL
MODEL 6
REMARK VINA RESULT:      -8.4      2.598      5.350
REMARK  11 active torsions:
REMARK  status: ('A' for Active; 'I' for Inactive)
REMARK    1  A    between atoms: C_2  and  O_3 
REMARK    2  A    between atoms: O_3  and  C_4 
REMARK    3  A    between atoms: C_5  and  N_6 
REMARK       I    between atoms: N_6  and  C_7 
REMARK    4  A    between atoms: C_7  and  C_8 
REMARK    5  A    between atoms: C_9  and  C_10 
REMARK    6  A    between atoms: C_10  and  N_11 
REMARK    7  A    between atoms: C_24  and  N_25 
REMARK    8  A    between atoms: N_25  and  C_26 
REMARK    9  A    between atoms: C_30  and  O_31 
REMARK   10  A    between atoms: O_31  and  C_32 
REMARK   11  A    between atoms: C_32  and  C_33 
ROOT
HETATM    1  C   UNL     1       5.714  27.354  51.324  1.00  0.00     0.097 A 
HETATM    2  C   UNL     1       5.643  28.128  52.484  1.00  0.00     0.069 A 
HETATM    3  C   UNL     1       6.031  27.566  53.707  1.00  0.00     0.048 A 
HETATM    4  C   UNL     1       6.551  26.255  53.818  1.00  0.00     0.023 A 
HETATM    5  C   UNL     1       6.619  25.494  52.628  1.00  0.00     0.071 A 
HETATM    6  N   UNL     1       7.084  24.240  52.588  1.00  0.00    -0.259 NA
HETATM    7  C   UNL     1       7.509  23.677  53.737  1.00  0.00     0.142 A 
HETATM    8  C   UNL     1       7.472  24.311  54.964  1.00  0.00     0.089 A 
HETATM    9  C   UNL     1       7.936  23.601  56.114  1.00  0.00     0.103 C 
HETATM   10  N   UNL     1       8.281  23.038  57.067  1.00  0.00    -0.191 NA
HETATM   11  C   UNL     1       6.968  25.627  55.036  1.00  0.00     0.067 A 
HETATM   12  C   UNL     1       6.182  26.039  51.428  1.00  0.00     0.071 A 
ENDROOT
BRANCH  11  13
HETATM   13  N   UNL     1       6.902  26.258  56.308  1.00  0.00    -0.354 N 
HETATM   14  H   UNL     1       6.691  25.617  57.075  1.00  0.00     0.166 HD
BRANCH  13  15
HETATM   15  C   UNL     1       7.256  27.530  56.797  1.00  0.00     0.034 A 
HETATM   16  C   UNL     1       8.608  27.902  56.729  1.00  0.00     0.056 A 
HETATM   17  C   UNL     1       9.055  29.105  57.279  1.00  0.00     0.069 A 
HETATM   18 CL   UNL     1      10.733  29.489  57.163  1.00  0.00    -0.081 Cl
HETATM   19  C   UNL     1       8.154  29.949  57.929  1.00  0.00     0.091 A 
HETATM   20  C   UNL     1       6.800  29.612  57.973  1.00  0.00     0.041 A 
HETATM   21  C   UNL     1       6.357  28.404  57.415  1.00  0.00     0.032 A 
BRANCH  19  22
HETATM   22  O   UNL     1       8.595  31.138  58.443  1.00  0.00    -0.344 OA
BRANCH  22  23
HETATM   23  C   UNL     1       7.536  31.950  58.974  1.00  0.00     0.235 C 
BRANCH  23  24
HETATM   24  C   UNL     1       7.588  32.044  60.486  1.00  0.00     0.058 A 
HETATM   25  N   UNL     1       6.394  32.196  61.123  1.00  0.00    -0.263 NA
HETATM   26  C   UNL     1       6.420  32.336  62.469  1.00  0.00     0.117 A 
HETATM   27  C   UNL     1       7.577  32.324  63.226  1.00  0.00     0.019 A 
HETATM   28  C   UNL     1       8.787  32.167  62.566  1.00  0.00     0.003 A 
HETATM   29  C   UNL     1       8.797  32.037  61.180  1.00  0.00     0.029 A 
ENDBRANCH  23  24
ENDBRANCH  22  23
ENDBRANCH  19  22
ENDBRANCH  13  15
ENDBRANCH  11  13
BRANCH   2  30
HETATM   30  N   UNL     1       5.351  29.510  52.519  1.00  0.00    -0.321 N 
HETATM   31  C   UNL     1       4.183  30.134  52.841  1.00  0.00     0.245 C 
HETATM   32  O   UNL     1       3.805  31.139  52.245  1.00  0.00    -0.268 OA
HETATM   33  H   UNL     1       5.929  30.068  51.897  1.00  0.00     0.169 HD
BRANCH  31  34
HETATM   34  C   UNL     1       3.591  29.758  54.156  1.00  0.00     0.072 C 
HETATM   35  C   UNL     1       3.561  30.692  55.121  1.00  0.00     0.006 C 
BRANCH  35  36
HETATM   36  C   UNL     1       3.315  30.419  56.564  1.00  0.00     0.261 C 
BRANCH  36  37
HETATM   37  N   UNL     1       3.497  31.685  57.374  1.00  0.00    -0.076 N 
HETATM   38  H   UNL     1       2.613  32.206  57.292  1.00  0.00     0.279 HD
HETATM   39  C   UNL     1       3.702  31.422  58.842  1.00  0.00     0.269 C 
HETATM   40  C   UNL     1       4.567  32.578  56.822  1.00  0.00     0.269 C 
ENDBRANCH  36  37
ENDBRANCH  35  36
ENDBRANCH  31  34
ENDBRANCH   2  30
BRANCH   1  41
HETATM   41  O   UNL     1       5.360  27.927  50.131  1.00  0.00    -0.349 OA
BRANCH  41  42
HETATM   42  C   UNL     1       4.075  27.563  49.614  1.00  0.00     0.171 C 
HETATM   43  C   UNL     1       4.180  27.487  48.102  1.00  0.00     0.034 C 
ENDBRANCH  41  42
ENDBRANCH   1  41
TORSDOF 11
ENDMDL
MODEL 7
REMARK VINA RESULT:      -8.3      2.907      9.003
REMARK  11 active torsions:
REMARK  status: ('A' for Active; 'I' for Inactive)
REMARK    1  A    between atoms: C_2  and  O_3 
REMARK    2  A    between atoms: O_3  and  C_4 
REMARK    3  A    between atoms: C_5  and  N_6 
REMARK       I    between atoms: N_6  and  C_7 
REMARK    4  A    between atoms: C_7  and  C_8 
REMARK    5  A    between atoms: C_9  and  C_10 
REMARK    6  A    between atoms: C_10  and  N_11 
REMARK    7  A    between atoms: C_24  and  N_25 
REMARK    8  A    between atoms: N_25  and  C_26 
REMARK    9  A    between atoms: C_30  and  O_31 
REMARK   10  A    between atoms: O_31  and  C_32 
REMARK   11  A    between atoms: C_32  and  C_33 
ROOT
HETATM    1  C   UNL     1       3.641  34.029  60.489  1.00  0.00     0.097 A 
HETATM    2  C   UNL     1       3.649  32.660  60.772  1.00  0.00     0.069 A 
HETATM    3  C   UNL     1       3.743  31.745  59.717  1.00  0.00     0.048 A 
HETATM    4  C   UNL     1       3.889  32.142  58.366  1.00  0.00     0.023 A 
HETATM    5  C   UNL     1       3.885  33.531  58.107  1.00  0.00     0.071 A 
HETATM    6  N   UNL     1       4.009  34.047  56.879  1.00  0.00    -0.259 NA
HETATM    7  C   UNL     1       4.147  33.199  55.840  1.00  0.00     0.142 A 
HETATM    8  C   UNL     1       4.143  31.823  55.964  1.00  0.00     0.089 A 
HETATM    9  C   UNL     1       4.280  31.030  54.783  1.00  0.00     0.103 C 
HETATM   10  N   UNL     1       4.362  30.363  53.837  1.00  0.00    -0.191 NA
HETATM   11  C   UNL     1       3.994  31.255  57.247  1.00  0.00     0.067 A 
HETATM   12  C   UNL     1       3.737  34.433  59.154  1.00  0.00     0.071 A 
ENDROOT
BRANCH  11  13
HETATM   13  N   UNL     1       3.957  29.839  57.359  1.00  0.00    -0.354 N 
HETATM   14  H   UNL     1       3.032  29.467  57.579  1.00  0.00     0.166 HD
BRANCH  13  15
HETATM   15  C   UNL     1       4.855  28.800  57.043  1.00  0.00     0.034 A 
HETATM   16  C   UNL     1       6.216  29.007  57.318  1.00  0.00     0.056 A 
HETATM   17  C   UNL     1       7.179  28.067  56.947  1.00  0.00     0.069 A 
HETATM   18 CL   UNL     1       8.832  28.396  57.312  1.00  0.00    -0.081 Cl
HETATM   19  C   UNL     1       6.795  26.909  56.270  1.00  0.00     0.091 A 
HETATM   20  C   UNL     1       5.442  26.670  56.021  1.00  0.00     0.041 A 
HETATM   21  C   UNL     1       4.479  27.616  56.401  1.00  0.00     0.032 A 
BRANCH  19  22
HETATM   22  O   UNL     1       7.742  25.981  55.933  1.00  0.00    -0.344 OA
BRANCH  22  23
HETATM   23  C   UNL     1       7.381  24.643  56.313  1.00  0.00     0.235 C 
BRANCH  23  24
HETATM   24  C   UNL     1       7.547  23.657  55.173  1.00  0.00     0.058 A 
HETATM   25  N   UNL     1       7.617  22.341  55.518  1.00  0.00    -0.263 NA
HETATM   26  C   UNL     1       7.819  21.447  54.523  1.00  0.00     0.117 A 
HETATM   27  C   UNL     1       7.946  21.790  53.189  1.00  0.00     0.019 A 
HETATM   28  C   UNL     1       7.871  23.133  52.850  1.00  0.00     0.003 A 
HETATM   29  C   UNL     1       7.681  24.081  53.852  1.00  0.00     0.029 A 
ENDBRANCH  23  24
ENDBRANCH  22  23
ENDBRANCH  19  22
ENDBRANCH  13  15
ENDBRANCH  11  13
BRANCH   2  30
HETATM   30  N   UNL     1       3.725  32.102  62.067  1.00  0.00    -0.321 N 
HETATM   31  C   UNL     1       4.772  31.475  62.674  1.00  0.00     0.245 C 
HETATM   32  O   UNL     1       4.603  30.503  63.406  1.00  0.00    -0.268 OA
HETATM   33  H   UNL     1       2.828  31.803  62.438  1.00  0.00     0.169 HD
BRANCH  31  34
HETATM   34  C   UNL     1       6.055  32.234  62.693  1.00  0.00     0.072 C 
HETATM   35  C   UNL     1       6.888  32.084  61.650  1.00  0.00     0.006 C 
BRANCH  35  36
HETATM   36  C   UNL     1       8.320  32.491  61.640  1.00  0.00     0.261 C 
BRANCH  36  37
HETATM   37  N   UNL     1       9.183  31.353  61.134  1.00  0.00    -0.076 N 
HETATM   38  H   UNL     1      10.125  31.746  61.004  1.00  0.00     0.279 HD
HETATM   39  C   UNL     1       9.321  30.230  62.126  1.00  0.00     0.269 C 
HETATM   40  C   UNL     1       8.746  30.848  59.791  1.00  0.00     0.269 C 
ENDBRANCH  36  37
ENDBRANCH  35  36
ENDBRANCH  31  34
ENDBRANCH   2  30
BRANCH   1  41
HETATM   41  O   UNL     1       3.579  34.913  61.533  1.00  0.00    -0.349 OA
BRANCH  41  42
HETATM   42  C   UNL     1       4.775  35.652  61.806  1.00  0.00     0.171 C 
HETATM   43  C   UNL     1       4.936  35.747  63.313  1.00  0.00     0.034 C 
ENDBRANCH  41  42
ENDBRANCH   1  41
TORSDOF 11
ENDMDL
MODEL 8
REMARK VINA RESULT:      -8.2      2.608      5.750
REMARK  11 active torsions:
REMARK  status: ('A' for Active; 'I' for Inactive)
REMARK    1  A    between atoms: C_2  and  O_3 
REMARK    2  A    between atoms: O_3  and  C_4 
REMARK    3  A    between atoms: C_5  and  N_6 
REMARK       I    between atoms: N_6  and  C_7 
REMARK    4  A    between atoms: C_7  and  C_8 
REMARK    5  A    between atoms: C_9  and  C_10 
REMARK    6  A    between atoms: C_10  and  N_11 
REMARK    7  A    between atoms: C_24  and  N_25 
REMARK    8  A    between atoms: N_25  and  C_26 
REMARK    9  A    between atoms: C_30  and  O_31 
REMARK   10  A    between atoms: O_31  and  C_32 
REMARK   11  A    between atoms: C_32  and  C_33 
ROOT
HETATM    1  C   UNL     1       4.892  26.420  51.530  1.00  0.00     0.097 A 
HETATM    2  C   UNL     1       4.476  27.233  52.588  1.00  0.00     0.069 A 
HETATM    3  C   UNL     1       5.043  27.050  53.855  1.00  0.00     0.048 A 
HETATM    4  C   UNL     1       6.071  26.111  54.108  1.00  0.00     0.023 A 
HETATM    5  C   UNL     1       6.479  25.306  53.020  1.00  0.00     0.071 A 
HETATM    6  N   UNL     1       7.435  24.374  53.118  1.00  0.00    -0.259 NA
HETATM    7  C   UNL     1       8.037  24.199  54.311  1.00  0.00     0.142 A 
HETATM    8  C   UNL     1       7.710  24.908  55.450  1.00  0.00     0.089 A 
HETATM    9  C   UNL     1       8.411  24.617  56.662  1.00  0.00     0.103 C 
HETATM   10  N   UNL     1       8.945  24.381  57.663  1.00  0.00    -0.191 NA
HETATM   11  C   UNL     1       6.692  25.882  55.378  1.00  0.00     0.067 A 
HETATM   12  C   UNL     1       5.874  25.455  51.779  1.00  0.00     0.071 A 
ENDROOT
BRANCH  11  13
HETATM   13  N   UNL     1       6.339  26.582  56.563  1.00  0.00    -0.354 N 
HETATM   14  H   UNL     1       5.809  26.020  57.231  1.00  0.00     0.166 HD
BRANCH  13  15
HETATM   15  C   UNL     1       6.720  27.813  57.132  1.00  0.00     0.034 A 
HETATM   16  C   UNL     1       5.723  28.786  57.308  1.00  0.00     0.056 A 
HETATM   17  C   UNL     1       6.036  30.064  57.775  1.00  0.00     0.069 A 
HETATM   18 CL   UNL     1       4.758  31.209  57.957  1.00  0.00    -0.081 Cl
HETATM   19  C   UNL     1       7.362  30.397  58.054  1.00  0.00     0.091 A 
HETATM   20  C   UNL     1       8.360  29.430  57.920  1.00  0.00     0.041 A 
HETATM   21  C   UNL     1       8.039  28.147  57.455  1.00  0.00     0.032 A 
BRANCH  19  22
HETATM   22  O   UNL     1       7.657  31.643  58.536  1.00  0.00    -0.344 OA
BRANCH  22  23
HETATM   23  C   UNL     1       8.608  31.621  59.611  1.00  0.00     0.235 C 
BRANCH  23  24
HETATM   24  C   UNL     1       8.010  32.103  60.919  1.00  0.00     0.058 A 
HETATM   25  N   UNL     1       6.789  32.701  60.841  1.00  0.00    -0.263 NA
HETATM   26  C   UNL     1       6.259  33.186  61.987  1.00  0.00     0.117 A 
HETATM   27  C   UNL     1       6.877  33.101  63.222  1.00  0.00     0.019 A 
HETATM   28  C   UNL     1       8.120  32.489  63.289  1.00  0.00     0.003 A 
HETATM   29  C   UNL     1       8.701  31.993  62.125  1.00  0.00     0.029 A 
ENDBRANCH  23  24
ENDBRANCH  22  23
ENDBRANCH  19  22
ENDBRANCH  13  15
ENDBRANCH  11  13
BRANCH   2  30
HETATM   30  N   UNL     1       3.622  28.351  52.462  1.00  0.00    -0.321 N 
HETATM   31  C   UNL     1       3.930  29.678  52.509  1.00  0.00     0.245 C 
HETATM   32  O   UNL     1       3.185  30.492  53.049  1.00  0.00    -0.268 OA
HETATM   33  H   UNL     1       2.661  28.167  52.735  1.00  0.00     0.169 HD
BRANCH  31  34
HETATM   34  C   UNL     1       5.006  30.125  51.580  1.00  0.00     0.072 C 
HETATM   35  C   UNL     1       4.636  30.664  50.405  1.00  0.00     0.006 C 
BRANCH  35  36
HETATM   36  C   UNL     1       5.539  30.864  49.239  1.00  0.00     0.261 C 
BRANCH  36  37
HETATM   37  N   UNL     1       4.756  31.394  48.056  1.00  0.00    -0.076 N 
HETATM   38  H   UNL     1       3.839  31.678  48.426  1.00  0.00     0.279 HD
HETATM   39  C   UNL     1       5.370  32.624  47.445  1.00  0.00     0.269 C 
HETATM   40  C   UNL     1       4.489  30.342  47.021  1.00  0.00     0.269 C 
ENDBRANCH  36  37
ENDBRANCH  35  36
ENDBRANCH  31  34
ENDBRANCH   2  30
BRANCH   1  41
HETATM   41  O   UNL     1       4.350  26.630  50.290  1.00  0.00    -0.349 OA
BRANCH  41  42
HETATM   42  C   UNL     1       5.232  27.168  49.299  1.00  0.00     0.171 C 
HETATM   43  C   UNL     1       4.758  26.691  47.938  1.00  0.00     0.034 C 
ENDBRANCH  41  42
ENDBRANCH   1  41
TORSDOF 11
ENDMDL
MODEL 9
REMARK VINA RESULT:      -8.1      3.499     10.175
REMARK  11 active torsions:
REMARK  status: ('A' for Active; 'I' for Inactive)
REMARK    1  A    between atoms: C_2  and  O_3 
REMARK    2  A    between atoms: O_3  and  C_4 
REMARK    3  A    between atoms: C_5  and  N_6 
REMARK       I    between atoms: N_6  and  C_7 
REMARK    4  A    between atoms: C_7  and  C_8 
REMARK    5  A    between atoms: C_9  and  C_10 
REMARK    6  A    between atoms: C_10  and  N_11 
REMARK    7  A    between atoms: C_24  and  N_25 
REMARK    8  A    between atoms: N_25  and  C_26 
REMARK    9  A    between atoms: C_30  and  O_31 
REMARK   10  A    between atoms: O_31  and  C_32 
REMARK   11  A    between atoms: C_32  and  C_33 
ROOT
HETATM    1  C   UNL     1       6.757  33.189  61.727  1.00  0.00     0.097 A 
HETATM    2  C   UNL     1       5.751  32.656  60.918  1.00  0.00     0.069 A 
HETATM    3  C   UNL     1       6.105  31.968  59.751  1.00  0.00     0.048 A 
HETATM    4  C   UNL     1       7.449  31.734  59.375  1.00  0.00     0.023 A 
HETATM    5  C   UNL     1       8.448  32.278  60.214  1.00  0.00     0.071 A 
HETATM    6  N   UNL     1       9.757  32.139  59.976  1.00  0.00    -0.259 NA
HETATM    7  C   UNL     1      10.140  31.444  58.886  1.00  0.00     0.142 A 
HETATM    8  C   UNL     1       9.258  30.885  57.981  1.00  0.00     0.089 A 
HETATM    9  C   UNL     1       9.788  30.186  56.853  1.00  0.00     0.103 C 
HETATM   10  N   UNL     1      10.192  29.637  55.915  1.00  0.00    -0.191 NA
HETATM   11  C   UNL     1       7.872  31.035  58.199  1.00  0.00     0.067 A 
HETATM   12  C   UNL     1       8.090  33.006  61.341  1.00  0.00     0.071 A 
ENDROOT
BRANCH  11  13
HETATM   13  N   UNL     1       6.974  30.485  57.245  1.00  0.00    -0.354 N 
HETATM   14  H   UNL     1       6.466  31.188  56.705  1.00  0.00     0.166 HD
BRANCH  13  15
HETATM   15  C   UNL     1       6.760  29.196  56.720  1.00  0.00     0.034 A 
HETATM   16  C   UNL     1       7.145  28.099  57.507  1.00  0.00     0.056 A 
HETATM   17  C   UNL     1       7.054  26.793  57.019  1.00  0.00     0.069 A 
HETATM   18 CL   UNL     1       7.555  25.498  58.042  1.00  0.00    -0.081 Cl
HETATM   19  C   UNL     1       6.596  26.566  55.722  1.00  0.00     0.091 A 
HETATM   20  C   UNL     1       6.173  27.643  54.939  1.00  0.00     0.041 A 
HETATM   21  C   UNL     1       6.262  28.951  55.436  1.00  0.00     0.032 A 
BRANCH  19  22
HETATM   22  O   UNL     1       6.485  25.283  55.261  1.00  0.00    -0.344 OA
BRANCH  22  23
HETATM   23  C   UNL     1       7.593  24.882  54.439  1.00  0.00     0.235 C 
BRANCH  23  24
HETATM   24  C   UNL     1       7.701  23.374  54.315  1.00  0.00     0.058 A 
HETATM   25  N   UNL     1       7.730  22.672  55.481  1.00  0.00    -0.263 NA
HETATM   26  C   UNL     1       7.880  21.330  55.397  1.00  0.00     0.117 A 
HETATM   27  C   UNL     1       7.994  20.638  54.204  1.00  0.00     0.019 A 
HETATM   28  C   UNL     1       7.961  21.364  53.023  1.00  0.00     0.003 A 
HETATM   29  C   UNL     1       7.824  22.749  53.075  1.00  0.00     0.029 A 
ENDBRANCH  23  24
ENDBRANCH  22  23
ENDBRANCH  19  22
ENDBRANCH  13  15
ENDBRANCH  11  13
BRANCH   2  30
HETATM   30  N   UNL     1       4.380  32.614  61.254  1.00  0.00    -0.321 N 
HETATM   31  C   UNL     1       3.545  33.638  61.588  1.00  0.00     0.245 C 
HETATM   32  O   UNL     1       2.682  33.508  62.453  1.00  0.00    -0.268 OA
HETATM   33  H   UNL     1       4.080  31.727  61.646  1.00  0.00     0.169 HD
BRANCH  31  34
HETATM   34  C   UNL     1       3.494  34.771  60.621  1.00  0.00     0.072 C 
HETATM   35  C   UNL     1       4.249  35.852  60.881  1.00  0.00     0.006 C 
BRANCH  35  36
HETATM   36  C   UNL     1       4.089  37.180  60.227  1.00  0.00     0.261 C 
BRANCH  36  37
HETATM   37  N   UNL     1       5.073  38.172  60.811  1.00  0.00    -0.076 N 
HETATM   38  H   UNL     1       5.738  38.391  60.057  1.00  0.00     0.279 HD
HETATM   39  C   UNL     1       4.432  39.475  61.207  1.00  0.00     0.269 C 
HETATM   40  C   UNL     1       5.880  37.595  61.935  1.00  0.00     0.269 C 
ENDBRANCH  36  37
ENDBRANCH  35  36
ENDBRANCH  31  34
ENDBRANCH   2  30
BRANCH   1  41
HETATM   41  O   UNL     1       6.398  33.834  62.881  1.00  0.00    -0.349 OA
BRANCH  41  42
HETATM   42  C   UNL     1       6.459  33.058  64.083  1.00  0.00     0.171 C 
HETATM   43  C   UNL     1       5.262  33.424  64.941  1.00  0.00     0.034 C 
ENDBRANCH  41  42
ENDBRANCH   1  41
TORSDOF 11
ENDMDL
MODEL 10
REMARK VINA RESULT:      -8.1      2.834      5.532
REMARK  11 active torsions:
REMARK  status: ('A' for Active; 'I' for Inactive)
REMARK    1  A    between atoms: C_2  and  O_3 
REMARK    2  A    between atoms: O_3  and  C_4 
REMARK    3  A    between atoms: C_5  and  N_6 
REMARK       I    between atoms: N_6  and  C_7 
REMARK    4  A    between atoms: C_7  and  C_8 
REMARK    5  A    between atoms: C_9  and  C_10 
REMARK    6  A    between atoms: C_10  and  N_11 
REMARK    7  A    between atoms: C_24  and  N_25 
REMARK    8  A    between atoms: N_25  and  C_26 
REMARK    9  A    between atoms: C_30  and  O_31 
REMARK   10  A    between atoms: O_31  and  C_32 
REMARK   11  A    between atoms: C_32  and  C_33 
ROOT
HETATM    1  C   UNL     1       4.818  27.187  51.150  1.00  0.00     0.097 A 
HETATM    2  C   UNL     1       5.512  28.306  51.617  1.00  0.00     0.069 A 
HETATM    3  C   UNL     1       6.277  28.198  52.785  1.00  0.00     0.048 A 
HETATM    4  C   UNL     1       6.430  26.983  53.493  1.00  0.00     0.023 A 
HETATM    5  C   UNL     1       5.723  25.864  52.997  1.00  0.00     0.071 A 
HETATM    6  N   UNL     1       5.771  24.655  53.570  1.00  0.00    -0.259 NA
HETATM    7  C   UNL     1       6.533  24.499  54.671  1.00  0.00     0.142 A 
HETATM    8  C   UNL     1       7.251  25.521  55.261  1.00  0.00     0.089 A 
HETATM    9  C   UNL     1       8.007  25.233  56.439  1.00  0.00     0.103 C 
HETATM   10  N   UNL     1       8.608  25.032  57.411  1.00  0.00    -0.191 NA
HETATM   11  C   UNL     1       7.200  26.809  54.688  1.00  0.00     0.067 A 
HETATM   12  C   UNL     1       4.923  25.991  51.868  1.00  0.00     0.071 A 
ENDROOT
BRANCH  11  13
HETATM   13  N   UNL     1       7.914  27.861  55.323  1.00  0.00    -0.354 N 
HETATM   14  H   UNL     1       8.754  28.151  54.820  1.00  0.00     0.166 HD
BRANCH  13  15
HETATM   15  C   UNL     1       7.633  28.743  56.384  1.00  0.00     0.034 A 
HETATM   16  C   UNL     1       6.549  29.623  56.232  1.00  0.00     0.056 A 
HETATM   17  C   UNL     1       6.265  30.592  57.196  1.00  0.00     0.069 A 
HETATM   18 CL   UNL     1       4.922  31.642  56.935  1.00  0.00    -0.081 Cl
HETATM   19  C   UNL     1       7.079  30.711  58.323  1.00  0.00     0.091 A 
HETATM   20  C   UNL     1       8.138  29.820  58.508  1.00  0.00     0.041 A 
HETATM   21  C   UNL     1       8.416  28.847  57.539  1.00  0.00     0.032 A 
BRANCH  19  22
HETATM   22  O   UNL     1       6.778  31.646  59.275  1.00  0.00    -0.344 OA
BRANCH  22  23
HETATM   23  C   UNL     1       7.904  32.000  60.094  1.00  0.00     0.235 C 
BRANCH  23  24
HETATM   24  C   UNL     1       7.486  32.505  61.461  1.00  0.00     0.058 A 
HETATM   25  N   UNL     1       6.325  33.215  61.514  1.00  0.00    -0.263 NA
HETATM   26  C   UNL     1       5.959  33.720  62.714  1.00  0.00     0.117 A 
HETATM   27  C   UNL     1       6.684  33.550  63.880  1.00  0.00     0.019 A 
HETATM   28  C   UNL     1       7.864  32.824  63.813  1.00  0.00     0.003 A 
HETATM   29  C   UNL     1       8.278  32.303  62.590  1.00  0.00     0.029 A 
ENDBRANCH  23  24
ENDBRANCH  22  23
ENDBRANCH  19  22
ENDBRANCH  13  15
ENDBRANCH  11  13
BRANCH   2  30
HETATM   30  N   UNL     1       5.639  29.528  50.921  1.00  0.00    -0.321 N 
HETATM   31  C   UNL     1       4.751  30.557  50.821  1.00  0.00     0.245 C 
HETATM   32  O   UNL     1       4.609  31.185  49.775  1.00  0.00    -0.268 OA
HETATM   33  H   UNL     1       6.272  29.486  50.128  1.00  0.00     0.169 HD
BRANCH  31  34
HETATM   34  C   UNL     1       4.242  31.099  52.113  1.00  0.00     0.072 C 
HETATM   35  C   UNL     1       4.324  32.425  52.313  1.00  0.00     0.006 C 
BRANCH  35  36
HETATM   36  C   UNL     1       4.174  33.098  53.632  1.00  0.00     0.261 C 
BRANCH  36  37
HETATM   37  N   UNL     1       5.431  33.873  53.969  1.00  0.00    -0.076 N 
HETATM   38  H   UNL     1       6.106  33.182  54.323  1.00  0.00     0.279 HD
HETATM   39  C   UNL     1       6.068  34.516  52.767  1.00  0.00     0.269 C 
HETATM   40  C   UNL     1       5.221  34.865  55.074  1.00  0.00     0.269 C 
ENDBRANCH  36  37
ENDBRANCH  35  36
ENDBRANCH  31  34
ENDBRANCH   2  30
BRANCH   1  41
HETATM   41  O   UNL     1       4.099  27.299  49.990  1.00  0.00    -0.349 OA
BRANCH  41  42
HETATM   42  C   UNL     1       4.608  26.584  48.859  1.00  0.00     0.171 C 
HETATM   43  C   UNL     1       3.488  25.725  48.302  1.00  0.00     0.034 C 
ENDBRANCH  41  42
ENDBRANCH   1  41
TORSDOF 11
ENDMDL
