MODEL 1
REMARK VINA RESULT:      -9.8      0.000      0.000
REMARK  4 active torsions:
REMARK  status: ('A' for Active; 'I' for Inactive)
REMARK    1  A    between atoms: C_6  and  C_7 
REMARK       I    between atoms: C_7  and  N_8 
REMARK    2  A    between atoms: N_8  and  C_9 
REMARK    3  A    between atoms: C_16  and  C_17 
REMARK       I    between atoms: C_17  and  N_18 
REMARK    4  A    between atoms: C_25  and  O_26 
ROOT
HETATM    1  C   UNL     1       7.705  26.738  56.670  1.00  0.00     0.259 C 
HETATM    2  N   UNL     1       8.192  27.956  56.236  1.00  0.00    -0.323 N 
HETATM    3  O   UNL     1       7.618  26.380  57.837  1.00  0.00    -0.267 OA
HETATM    4  H   UNL     1       8.132  28.136  55.245  1.00  0.00     0.169 HD
ENDROOT
BRANCH   2   5
HETATM    5  C   UNL     1       8.687  29.021  57.024  1.00  0.00     0.036 A 
HETATM    6  C   UNL     1       7.888  29.807  57.866  1.00  0.00     0.046 A 
HETATM    7  C   UNL     1       8.474  30.869  58.592  1.00  0.00     0.030 A 
HETATM    8  C   UNL     1       9.839  31.093  58.470  1.00  0.00     0.063 A 
HETATM    9  C   UNL     1       8.012  31.879  59.490  1.00  0.00     0.156 A 
HETATM   10  N   UNL     1      10.106  32.159  59.283  1.00  0.00    -0.277 N 
HETATM   11  C   UNL     1      10.666  30.323  57.651  1.00  0.00     0.034 A 
HETATM   12  H   UNL     1      11.005  32.596  59.447  1.00  0.00     0.189 HD
HETATM   13  N   UNL     1       9.031  32.665  59.908  1.00  0.00    -0.168 NA
HETATM   14  C   UNL     1      10.059  29.290  56.925  1.00  0.00     0.032 A 
BRANCH   9  15
HETATM   15  C   UNL     1       6.633  32.117  59.940  1.00  0.00     0.270 C 
HETATM   16  N   UNL     1       6.364  31.640  61.195  1.00  0.00    -0.365 N 
HETATM   17  H   UNL     1       7.109  31.186  61.712  1.00  0.00     0.159 HD
HETATM   18  H   UNL     1       5.451  31.779  61.596  1.00  0.00     0.159 HD
HETATM   19  O   UNL     1       5.774  32.696  59.285  1.00  0.00    -0.266 OA
ENDBRANCH   9  15
ENDBRANCH   2   5
BRANCH   1  20
HETATM   20  C   UNL     1       7.234  25.871  55.592  1.00  0.00     0.074 A 
HETATM   21  C   UNL     1       6.167  26.202  54.765  1.00  0.00     0.066 A 
HETATM   22  C   UNL     1       5.260  27.370  54.700  1.00  0.00     0.078 C 
HETATM   23  O   UNL     1       5.963  25.238  53.829  1.00  0.00    -0.314 OA
HETATM   24  C   UNL     1       6.871  24.257  54.059  1.00  0.00     0.087 A 
HETATM   25  C   UNL     1       7.675  24.577  55.146  1.00  0.00     0.019 A 
HETATM   26  C   UNL     1       6.977  23.085  53.315  1.00  0.00     0.041 A 
HETATM   27  C   UNL     1       8.646  23.626  55.547  1.00  0.00     0.052 A 
HETATM   28  C   UNL     1       8.792  22.439  54.812  1.00  0.00     0.069 A 
HETATM   29  C   UNL     1       7.963  22.181  53.714  1.00  0.00     0.039 A 
BRANCH  28  30
HETATM   30  O   UNL     1       9.698  21.446  55.073  1.00  0.00    -0.356 OA
HETATM   31  C   UNL     1       9.279  20.390  55.927  1.00  0.00     0.210 C 
ENDBRANCH  28  30
ENDBRANCH   1  20
TORSDOF 4
ENDMDL
MODEL 2
REMARK VINA RESULT:      -9.4      1.356      3.308
REMARK  4 active torsions:
REMARK  status: ('A' for Active; 'I' for Inactive)
REMARK    1  A    between atoms: C_6  and  C_7 
REMARK       I    between atoms: C_7  and  N_8 
REMARK    2  A    between atoms: N_8  and  C_9 
REMARK    3  A    between atoms: C_16  and  C_17 
REMARK       I    between atoms: C_17  and  N_18 
REMARK    4  A    between atoms: C_25  and  O_26 
ROOT
HETATM    1  C   UNL     1       7.785  26.536  56.906  1.00  0.00     0.259 C 
HETATM    2  N   UNL     1       8.306  27.708  56.390  1.00  0.00    -0.323 N 
HETATM    3  O   UNL     1       7.647  26.281  58.096  1.00  0.00    -0.267 OA
HETATM    4  H   UNL     1       8.288  27.802  55.386  1.00  0.00     0.169 HD
ENDROOT
BRANCH   2   5
HETATM    5  C   UNL     1       8.782  28.831  57.103  1.00  0.00     0.036 A 
HETATM    6  C   UNL     1       7.984  29.622  57.941  1.00  0.00     0.046 A 
HETATM    7  C   UNL     1       8.549  30.744  58.588  1.00  0.00     0.030 A 
HETATM    8  C   UNL     1       9.895  31.022  58.396  1.00  0.00     0.063 A 
HETATM    9  C   UNL     1       8.078  31.776  59.456  1.00  0.00     0.156 A 
HETATM   10  N   UNL     1      10.146  32.139  59.144  1.00  0.00    -0.277 N 
HETATM   11  C   UNL     1      10.723  30.250  57.580  1.00  0.00     0.034 A 
HETATM   12  H   UNL     1      11.030  32.623  59.247  1.00  0.00     0.189 HD
HETATM   13  N   UNL     1       9.075  32.626  59.791  1.00  0.00    -0.168 NA
HETATM   14  C   UNL     1      10.135  29.156  56.931  1.00  0.00     0.032 A 
BRANCH   9  15
HETATM   15  C   UNL     1       6.710  31.974  59.955  1.00  0.00     0.270 C 
HETATM   16  N   UNL     1       6.531  31.602  61.260  1.00  0.00    -0.365 N 
HETATM   17  H   UNL     1       7.326  31.244  61.776  1.00  0.00     0.159 HD
HETATM   18  H   UNL     1       5.630  31.726  61.695  1.00  0.00     0.159 HD
HETATM   19  O   UNL     1       5.786  32.438  59.295  1.00  0.00    -0.266 OA
ENDBRANCH   9  15
ENDBRANCH   2   5
BRANCH   1  20
HETATM   20  C   UNL     1       7.346  25.584  55.888  1.00  0.00     0.074 A 
HETATM   21  C   UNL     1       7.698  24.240  55.905  1.00  0.00     0.066 A 
HETATM   22  C   UNL     1       8.526  23.421  56.820  1.00  0.00     0.078 C 
HETATM   23  O   UNL     1       7.129  23.576  54.865  1.00  0.00    -0.314 OA
HETATM   24  C   UNL     1       6.431  24.487  54.142  1.00  0.00     0.087 A 
HETATM   25  C   UNL     1       6.540  25.752  54.709  1.00  0.00     0.019 A 
HETATM   26  C   UNL     1       5.714  24.200  52.984  1.00  0.00     0.041 A 
HETATM   27  C   UNL     1       5.905  26.828  54.041  1.00  0.00     0.052 A 
HETATM   28  C   UNL     1       5.160  26.573  52.878  1.00  0.00     0.069 A 
HETATM   29  C   UNL     1       5.073  25.275  52.365  1.00  0.00     0.039 A 
BRANCH  28  30
HETATM   30  O   UNL     1       4.481  27.510  52.146  1.00  0.00    -0.356 OA
HETATM   31  C   UNL     1       4.739  27.556  50.749  1.00  0.00     0.210 C 
ENDBRANCH  28  30
ENDBRANCH   1  20
TORSDOF 4
ENDMDL
MODEL 3
REMARK VINA RESULT:      -9.2      4.433      7.753
REMARK  4 active torsions:
REMARK  status: ('A' for Active; 'I' for Inactive)
REMARK    1  A    between atoms: C_6  and  C_7 
REMARK       I    between atoms: C_7  and  N_8 
REMARK    2  A    between atoms: N_8  and  C_9 
REMARK    3  A    between atoms: C_16  and  C_17 
REMARK       I    between atoms: C_17  and  N_18 
REMARK    4  A    between atoms: C_25  and  O_26 
ROOT
HETATM    1  C   UNL     1       6.770  26.808  53.954  1.00  0.00     0.259 C 
HETATM    2  N   UNL     1       5.518  26.558  53.423  1.00  0.00    -0.323 N 
HETATM    3  O   UNL     1       7.508  27.730  53.633  1.00  0.00    -0.267 OA
HETATM    4  H   UNL     1       4.997  25.803  53.842  1.00  0.00     0.169 HD
ENDROOT
BRANCH   2   5
HETATM    5  C   UNL     1       4.842  27.289  52.420  1.00  0.00     0.036 A 
HETATM    6  C   UNL     1       4.954  27.023  51.049  1.00  0.00     0.046 A 
HETATM    7  C   UNL     1       4.257  27.831  50.122  1.00  0.00     0.030 A 
HETATM    8  C   UNL     1       3.455  28.860  50.597  1.00  0.00     0.063 A 
HETATM    9  C   UNL     1       4.145  27.902  48.699  1.00  0.00     0.156 A 
HETATM   10  N   UNL     1       2.916  29.444  49.486  1.00  0.00    -0.277 N 
HETATM   11  C   UNL     1       3.310  29.145  51.956  1.00  0.00     0.034 A 
HETATM   12  H   UNL     1       2.275  30.228  49.453  1.00  0.00     0.189 HD
HETATM   13  N   UNL     1       3.313  28.901  48.324  1.00  0.00    -0.168 NA
HETATM   14  C   UNL     1       4.027  28.344  52.855  1.00  0.00     0.032 A 
BRANCH   9  15
HETATM   15  C   UNL     1       4.819  27.058  47.703  1.00  0.00     0.270 C 
HETATM   16  N   UNL     1       5.996  27.576  47.235  1.00  0.00    -0.365 N 
HETATM   17  H   UNL     1       6.316  28.464  47.603  1.00  0.00     0.159 HD
HETATM   18  H   UNL     1       6.540  27.053  46.567  1.00  0.00     0.159 HD
HETATM   19  O   UNL     1       4.401  25.974  47.309  1.00  0.00    -0.266 OA
ENDBRANCH   9  15
ENDBRANCH   2   5
BRANCH   1  20
HETATM   20  C   UNL     1       7.161  25.877  55.010  1.00  0.00     0.074 A 
HETATM   21  C   UNL     1       7.054  26.177  56.363  1.00  0.00     0.066 A 
HETATM   22  C   UNL     1       6.583  27.371  57.101  1.00  0.00     0.078 C 
HETATM   23  O   UNL     1       7.454  25.126  57.125  1.00  0.00    -0.314 OA
HETATM   24  C   UNL     1       7.858  24.147  56.279  1.00  0.00     0.087 A 
HETATM   25  C   UNL     1       7.721  24.553  54.956  1.00  0.00     0.019 A 
HETATM   26  C   UNL     1       8.352  22.908  56.677  1.00  0.00     0.041 A 
HETATM   27  C   UNL     1       8.149  23.657  53.946  1.00  0.00     0.052 A 
HETATM   28  C   UNL     1       8.640  22.392  54.310  1.00  0.00     0.069 A 
HETATM   29  C   UNL     1       8.737  22.034  55.659  1.00  0.00     0.039 A 
BRANCH  28  30
HETATM   30  O   UNL     1       9.067  21.424  53.441  1.00  0.00    -0.356 OA
HETATM   31  C   UNL     1       8.097  20.496  52.973  1.00  0.00     0.210 C 
ENDBRANCH  28  30
ENDBRANCH   1  20
TORSDOF 4
ENDMDL
MODEL 4
REMARK VINA RESULT:      -9.1      3.600      6.427
REMARK  4 active torsions:
REMARK  status: ('A' for Active; 'I' for Inactive)
REMARK    1  A    between atoms: C_6  and  C_7 
REMARK       I    between atoms: C_7  and  N_8 
REMARK    2  A    between atoms: N_8  and  C_9 
REMARK    3  A    between atoms: C_16  and  C_17 
REMARK       I    between atoms: C_17  and  N_18 
REMARK    4  A    between atoms: C_25  and  O_26 
ROOT
HETATM    1  C   UNL     1       7.040  31.991  59.579  1.00  0.00     0.259 C 
HETATM    2  N   UNL     1       6.208  31.780  60.663  1.00  0.00    -0.323 N 
HETATM    3  O   UNL     1       8.079  32.639  59.595  1.00  0.00    -0.267 OA
HETATM    4  H   UNL     1       5.425  31.161  60.512  1.00  0.00     0.169 HD
ENDROOT
BRANCH   2   5
HETATM    5  C   UNL     1       6.368  32.256  61.983  1.00  0.00     0.036 A 
HETATM    6  C   UNL     1       5.342  32.851  62.731  1.00  0.00     0.046 A 
HETATM    7  C   UNL     1       5.611  33.322  64.035  1.00  0.00     0.030 A 
HETATM    8  C   UNL     1       6.888  33.162  64.557  1.00  0.00     0.063 A 
HETATM    9  C   UNL     1       4.874  33.991  65.060  1.00  0.00     0.156 A 
HETATM   10  N   UNL     1       6.837  33.697  65.814  1.00  0.00    -0.277 N 
HETATM   11  C   UNL     1       7.930  32.564  63.847  1.00  0.00     0.034 A 
HETATM   12  H   UNL     1       7.590  33.749  66.490  1.00  0.00     0.189 HD
HETATM   13  N   UNL     1       5.644  34.212  66.150  1.00  0.00    -0.168 NA
HETATM   14  C   UNL     1       7.645  32.124  62.548  1.00  0.00     0.032 A 
BRANCH   9  15
HETATM   15  C   UNL     1       3.473  34.430  65.016  1.00  0.00     0.270 C 
HETATM   16  N   UNL     1       3.181  35.459  65.870  1.00  0.00    -0.365 N 
HETATM   17  H   UNL     1       3.927  35.842  66.441  1.00  0.00     0.159 HD
HETATM   18  H   UNL     1       2.250  35.843  65.889  1.00  0.00     0.159 HD
HETATM   19  O   UNL     1       2.613  33.949  64.286  1.00  0.00    -0.266 OA
ENDBRANCH   9  15
ENDBRANCH   2   5
BRANCH   1  20
HETATM   20  C   UNL     1       6.602  31.321  58.357  1.00  0.00     0.074 A 
HETATM   21  C   UNL     1       5.680  31.876  57.477  1.00  0.00     0.066 A 
HETATM   22  C   UNL     1       4.923  33.148  57.474  1.00  0.00     0.078 C 
HETATM   23  O   UNL     1       5.478  31.061  56.409  1.00  0.00    -0.314 OA
HETATM   24  C   UNL     1       6.238  29.954  56.600  1.00  0.00     0.087 A 
HETATM   25  C   UNL     1       6.944  30.042  57.795  1.00  0.00     0.019 A 
HETATM   26  C   UNL     1       6.297  28.873  55.726  1.00  0.00     0.041 A 
HETATM   27  C   UNL     1       7.750  28.938  58.164  1.00  0.00     0.052 A 
HETATM   28  C   UNL     1       7.845  27.835  57.300  1.00  0.00     0.069 A 
HETATM   29  C   UNL     1       7.125  27.812  56.101  1.00  0.00     0.039 A 
BRANCH  28  30
HETATM   30  O   UNL     1       8.600  26.713  57.520  1.00  0.00    -0.356 OA
HETATM   31  C   UNL     1       8.060  25.471  57.088  1.00  0.00     0.210 C 
ENDBRANCH  28  30
ENDBRANCH   1  20
TORSDOF 4
ENDMDL
MODEL 5
REMARK VINA RESULT:      -9.1      3.270      8.551
REMARK  4 active torsions:
REMARK  status: ('A' for Active; 'I' for Inactive)
REMARK    1  A    between atoms: C_6  and  C_7 
REMARK       I    between atoms: C_7  and  N_8 
REMARK    2  A    between atoms: N_8  and  C_9 
REMARK    3  A    between atoms: C_16  and  C_17 
REMARK       I    between atoms: C_17  and  N_18 
REMARK    4  A    between atoms: C_25  and  O_26 
ROOT
HETATM    1  C   UNL     1       7.246  27.616  54.859  1.00  0.00     0.259 C 
HETATM    2  N   UNL     1       6.684  26.387  55.152  1.00  0.00    -0.323 N 
HETATM    3  O   UNL     1       8.113  27.820  54.019  1.00  0.00    -0.267 OA
HETATM    4  H   UNL     1       5.926  26.389  55.818  1.00  0.00     0.169 HD
ENDROOT
BRANCH   2   5
HETATM    5  C   UNL     1       6.984  25.137  54.566  1.00  0.00     0.036 A 
HETATM    6  C   UNL     1       7.465  24.032  55.284  1.00  0.00     0.046 A 
HETATM    7  C   UNL     1       7.762  22.832  54.601  1.00  0.00     0.030 A 
HETATM    8  C   UNL     1       7.548  22.768  53.231  1.00  0.00     0.063 A 
HETATM    9  C   UNL     1       8.283  21.549  54.954  1.00  0.00     0.156 A 
HETATM   10  N   UNL     1       7.912  21.502  52.864  1.00  0.00    -0.277 N 
HETATM   11  C   UNL     1       7.059  23.843  52.486  1.00  0.00     0.034 A 
HETATM   12  H   UNL     1       7.883  21.100  51.935  1.00  0.00     0.189 HD
HETATM   13  N   UNL     1       8.367  20.741  53.872  1.00  0.00    -0.168 NA
HETATM   14  C   UNL     1       6.792  25.029  53.182  1.00  0.00     0.032 A 
BRANCH   9  15
HETATM   15  C   UNL     1       8.709  21.089  56.282  1.00  0.00     0.270 C 
HETATM   16  N   UNL     1       9.657  20.101  56.255  1.00  0.00    -0.365 N 
HETATM   17  H   UNL     1       9.995  19.778  55.356  1.00  0.00     0.159 HD
HETATM   18  H   UNL     1      10.027  19.741  57.120  1.00  0.00     0.159 HD
HETATM   19  O   UNL     1       8.287  21.532  57.345  1.00  0.00    -0.266 OA
ENDBRANCH   9  15
ENDBRANCH   2   5
BRANCH   1  20
HETATM   20  C   UNL     1       6.680  28.724  55.625  1.00  0.00     0.074 A 
HETATM   21  C   UNL     1       5.518  29.389  55.251  1.00  0.00     0.066 A 
HETATM   22  C   UNL     1       4.589  29.238  54.108  1.00  0.00     0.078 C 
HETATM   23  O   UNL     1       5.198  30.351  56.155  1.00  0.00    -0.314 OA
HETATM   24  C   UNL     1       6.164  30.345  57.106  1.00  0.00     0.087 A 
HETATM   25  C   UNL     1       7.122  29.375  56.829  1.00  0.00     0.019 A 
HETATM   26  C   UNL     1       6.201  31.199  58.205  1.00  0.00     0.041 A 
HETATM   27  C   UNL     1       8.229  29.275  57.707  1.00  0.00     0.052 A 
HETATM   28  C   UNL     1       8.292  30.111  58.834  1.00  0.00     0.069 A 
HETATM   29  C   UNL     1       7.288  31.056  59.069  1.00  0.00     0.039 A 
BRANCH  28  30
HETATM   30  O   UNL     1       9.289  30.108  59.772  1.00  0.00    -0.356 OA
HETATM   31  C   UNL     1       8.968  30.604  61.065  1.00  0.00     0.210 C 
ENDBRANCH  28  30
ENDBRANCH   1  20
TORSDOF 4
ENDMDL
MODEL 6
REMARK VINA RESULT:      -8.9      5.513     11.453
REMARK  4 active torsions:
REMARK  status: ('A' for Active; 'I' for Inactive)
REMARK    1  A    between atoms: C_6  and  C_7 
REMARK       I    between atoms: C_7  and  N_8 
REMARK    2  A    between atoms: N_8  and  C_9 
REMARK    3  A    between atoms: C_16  and  C_17 
REMARK       I    between atoms: C_17  and  N_18 
REMARK    4  A    between atoms: C_25  and  O_26 
ROOT
HETATM    1  C   UNL     1       5.391  32.530  63.402  1.00  0.00     0.259 C 
HETATM    2  N   UNL     1       6.414  33.049  62.631  1.00  0.00    -0.323 N 
HETATM    3  O   UNL     1       4.987  31.375  63.364  1.00  0.00    -0.267 OA
HETATM    4  H   UNL     1       6.684  34.001  62.828  1.00  0.00     0.169 HD
ENDROOT
BRANCH   2   5
HETATM    5  C   UNL     1       7.190  32.380  61.658  1.00  0.00     0.036 A 
HETATM    6  C   UNL     1       6.683  31.919  60.435  1.00  0.00     0.046 A 
HETATM    7  C   UNL     1       7.535  31.235  59.539  1.00  0.00     0.030 A 
HETATM    8  C   UNL     1       8.868  31.056  59.885  1.00  0.00     0.063 A 
HETATM    9  C   UNL     1       7.396  30.605  58.264  1.00  0.00     0.156 A 
HETATM   10  N   UNL     1       9.428  30.382  58.835  1.00  0.00    -0.277 N 
HETATM   11  C   UNL     1       9.410  31.512  61.087  1.00  0.00     0.034 A 
HETATM   12  H   UNL     1      10.393  30.086  58.740  1.00  0.00     0.189 HD
HETATM   13  N   UNL     1       8.573  30.087  57.844  1.00  0.00    -0.168 NA
HETATM   14  C   UNL     1       8.541  32.169  61.968  1.00  0.00     0.032 A 
BRANCH   9  15
HETATM   15  C   UNL     1       6.176  30.477  57.456  1.00  0.00     0.270 C 
HETATM   16  N   UNL     1       5.165  29.791  58.074  1.00  0.00    -0.365 N 
HETATM   17  H   UNL     1       5.317  29.445  59.015  1.00  0.00     0.159 HD
HETATM   18  H   UNL     1       4.281  29.676  57.605  1.00  0.00     0.159 HD
HETATM   19  O   UNL     1       6.032  30.937  56.329  1.00  0.00    -0.266 OA
ENDBRANCH   9  15
ENDBRANCH   2   5
BRANCH   1  20
HETATM   20  C   UNL     1       4.818  33.486  64.346  1.00  0.00     0.074 A 
HETATM   21  C   UNL     1       3.589  34.105  64.147  1.00  0.00     0.066 A 
HETATM   22  C   UNL     1       2.583  34.031  63.064  1.00  0.00     0.078 C 
HETATM   23  O   UNL     1       3.281  34.918  65.191  1.00  0.00    -0.314 OA
HETATM   24  C   UNL     1       4.319  34.863  66.062  1.00  0.00     0.087 A 
HETATM   25  C   UNL     1       5.311  34.011  65.591  1.00  0.00     0.019 A 
HETATM   26  C   UNL     1       4.388  35.571  67.258  1.00  0.00     0.041 A 
HETATM   27  C   UNL     1       6.489  33.883  66.367  1.00  0.00     0.052 A 
HETATM   28  C   UNL     1       6.589  34.571  67.587  1.00  0.00     0.069 A 
HETATM   29  C   UNL     1       5.548  35.401  68.017  1.00  0.00     0.039 A 
BRANCH  28  30
HETATM   30  O   UNL     1       7.656  34.524  68.444  1.00  0.00    -0.356 OA
HETATM   31  C   UNL     1       7.606  35.360  69.592  1.00  0.00     0.210 C 
ENDBRANCH  28  30
ENDBRANCH   1  20
TORSDOF 4
ENDMDL
MODEL 7
REMARK VINA RESULT:      -8.9      5.012      8.475
REMARK  4 active torsions:
REMARK  status: ('A' for Active; 'I' for Inactive)
REMARK    1  A    between atoms: C_6  and  C_7 
REMARK       I    between atoms: C_7  and  N_8 
REMARK    2  A    between atoms: N_8  and  C_9 
REMARK    3  A    between atoms: C_16  and  C_17 
REMARK       I    between atoms: C_17  and  N_18 
REMARK    4  A    between atoms: C_25  and  O_26 
ROOT
HETATM    1  C   UNL     1       5.303  25.975  53.049  1.00  0.00     0.259 C 
HETATM    2  N   UNL     1       6.509  25.989  53.723  1.00  0.00    -0.323 N 
HETATM    3  O   UNL     1       4.437  25.116  53.157  1.00  0.00    -0.267 OA
HETATM    4  H   UNL     1       7.090  26.803  53.586  1.00  0.00     0.169 HD
ENDROOT
BRANCH   2   5
HETATM    5  C   UNL     1       6.993  25.040  54.652  1.00  0.00     0.036 A 
HETATM    6  C   UNL     1       7.382  23.738  54.310  1.00  0.00     0.046 A 
HETATM    7  C   UNL     1       7.826  22.854  55.319  1.00  0.00     0.030 A 
HETATM    8  C   UNL     1       7.889  23.308  56.630  1.00  0.00     0.063 A 
HETATM    9  C   UNL     1       8.257  21.493  55.378  1.00  0.00     0.156 A 
HETATM   10  N   UNL     1       8.355  22.250  57.359  1.00  0.00    -0.277 N 
HETATM   11  C   UNL     1       7.522  24.601  57.005  1.00  0.00     0.034 A 
HETATM   12  H   UNL     1       8.531  22.222  58.357  1.00  0.00     0.189 HD
HETATM   13  N   UNL     1       8.581  21.137  56.642  1.00  0.00    -0.168 NA
HETATM   14  C   UNL     1       7.064  25.453  55.991  1.00  0.00     0.032 A 
BRANCH   9  15
HETATM   15  C   UNL     1       8.351  20.533  54.270  1.00  0.00     0.270 C 
HETATM   16  N   UNL     1       7.652  20.900  53.151  1.00  0.00    -0.365 N 
HETATM   17  H   UNL     1       7.149  21.780  53.160  1.00  0.00     0.159 HD
HETATM   18  H   UNL     1       7.679  20.314  52.332  1.00  0.00     0.159 HD
HETATM   19  O   UNL     1       8.996  19.491  54.300  1.00  0.00    -0.266 OA
ENDBRANCH   9  15
ENDBRANCH   2   5
BRANCH   1  20
HETATM   20  C   UNL     1       5.095  27.134  52.184  1.00  0.00     0.074 A 
HETATM   21  C   UNL     1       5.102  28.442  52.653  1.00  0.00     0.066 A 
HETATM   22  C   UNL     1       5.286  29.034  53.998  1.00  0.00     0.078 C 
HETATM   23  O   UNL     1       4.918  29.323  51.636  1.00  0.00    -0.314 OA
HETATM   24  C   UNL     1       4.756  28.598  50.502  1.00  0.00     0.087 A 
HETATM   25  C   UNL     1       4.834  27.236  50.773  1.00  0.00     0.019 A 
HETATM   26  C   UNL     1       4.530  29.140  49.240  1.00  0.00     0.041 A 
HETATM   27  C   UNL     1       4.635  26.339  49.695  1.00  0.00     0.052 A 
HETATM   28  C   UNL     1       4.419  26.850  48.405  1.00  0.00     0.069 A 
HETATM   29  C   UNL     1       4.368  28.232  48.191  1.00  0.00     0.039 A 
BRANCH  28  30
HETATM   30  O   UNL     1       4.231  26.102  47.273  1.00  0.00    -0.356 OA
HETATM   31  C   UNL     1       3.017  25.370  47.170  1.00  0.00     0.210 C 
ENDBRANCH  28  30
ENDBRANCH   1  20
TORSDOF 4
ENDMDL
MODEL 8
REMARK VINA RESULT:      -8.7      2.035      2.841
REMARK  4 active torsions:
REMARK  status: ('A' for Active; 'I' for Inactive)
REMARK    1  A    between atoms: C_6  and  C_7 
REMARK       I    between atoms: C_7  and  N_8 
REMARK    2  A    between atoms: N_8  and  C_9 
REMARK    3  A    between atoms: C_16  and  C_17 
REMARK       I    between atoms: C_17  and  N_18 
REMARK    4  A    between atoms: C_25  and  O_26 
ROOT
HETATM    1  C   UNL     1       5.907  26.497  55.082  1.00  0.00     0.259 C 
HETATM    2  N   UNL     1       6.529  27.723  54.947  1.00  0.00    -0.323 N 
HETATM    3  O   UNL     1       4.978  26.249  55.841  1.00  0.00    -0.267 OA
HETATM    4  H   UNL     1       7.232  27.792  54.226  1.00  0.00     0.169 HD
ENDROOT
BRANCH   2   5
HETATM    5  C   UNL     1       6.241  28.921  55.639  1.00  0.00     0.036 A 
HETATM    6  C   UNL     1       6.985  29.394  56.728  1.00  0.00     0.046 A 
HETATM    7  C   UNL     1       6.598  30.591  57.371  1.00  0.00     0.030 A 
HETATM    8  C   UNL     1       5.497  31.287  56.890  1.00  0.00     0.063 A 
HETATM    9  C   UNL     1       7.056  31.353  58.491  1.00  0.00     0.156 A 
HETATM   10  N   UNL     1       5.380  32.385  57.696  1.00  0.00    -0.277 N 
HETATM   11  C   UNL     1       4.740  30.853  55.800  1.00  0.00     0.034 A 
HETATM   12  H   UNL     1       4.686  33.121  57.633  1.00  0.00     0.189 HD
HETATM   13  N   UNL     1       6.295  32.456  58.675  1.00  0.00    -0.168 NA
HETATM   14  C   UNL     1       5.131  29.652  55.192  1.00  0.00     0.032 A 
BRANCH   9  15
HETATM   15  C   UNL     1       8.181  31.046  59.384  1.00  0.00     0.270 C 
HETATM   16  N   UNL     1       8.846  32.149  59.847  1.00  0.00    -0.365 N 
HETATM   17  H   UNL     1       8.520  33.066  59.563  1.00  0.00     0.159 HD
HETATM   18  H   UNL     1       9.616  32.036  60.485  1.00  0.00     0.159 HD
HETATM   19  O   UNL     1       8.519  29.916  59.719  1.00  0.00    -0.266 OA
ENDBRANCH   9  15
ENDBRANCH   2   5
BRANCH   1  20
HETATM   20  C   UNL     1       6.425  25.467  54.184  1.00  0.00     0.074 A 
HETATM   21  C   UNL     1       6.329  25.550  52.800  1.00  0.00     0.066 A 
HETATM   22  C   UNL     1       5.746  26.557  51.884  1.00  0.00     0.078 C 
HETATM   23  O   UNL     1       6.920  24.480  52.208  1.00  0.00    -0.314 OA
HETATM   24  C   UNL     1       7.375  23.674  53.200  1.00  0.00     0.087 A 
HETATM   25  C   UNL     1       7.085  24.216  54.447  1.00  0.00     0.019 A 
HETATM   26  C   UNL     1       8.033  22.464  52.999  1.00  0.00     0.041 A 
HETATM   27  C   UNL     1       7.453  23.467  55.591  1.00  0.00     0.052 A 
HETATM   28  C   UNL     1       8.132  22.248  55.427  1.00  0.00     0.069 A 
HETATM   29  C   UNL     1       8.412  21.763  54.145  1.00  0.00     0.039 A 
BRANCH  28  30
HETATM   30  O   UNL     1       8.563  21.434  56.440  1.00  0.00    -0.356 OA
HETATM   31  C   UNL     1       9.323  20.290  56.077  1.00  0.00     0.210 C 
ENDBRANCH  28  30
ENDBRANCH   1  20
TORSDOF 4
ENDMDL
MODEL 9
REMARK VINA RESULT:      -8.7      3.950      6.561
REMARK  4 active torsions:
REMARK  status: ('A' for Active; 'I' for Inactive)
REMARK    1  A    between atoms: C_6  and  C_7 
REMARK       I    between atoms: C_7  and  N_8 
REMARK    2  A    between atoms: N_8  and  C_9 
REMARK    3  A    between atoms: C_16  and  C_17 
REMARK       I    between atoms: C_17  and  N_18 
REMARK    4  A    between atoms: C_25  and  O_26 
ROOT
HETATM    1  C   UNL     1       8.229  31.585  59.249  1.00  0.00     0.259 C 
HETATM    2  N   UNL     1       7.343  31.222  60.246  1.00  0.00    -0.323 N 
HETATM    3  O   UNL     1       8.948  32.575  59.262  1.00  0.00    -0.267 OA
HETATM    4  H   UNL     1       6.872  30.338  60.127  1.00  0.00     0.169 HD
ENDROOT
BRANCH   2   5
HETATM    5  C   UNL     1       7.079  31.899  61.458  1.00  0.00     0.036 A 
HETATM    6  C   UNL     1       5.864  32.533  61.752  1.00  0.00     0.046 A 
HETATM    7  C   UNL     1       5.708  33.208  62.983  1.00  0.00     0.030 A 
HETATM    8  C   UNL     1       6.762  33.208  63.887  1.00  0.00     0.063 A 
HETATM    9  C   UNL     1       4.680  33.975  63.614  1.00  0.00     0.156 A 
HETATM   10  N   UNL     1       6.316  33.920  64.966  1.00  0.00    -0.277 N 
HETATM   11  C   UNL     1       7.981  32.577  63.634  1.00  0.00     0.034 A 
HETATM   12  H   UNL     1       6.821  34.119  65.821  1.00  0.00     0.189 HD
HETATM   13  N   UNL     1       5.071  34.404  64.836  1.00  0.00    -0.168 NA
HETATM   14  C   UNL     1       8.119  31.932  62.398  1.00  0.00     0.032 A 
BRANCH   9  15
HETATM   15  C   UNL     1       3.356  34.314  63.076  1.00  0.00     0.270 C 
HETATM   16  N   UNL     1       2.376  33.413  63.392  1.00  0.00    -0.365 N 
HETATM   17  H   UNL     1       2.618  32.613  63.966  1.00  0.00     0.159 HD
HETATM   18  H   UNL     1       1.430  33.577  63.087  1.00  0.00     0.159 HD
HETATM   19  O   UNL     1       3.108  35.311  62.407  1.00  0.00    -0.266 OA
ENDBRANCH   9  15
ENDBRANCH   2   5
BRANCH   1  20
HETATM   20  C   UNL     1       8.288  30.639  58.137  1.00  0.00     0.074 A 
HETATM   21  C   UNL     1       9.483  30.187  57.590  1.00  0.00     0.066 A 
HETATM   22  C   UNL     1      10.905  30.470  57.889  1.00  0.00     0.078 C 
HETATM   23  O   UNL     1       9.252  29.291  56.594  1.00  0.00    -0.314 OA
HETATM   24  C   UNL     1       7.907  29.178  56.461  1.00  0.00     0.087 A 
HETATM   25  C   UNL     1       7.252  29.999  57.372  1.00  0.00     0.019 A 
HETATM   26  C   UNL     1       7.269  28.361  55.533  1.00  0.00     0.041 A 
HETATM   27  C   UNL     1       5.837  30.032  57.327  1.00  0.00     0.052 A 
HETATM   28  C   UNL     1       5.157  29.210  56.413  1.00  0.00     0.069 A 
HETATM   29  C   UNL     1       5.872  28.391  55.533  1.00  0.00     0.039 A 
BRANCH  28  30
HETATM   30  O   UNL     1       3.797  29.126  56.275  1.00  0.00    -0.356 OA
HETATM   31  C   UNL     1       3.033  30.262  56.658  1.00  0.00     0.210 C 
ENDBRANCH  28  30
ENDBRANCH   1  20
TORSDOF 4
ENDMDL
MODEL 10
REMARK VINA RESULT:      -8.6      8.966     13.490
REMARK  4 active torsions:
REMARK  status: ('A' for Active; 'I' for Inactive)
REMARK    1  A    between atoms: C_6  and  C_7 
REMARK       I    between atoms: C_7  and  N_8 
REMARK    2  A    between atoms: N_8  and  C_9 
REMARK    3  A    between atoms: C_16  and  C_17 
REMARK       I    between atoms: C_17  and  N_18 
REMARK    4  A    between atoms: C_25  and  O_26 
ROOT
HETATM    1  C   UNL     1       5.837  34.348  67.254  1.00  0.00     0.259 C 
HETATM    2  N   UNL     1       6.995  34.871  67.797  1.00  0.00    -0.323 N 
HETATM    3  O   UNL     1       4.938  33.803  67.882  1.00  0.00    -0.267 OA
HETATM    4  H   UNL     1       7.609  35.356  67.160  1.00  0.00     0.169 HD
ENDROOT
BRANCH   2   5
HETATM    5  C   UNL     1       7.384  34.885  69.156  1.00  0.00     0.036 A 
HETATM    6  C   UNL     1       7.529  33.732  69.940  1.00  0.00     0.046 A 
HETATM    7  C   UNL     1       7.895  33.854  71.299  1.00  0.00     0.030 A 
HETATM    8  C   UNL     1       8.128  35.119  71.821  1.00  0.00     0.063 A 
HETATM    9  C   UNL     1       8.101  32.959  72.394  1.00  0.00     0.156 A 
HETATM   10  N   UNL     1       8.468  34.916  73.130  1.00  0.00    -0.277 N 
HETATM   11  C   UNL     1       8.007  36.287  71.067  1.00  0.00     0.034 A 
HETATM   12  H   UNL     1       8.710  35.619  73.818  1.00  0.00     0.189 HD
HETATM   13  N   UNL     1       8.455  33.630  73.514  1.00  0.00    -0.168 NA
HETATM   14  C   UNL     1       7.621  36.143  69.728  1.00  0.00     0.032 A 
BRANCH   9  15
HETATM   15  C   UNL     1       7.954  31.497  72.396  1.00  0.00     0.270 C 
HETATM   16  N   UNL     1       8.734  30.858  73.322  1.00  0.00    -0.365 N 
HETATM   17  H   UNL     1       9.325  31.416  73.927  1.00  0.00     0.159 HD
HETATM   18  H   UNL     1       8.680  29.856  73.413  1.00  0.00     0.159 HD
HETATM   19  O   UNL     1       7.203  30.869  71.658  1.00  0.00    -0.266 OA
ENDBRANCH   9  15
ENDBRANCH   2   5
BRANCH   1  20
HETATM   20  C   UNL     1       5.724  34.534  65.809  1.00  0.00     0.074 A 
HETATM   21  C   UNL     1       4.848  35.442  65.227  1.00  0.00     0.066 A 
HETATM   22  C   UNL     1       3.860  36.394  65.783  1.00  0.00     0.078 C 
HETATM   23  O   UNL     1       4.971  35.435  63.874  1.00  0.00    -0.314 OA
HETATM   24  C   UNL     1       5.902  34.501  63.560  1.00  0.00     0.087 A 
HETATM   25  C   UNL     1       6.394  33.892  64.710  1.00  0.00     0.019 A 
HETATM   26  C   UNL     1       6.303  34.184  62.266  1.00  0.00     0.041 A 
HETATM   27  C   UNL     1       7.343  32.853  64.547  1.00  0.00     0.052 A 
HETATM   28  C   UNL     1       7.782  32.516  63.257  1.00  0.00     0.069 A 
HETATM   29  C   UNL     1       7.263  33.178  62.139  1.00  0.00     0.039 A 
BRANCH  28  30
HETATM   30  O   UNL     1       8.706  31.551  62.956  1.00  0.00    -0.356 OA
HETATM   31  C   UNL     1       8.759  31.097  61.610  1.00  0.00     0.210 C 
ENDBRANCH  28  30
ENDBRANCH   1  20
TORSDOF 4
ENDMDL
