MODEL 1
REMARK VINA RESULT:     -10.4      0.000      0.000
REMARK  7 active torsions:
REMARK  status: ('A' for Active; 'I' for Inactive)
REMARK    1  A    between atoms: N_6  and  C_7 
REMARK    2  A    between atoms: C_11  and  N_12 
REMARK    3  A    between atoms: N_12  and  C_13 
REMARK    4  A    between atoms: C_13  and  N_14 
REMARK       I    between atoms: N_14  and  C_15 
REMARK    5  A    between atoms: C_15  and  C_16 
REMARK    6  A    between atoms: C_17  and  C_18 
REMARK    7  A    between atoms: C_20  and  C_21 
ROOT
HETATM    1  C   UNL     1       9.310  29.771  57.631  1.00  0.00     0.179 C 
HETATM    2  S   UNL     1      10.756  30.333  57.012  1.00  0.00    -0.040 SA
ENDROOT
BRANCH   1   3
HETATM    3  N   UNL     1       8.462  30.734  58.111  1.00  0.00    -0.333 N 
HETATM    4  H   UNL     1       8.181  31.372  57.369  1.00  0.00     0.168 HD
BRANCH   3   5
HETATM    5  C   UNL     1       8.023  31.088  59.402  1.00  0.00     0.036 A 
HETATM    6  C   UNL     1       6.927  31.952  59.465  1.00  0.00     0.055 A 
HETATM    7  C   UNL     1       6.461  32.438  60.692  1.00  0.00     0.062 A 
HETATM    8  C   UNL     1       7.065  32.067  61.914  1.00  0.00     0.052 A 
HETATM    9 CL   UNL     1       5.189  33.621  60.625  1.00  0.00    -0.082 Cl
HETATM   10  C   UNL     1       8.157  31.191  61.829  1.00  0.00     0.033 A 
HETATM   11  C   UNL     1       8.639  30.715  60.595  1.00  0.00     0.032 A 
BRANCH   8  12
HETATM   12  N   UNL     1       6.650  32.597  63.134  1.00  0.00    -0.376 N 
HETATM   13  C   UNL     1       5.294  32.271  63.606  1.00  0.00     0.150 C 
HETATM   14  C   UNL     1       4.744  33.474  64.403  1.00  0.00     0.254 C 
HETATM   15  N   UNL     1       5.701  33.847  65.545  1.00  0.00    -0.072 N 
HETATM   16  C   UNL     1       5.203  35.036  66.312  1.00  0.00     0.269 C 
HETATM   17  H   UNL     1       5.731  33.046  66.187  1.00  0.00     0.279 HD
HETATM   18  C   UNL     1       7.130  34.071  65.034  1.00  0.00     0.254 C 
HETATM   19  C   UNL     1       7.623  32.866  64.199  1.00  0.00     0.150 C 
ENDBRANCH   8  12
ENDBRANCH   3   5
ENDBRANCH   1   3
BRANCH   1  20
HETATM   20  N   UNL     1       8.850  28.468  57.651  1.00  0.00    -0.300 N 
HETATM   21  C   UNL     1       7.614  27.840  57.663  1.00  0.00     0.247 C 
HETATM   22  O   UNL     1       7.517  26.740  58.204  1.00  0.00    -0.268 OA
HETATM   23  H   UNL     1       9.515  27.842  58.085  1.00  0.00     0.171 HD
BRANCH  21  24
HETATM   24  C   UNL     1       6.449  28.514  57.047  1.00  0.00     0.077 C 
HETATM   25  C   UNL     1       5.973  28.259  55.819  1.00  0.00     0.042 C 
BRANCH  25  26
HETATM   26  C   UNL     1       6.592  27.388  54.889  1.00  0.00     0.076 A 
HETATM   27  O   UNL     1       6.833  26.051  55.124  1.00  0.00    -0.310 OA
HETATM   28  C   UNL     1       7.454  25.527  54.029  1.00  0.00     0.086 A 
HETATM   29  C   UNL     1       7.625  26.506  53.077  1.00  0.00     0.041 A 
HETATM   30  C   UNL     1       7.101  27.694  53.635  1.00  0.00     0.040 A 
BRANCH  28  31
HETATM   31  C   UNL     1       7.786  24.112  54.093  1.00  0.00    -0.002 A 
HETATM   32  C   UNL     1       7.646  23.298  52.960  1.00  0.00     0.016 A 
HETATM   33  C   UNL     1       7.982  21.941  53.011  1.00  0.00     0.024 A 
HETATM   34  C   UNL     1       8.471  21.395  54.196  1.00  0.00     0.034 A 
HETATM   35 CL   UNL     1       8.876  19.724  54.268  1.00  0.00    -0.084 Cl
HETATM   36  C   UNL     1       8.628  22.191  55.328  1.00  0.00     0.024 A 
HETATM   37  C   UNL     1       8.280  23.544  55.277  1.00  0.00     0.016 A 
ENDBRANCH  28  31
ENDBRANCH  25  26
ENDBRANCH  21  24
ENDBRANCH   1  20
TORSDOF 7
ENDMDL
MODEL 2
REMARK VINA RESULT:     -10.3      5.190      9.239
REMARK  7 active torsions:
REMARK  status: ('A' for Active; 'I' for Inactive)
REMARK    1  A    between atoms: N_6  and  C_7 
REMARK    2  A    between atoms: C_11  and  N_12 
REMARK    3  A    between atoms: N_12  and  C_13 
REMARK    4  A    between atoms: C_13  and  N_14 
REMARK       I    between atoms: N_14  and  C_15 
REMARK    5  A    between atoms: C_15  and  C_16 
REMARK    6  A    between atoms: C_17  and  C_18 
REMARK    7  A    between atoms: C_20  and  C_21 
ROOT
HETATM    1  C   UNL     1       5.842  30.320  56.218  1.00  0.00     0.179 C 
HETATM    2  S   UNL     1       5.758  31.401  57.489  1.00  0.00    -0.040 SA
ENDROOT
BRANCH   1   3
HETATM    3  N   UNL     1       4.653  30.052  55.594  1.00  0.00    -0.333 N 
HETATM    4  H   UNL     1       3.883  30.067  56.260  1.00  0.00     0.168 HD
BRANCH   3   5
HETATM    5  C   UNL     1       4.308  29.643  54.291  1.00  0.00     0.036 A 
HETATM    6  C   UNL     1       4.454  28.281  54.013  1.00  0.00     0.055 A 
HETATM    7  C   UNL     1       4.224  27.779  52.726  1.00  0.00     0.062 A 
HETATM    8  C   UNL     1       3.823  28.619  51.664  1.00  0.00     0.052 A 
HETATM    9 CL   UNL     1       4.585  26.097  52.475  1.00  0.00    -0.082 Cl
HETATM   10  C   UNL     1       3.672  29.980  51.967  1.00  0.00     0.033 A 
HETATM   11  C   UNL     1       3.920  30.490  53.255  1.00  0.00     0.032 A 
BRANCH   8  12
HETATM   12  N   UNL     1       3.656  28.139  50.366  1.00  0.00    -0.376 N 
HETATM   13  C   UNL     1       2.508  28.634  49.587  1.00  0.00     0.150 C 
HETATM   14  C   UNL     1       2.022  27.507  48.650  1.00  0.00     0.254 C 
HETATM   15  N   UNL     1       3.175  27.007  47.766  1.00  0.00    -0.072 N 
HETATM   16  C   UNL     1       2.733  25.887  46.871  1.00  0.00     0.269 C 
HETATM   17  H   UNL     1       3.461  27.794  47.171  1.00  0.00     0.279 HD
HETATM   18  C   UNL     1       4.395  26.604  48.602  1.00  0.00     0.254 C 
HETATM   19  C   UNL     1       4.818  27.740  49.563  1.00  0.00     0.150 C 
ENDBRANCH   8  12
ENDBRANCH   3   5
ENDBRANCH   1   3
BRANCH   1  20
HETATM   20  N   UNL     1       6.972  29.724  55.691  1.00  0.00    -0.300 N 
HETATM   21  C   UNL     1       8.182  29.254  56.181  1.00  0.00     0.247 C 
HETATM   22  O   UNL     1       9.164  29.272  55.442  1.00  0.00    -0.268 OA
HETATM   23  H   UNL     1       7.114  29.978  54.722  1.00  0.00     0.171 HD
BRANCH  21  24
HETATM   24  C   UNL     1       8.261  28.766  57.576  1.00  0.00     0.077 C 
HETATM   25  C   UNL     1       7.822  27.571  58.000  1.00  0.00     0.042 C 
BRANCH  25  26
HETATM   26  C   UNL     1       7.111  26.651  57.191  1.00  0.00     0.076 A 
HETATM   27  O   UNL     1       7.700  25.614  56.499  1.00  0.00    -0.310 OA
HETATM   28  C   UNL     1       6.728  24.945  55.816  1.00  0.00     0.086 A 
HETATM   29  C   UNL     1       5.505  25.532  56.051  1.00  0.00     0.041 A 
HETATM   30  C   UNL     1       5.753  26.633  56.902  1.00  0.00     0.040 A 
BRANCH  28  31
HETATM   31  C   UNL     1       7.164  23.805  55.025  1.00  0.00    -0.002 A 
HETATM   32  C   UNL     1       7.323  23.923  53.637  1.00  0.00     0.016 A 
HETATM   33  C   UNL     1       7.760  22.836  52.873  1.00  0.00     0.024 A 
HETATM   34  C   UNL     1       8.050  21.625  53.499  1.00  0.00     0.034 A 
HETATM   35 CL   UNL     1       8.577  20.281  52.564  1.00  0.00    -0.084 Cl
HETATM   36  C   UNL     1       7.909  21.493  54.878  1.00  0.00     0.024 A 
HETATM   37  C   UNL     1       7.460  22.578  55.637  1.00  0.00     0.016 A 
ENDBRANCH  28  31
ENDBRANCH  25  26
ENDBRANCH  21  24
ENDBRANCH   1  20
TORSDOF 7
ENDMDL
MODEL 3
REMARK VINA RESULT:     -10.3      2.298      3.002
REMARK  7 active torsions:
REMARK  status: ('A' for Active; 'I' for Inactive)
REMARK    1  A    between atoms: N_6  and  C_7 
REMARK    2  A    between atoms: C_11  and  N_12 
REMARK    3  A    between atoms: N_12  and  C_13 
REMARK    4  A    between atoms: C_13  and  N_14 
REMARK       I    between atoms: N_14  and  C_15 
REMARK    5  A    between atoms: C_15  and  C_16 
REMARK    6  A    between atoms: C_17  and  C_18 
REMARK    7  A    between atoms: C_20  and  C_21 
ROOT
HETATM    1  C   UNL     1       5.607  29.973  55.810  1.00  0.00     0.179 C 
HETATM    2  S   UNL     1       4.086  29.286  55.736  1.00  0.00    -0.040 SA
ENDROOT
BRANCH   1   3
HETATM    3  N   UNL     1       5.674  31.188  56.441  1.00  0.00    -0.333 N 
HETATM    4  H   UNL     1       6.170  31.867  55.867  1.00  0.00     0.168 HD
BRANCH   3   5
HETATM    5  C   UNL     1       5.325  31.635  57.731  1.00  0.00     0.036 A 
HETATM    6  C   UNL     1       6.387  31.912  58.595  1.00  0.00     0.055 A 
HETATM    7  C   UNL     1       6.157  32.279  59.926  1.00  0.00     0.062 A 
HETATM    8  C   UNL     1       4.849  32.397  60.447  1.00  0.00     0.052 A 
HETATM    9 CL   UNL     1       7.561  32.451  60.937  1.00  0.00    -0.082 Cl
HETATM   10  C   UNL     1       3.797  32.124  59.559  1.00  0.00     0.033 A 
HETATM   11  C   UNL     1       4.027  31.738  58.226  1.00  0.00     0.032 A 
BRANCH   8  12
HETATM   12  N   UNL     1       4.611  32.697  61.786  1.00  0.00    -0.376 N 
HETATM   13  C   UNL     1       3.326  33.324  62.139  1.00  0.00     0.150 C 
HETATM   14  C   UNL     1       3.548  34.270  63.338  1.00  0.00     0.254 C 
HETATM   15  N   UNL     1       4.187  33.514  64.512  1.00  0.00    -0.072 N 
HETATM   16  C   UNL     1       4.444  34.424  65.676  1.00  0.00     0.269 C 
HETATM   17  H   UNL     1       3.514  32.798  64.811  1.00  0.00     0.279 HD
HETATM   18  C   UNL     1       5.465  32.782  64.084  1.00  0.00     0.254 C 
HETATM   19  C   UNL     1       5.211  31.884  62.851  1.00  0.00     0.150 C 
ENDBRANCH   8  12
ENDBRANCH   3   5
ENDBRANCH   1   3
BRANCH   1  20
HETATM   20  N   UNL     1       6.800  29.432  55.369  1.00  0.00    -0.300 N 
HETATM   21  C   UNL     1       8.033  29.132  55.928  1.00  0.00     0.247 C 
HETATM   22  O   UNL     1       9.029  29.162  55.208  1.00  0.00    -0.268 OA
HETATM   23  H   UNL     1       6.944  29.593  54.381  1.00  0.00     0.171 HD
BRANCH  21  24
HETATM   24  C   UNL     1       8.119  28.805  57.369  1.00  0.00     0.077 C 
HETATM   25  C   UNL     1       7.709  27.654  57.923  1.00  0.00     0.042 C 
BRANCH  25  26
HETATM   26  C   UNL     1       7.026  26.630  57.220  1.00  0.00     0.076 A 
HETATM   27  O   UNL     1       7.652  25.652  56.477  1.00  0.00    -0.310 OA
HETATM   28  C   UNL     1       6.695  24.850  55.929  1.00  0.00     0.086 A 
HETATM   29  C   UNL     1       5.446  25.292  56.302  1.00  0.00     0.041 A 
HETATM   30  C   UNL     1       5.656  26.439  57.100  1.00  0.00     0.040 A 
BRANCH  28  31
HETATM   31  C   UNL     1       7.171  23.749  55.107  1.00  0.00    -0.002 A 
HETATM   32  C   UNL     1       7.466  22.506  55.685  1.00  0.00     0.016 A 
HETATM   33  C   UNL     1       7.906  21.438  54.896  1.00  0.00     0.024 A 
HETATM   34  C   UNL     1       8.044  21.608  53.520  1.00  0.00     0.034 A 
HETATM   35 CL   UNL     1       8.597  20.301  52.546  1.00  0.00    -0.084 Cl
HETATM   36  C   UNL     1       7.746  22.832  52.927  1.00  0.00     0.024 A 
HETATM   37  C   UNL     1       7.317  23.900  53.720  1.00  0.00     0.016 A 
ENDBRANCH  28  31
ENDBRANCH  25  26
ENDBRANCH  21  24
ENDBRANCH   1  20
TORSDOF 7
ENDMDL
MODEL 4
REMARK VINA RESULT:     -10.3      1.581      2.454
REMARK  7 active torsions:
REMARK  status: ('A' for Active; 'I' for Inactive)
REMARK    1  A    between atoms: N_6  and  C_7 
REMARK    2  A    between atoms: C_11  and  N_12 
REMARK    3  A    between atoms: N_12  and  C_13 
REMARK    4  A    between atoms: C_13  and  N_14 
REMARK       I    between atoms: N_14  and  C_15 
REMARK    5  A    between atoms: C_15  and  C_16 
REMARK    6  A    between atoms: C_17  and  C_18 
REMARK    7  A    between atoms: C_20  and  C_21 
ROOT
HETATM    1  C   UNL     1       9.404  29.672  56.930  1.00  0.00     0.179 C 
HETATM    2  S   UNL     1      10.956  30.161  57.308  1.00  0.00    -0.040 SA
ENDROOT
BRANCH   1   3
HETATM    3  N   UNL     1       8.556  29.529  57.997  1.00  0.00    -0.333 N 
HETATM    4  H   UNL     1       8.256  28.561  58.093  1.00  0.00     0.168 HD
BRANCH   3   5
HETATM    5  C   UNL     1       7.934  30.438  58.875  1.00  0.00     0.036 A 
HETATM    6  C   UNL     1       8.439  30.482  60.177  1.00  0.00     0.055 A 
HETATM    7  C   UNL     1       7.842  31.285  61.156  1.00  0.00     0.062 A 
HETATM    8  C   UNL     1       6.717  32.090  60.869  1.00  0.00     0.052 A 
HETATM    9 CL   UNL     1       8.471  31.137  62.769  1.00  0.00    -0.082 Cl
HETATM   10  C   UNL     1       6.232  32.038  59.553  1.00  0.00     0.033 A 
HETATM   11  C   UNL     1       6.820  31.219  58.573  1.00  0.00     0.032 A 
BRANCH   8  12
HETATM   12  N   UNL     1       6.075  32.840  61.852  1.00  0.00    -0.376 N 
HETATM   13  C   UNL     1       5.614  34.194  61.500  1.00  0.00     0.150 C 
HETATM   14  C   UNL     1       5.718  35.094  62.749  1.00  0.00     0.254 C 
HETATM   15  N   UNL     1       4.938  34.482  63.922  1.00  0.00    -0.072 N 
HETATM   16  C   UNL     1       5.055  35.324  65.158  1.00  0.00     0.269 C 
HETATM   17  H   UNL     1       3.949  34.459  63.647  1.00  0.00     0.279 HD
HETATM   18  C   UNL     1       5.366  33.034  64.191  1.00  0.00     0.254 C 
HETATM   19  C   UNL     1       5.295  32.179  62.905  1.00  0.00     0.150 C 
ENDBRANCH   8  12
ENDBRANCH   3   5
ENDBRANCH   1   3
BRANCH   1  20
HETATM   20  N   UNL     1       8.867  29.463  55.674  1.00  0.00    -0.300 N 
HETATM   21  C   UNL     1       7.748  28.830  55.153  1.00  0.00     0.247 C 
HETATM   22  O   UNL     1       7.812  28.360  54.019  1.00  0.00    -0.268 OA
HETATM   23  H   UNL     1       9.578  29.465  54.956  1.00  0.00     0.171 HD
BRANCH  21  24
HETATM   24  C   UNL     1       6.524  28.719  55.978  1.00  0.00     0.077 C 
HETATM   25  C   UNL     1       6.221  27.679  56.769  1.00  0.00     0.042 C 
BRANCH  25  26
HETATM   26  C   UNL     1       6.976  26.482  56.837  1.00  0.00     0.076 A 
HETATM   27  O   UNL     1       7.014  25.535  55.837  1.00  0.00    -0.310 OA
HETATM   28  C   UNL     1       7.821  24.513  56.242  1.00  0.00     0.086 A 
HETATM   29  C   UNL     1       8.313  24.778  57.501  1.00  0.00     0.041 A 
HETATM   30  C   UNL     1       7.753  26.017  57.889  1.00  0.00     0.040 A 
BRANCH  28  31
HETATM   31  C   UNL     1       7.987  23.412  55.306  1.00  0.00    -0.002 A 
HETATM   32  C   UNL     1       8.387  22.147  55.760  1.00  0.00     0.016 A 
HETATM   33  C   UNL     1       8.530  21.081  54.867  1.00  0.00     0.024 A 
HETATM   34  C   UNL     1       8.263  21.274  53.513  1.00  0.00     0.034 A 
HETATM   35 CL   UNL     1       8.448  19.968  52.408  1.00  0.00    -0.084 Cl
HETATM   36  C   UNL     1       7.854  22.520  53.046  1.00  0.00     0.024 A 
HETATM   37  C   UNL     1       7.723  23.587  53.940  1.00  0.00     0.016 A 
ENDBRANCH  28  31
ENDBRANCH  25  26
ENDBRANCH  21  24
ENDBRANCH   1  20
TORSDOF 7
ENDMDL
MODEL 5
REMARK VINA RESULT:     -10.1      2.991     11.306
REMARK  7 active torsions:
REMARK  status: ('A' for Active; 'I' for Inactive)
REMARK    1  A    between atoms: N_6  and  C_7 
REMARK    2  A    between atoms: C_11  and  N_12 
REMARK    3  A    between atoms: N_12  and  C_13 
REMARK    4  A    between atoms: C_13  and  N_14 
REMARK       I    between atoms: N_14  and  C_15 
REMARK    5  A    between atoms: C_15  and  C_16 
REMARK    6  A    between atoms: C_17  and  C_18 
REMARK    7  A    between atoms: C_20  and  C_21 
ROOT
HETATM    1  C   UNL     1       5.799  30.430  56.678  1.00  0.00     0.179 C 
HETATM    2  S   UNL     1       5.026  31.910  56.642  1.00  0.00    -0.040 SA
ENDROOT
BRANCH   1   3
HETATM    3  N   UNL     1       5.868  29.773  55.478  1.00  0.00    -0.333 N 
HETATM    4  H   UNL     1       5.400  30.306  54.746  1.00  0.00     0.168 HD
BRANCH   3   5
HETATM    5  C   UNL     1       6.321  28.496  55.091  1.00  0.00     0.036 A 
HETATM    6  C   UNL     1       5.803  27.415  55.809  1.00  0.00     0.055 A 
HETATM    7  C   UNL     1       6.248  26.110  55.569  1.00  0.00     0.062 A 
HETATM    8  C   UNL     1       7.225  25.829  54.588  1.00  0.00     0.052 A 
HETATM    9 CL   UNL     1       5.637  24.875  56.628  1.00  0.00    -0.082 Cl
HETATM   10  C   UNL     1       7.724  26.928  53.872  1.00  0.00     0.033 A 
HETATM   11  C   UNL     1       7.291  28.242  54.124  1.00  0.00     0.032 A 
BRANCH   8  12
HETATM   12  N   UNL     1       7.722  24.543  54.387  1.00  0.00    -0.376 N 
HETATM   13  C   UNL     1       7.964  24.102  53.003  1.00  0.00     0.150 C 
HETATM   14  C   UNL     1       7.697  22.584  52.913  1.00  0.00     0.254 C 
HETATM   15  N   UNL     1       8.549  21.824  53.941  1.00  0.00    -0.072 N 
HETATM   16  C   UNL     1       8.279  20.349  53.894  1.00  0.00     0.269 C 
HETATM   17  H   UNL     1       9.532  21.975  53.687  1.00  0.00     0.279 HD
HETATM   18  C   UNL     1       8.357  22.382  55.356  1.00  0.00     0.254 C 
HETATM   19  C   UNL     1       8.584  23.911  55.393  1.00  0.00     0.150 C 
ENDBRANCH   8  12
ENDBRANCH   3   5
ENDBRANCH   1   3
BRANCH   1  20
HETATM   20  N   UNL     1       6.427  29.832  57.754  1.00  0.00    -0.300 N 
HETATM   21  C   UNL     1       7.705  29.824  58.294  1.00  0.00     0.247 C 
HETATM   22  O   UNL     1       8.081  28.824  58.902  1.00  0.00    -0.268 OA
HETATM   23  H   UNL     1       5.981  28.963  58.014  1.00  0.00     0.171 HD
BRANCH  21  24
HETATM   24  C   UNL     1       8.582  31.001  58.106  1.00  0.00     0.077 C 
HETATM   25  C   UNL     1       9.128  31.719  59.099  1.00  0.00     0.042 C 
BRANCH  25  26
HETATM   26  C   UNL     1       8.848  31.522  60.474  1.00  0.00     0.076 A 
HETATM   27  O   UNL     1       7.960  32.286  61.199  1.00  0.00    -0.310 OA
HETATM   28  C   UNL     1       7.951  31.832  62.485  1.00  0.00     0.086 A 
HETATM   29  C   UNL     1       8.826  30.776  62.612  1.00  0.00     0.041 A 
HETATM   30  C   UNL     1       9.416  30.598  61.340  1.00  0.00     0.040 A 
BRANCH  28  31
HETATM   31  C   UNL     1       7.062  32.521  63.406  1.00  0.00    -0.002 A 
HETATM   32  C   UNL     1       5.675  32.510  63.198  1.00  0.00     0.016 A 
HETATM   33  C   UNL     1       4.814  33.156  64.091  1.00  0.00     0.024 A 
HETATM   34  C   UNL     1       5.338  33.808  65.205  1.00  0.00     0.034 A 
HETATM   35 CL   UNL     1       4.285  34.614  66.301  1.00  0.00    -0.084 Cl
HETATM   36  C   UNL     1       6.712  33.820  65.434  1.00  0.00     0.024 A 
HETATM   37  C   UNL     1       7.570  33.184  64.533  1.00  0.00     0.016 A 
ENDBRANCH  28  31
ENDBRANCH  25  26
ENDBRANCH  21  24
ENDBRANCH   1  20
TORSDOF 7
ENDMDL
MODEL 6
REMARK VINA RESULT:     -10.0      1.855      2.393
REMARK  7 active torsions:
REMARK  status: ('A' for Active; 'I' for Inactive)
REMARK    1  A    between atoms: N_6  and  C_7 
REMARK    2  A    between atoms: C_11  and  N_12 
REMARK    3  A    between atoms: N_12  and  C_13 
REMARK    4  A    between atoms: C_13  and  N_14 
REMARK       I    between atoms: N_14  and  C_15 
REMARK    5  A    between atoms: C_15  and  C_16 
REMARK    6  A    between atoms: C_17  and  C_18 
REMARK    7  A    between atoms: C_20  and  C_21 
ROOT
HETATM    1  C   UNL     1       8.048  28.551  56.997  1.00  0.00     0.179 C 
HETATM    2  S   UNL     1       7.586  27.120  57.722  1.00  0.00    -0.040 SA
ENDROOT
BRANCH   1   3
HETATM    3  N   UNL     1       8.517  29.517  57.848  1.00  0.00    -0.333 N 
HETATM    4  H   UNL     1       9.534  29.496  57.895  1.00  0.00     0.168 HD
BRANCH   3   5
HETATM    5  C   UNL     1       7.895  30.413  58.740  1.00  0.00     0.036 A 
HETATM    6  C   UNL     1       8.450  30.493  60.020  1.00  0.00     0.055 A 
HETATM    7  C   UNL     1       7.862  31.284  61.014  1.00  0.00     0.062 A 
HETATM    8  C   UNL     1       6.696  32.042  60.764  1.00  0.00     0.052 A 
HETATM    9 CL   UNL     1       8.560  31.181  62.602  1.00  0.00    -0.082 Cl
HETATM   10  C   UNL     1       6.162  31.956  59.469  1.00  0.00     0.033 A 
HETATM   11  C   UNL     1       6.741  31.147  58.474  1.00  0.00     0.032 A 
BRANCH   8  12
HETATM   12  N   UNL     1       6.066  32.780  61.763  1.00  0.00    -0.376 N 
HETATM   13  C   UNL     1       5.585  34.131  61.428  1.00  0.00     0.150 C 
HETATM   14  C   UNL     1       5.704  35.025  62.681  1.00  0.00     0.254 C 
HETATM   15  N   UNL     1       4.953  34.398  63.865  1.00  0.00    -0.072 N 
HETATM   16  C   UNL     1       5.085  35.234  65.104  1.00  0.00     0.269 C 
HETATM   17  H   UNL     1       3.958  34.367  63.608  1.00  0.00     0.279 HD
HETATM   18  C   UNL     1       5.399  32.953  64.117  1.00  0.00     0.254 C 
HETATM   19  C   UNL     1       5.313  32.105  62.826  1.00  0.00     0.150 C 
ENDBRANCH   8  12
ENDBRANCH   3   5
ENDBRANCH   1   3
BRANCH   1  20
HETATM   20  N   UNL     1       8.074  28.844  55.646  1.00  0.00    -0.300 N 
HETATM   21  C   UNL     1       7.203  28.714  54.574  1.00  0.00     0.247 C 
HETATM   22  O   UNL     1       7.674  28.566  53.448  1.00  0.00    -0.268 OA
HETATM   23  H   UNL     1       9.015  28.837  55.277  1.00  0.00     0.171 HD
BRANCH  21  24
HETATM   24  C   UNL     1       5.743  28.737  54.815  1.00  0.00     0.077 C 
HETATM   25  C   UNL     1       4.919  27.692  54.648  1.00  0.00     0.042 C 
BRANCH  25  26
HETATM   26  C   UNL     1       5.313  26.445  54.103  1.00  0.00     0.076 A 
HETATM   27  O   UNL     1       6.112  25.533  54.757  1.00  0.00    -0.310 OA
HETATM   28  C   UNL     1       6.303  24.461  53.936  1.00  0.00     0.086 A 
HETATM   29  C   UNL     1       5.639  24.660  52.747  1.00  0.00     0.041 A 
HETATM   30  C   UNL     1       5.033  25.934  52.843  1.00  0.00     0.040 A 
BRANCH  28  31
HETATM   31  C   UNL     1       7.125  23.383  54.464  1.00  0.00    -0.002 A 
HETATM   32  C   UNL     1       7.580  22.359  53.622  1.00  0.00     0.016 A 
HETATM   33  C   UNL     1       8.386  21.330  54.120  1.00  0.00     0.024 A 
HETATM   34  C   UNL     1       8.750  21.329  55.465  1.00  0.00     0.034 A 
HETATM   35 CL   UNL     1       9.733  20.061  56.086  1.00  0.00    -0.084 Cl
HETATM   36  C   UNL     1       8.317  22.345  56.314  1.00  0.00     0.024 A 
HETATM   37  C   UNL     1       7.502  23.364  55.815  1.00  0.00     0.016 A 
ENDBRANCH  28  31
ENDBRANCH  25  26
ENDBRANCH  21  24
ENDBRANCH   1  20
TORSDOF 7
ENDMDL
MODEL 7
REMARK VINA RESULT:      -9.7      6.470     11.065
REMARK  7 active torsions:
REMARK  status: ('A' for Active; 'I' for Inactive)
REMARK    1  A    between atoms: N_6  and  C_7 
REMARK    2  A    between atoms: C_11  and  N_12 
REMARK    3  A    between atoms: N_12  and  C_13 
REMARK    4  A    between atoms: C_13  and  N_14 
REMARK       I    between atoms: N_14  and  C_15 
REMARK    5  A    between atoms: C_15  and  C_16 
REMARK    6  A    between atoms: C_17  and  C_18 
REMARK    7  A    between atoms: C_20  and  C_21 
ROOT
HETATM    1  C   UNL     1       4.544  27.620  53.589  1.00  0.00     0.179 C 
HETATM    2  S   UNL     1       4.928  26.013  53.349  1.00  0.00    -0.040 SA
ENDROOT
BRANCH   1   3
HETATM    3  N   UNL     1       4.502  28.391  52.457  1.00  0.00    -0.333 N 
HETATM    4  H   UNL     1       5.169  29.159  52.518  1.00  0.00     0.168 HD
BRANCH   3   5
HETATM    5  C   UNL     1       3.663  28.415  51.326  1.00  0.00     0.036 A 
HETATM    6  C   UNL     1       4.171  27.820  50.169  1.00  0.00     0.055 A 
HETATM    7  C   UNL     1       3.460  27.863  48.964  1.00  0.00     0.062 A 
HETATM    8  C   UNL     1       2.199  28.494  48.869  1.00  0.00     0.052 A 
HETATM    9 CL   UNL     1       4.265  27.219  47.564  1.00  0.00    -0.082 Cl
HETATM   10  C   UNL     1       1.704  29.076  50.046  1.00  0.00     0.033 A 
HETATM   11  C   UNL     1       2.424  29.050  51.253  1.00  0.00     0.032 A 
BRANCH   8  12
HETATM   12  N   UNL     1       1.515  28.600  47.660  1.00  0.00    -0.376 N 
HETATM   13  C   UNL     1       1.923  29.660  46.723  1.00  0.00     0.150 C 
HETATM   14  C   UNL     1       0.677  30.146  45.951  1.00  0.00     0.254 C 
HETATM   15  N   UNL     1      -0.020  28.967  45.256  1.00  0.00    -0.072 N 
HETATM   16  C   UNL     1      -1.254  29.412  44.528  1.00  0.00     0.269 C 
HETATM   17  H   UNL     1       0.639  28.593  44.563  1.00  0.00     0.279 HD
HETATM   18  C   UNL     1      -0.332  27.834  46.241  1.00  0.00     0.254 C 
HETATM   19  C   UNL     1       0.930  27.411  47.028  1.00  0.00     0.150 C 
ENDBRANCH   8  12
ENDBRANCH   3   5
ENDBRANCH   1   3
BRANCH   1  20
HETATM   20  N   UNL     1       4.204  28.238  54.778  1.00  0.00    -0.300 N 
HETATM   21  C   UNL     1       4.883  28.841  55.827  1.00  0.00     0.247 C 
HETATM   22  O   UNL     1       4.377  28.817  56.947  1.00  0.00    -0.268 OA
HETATM   23  H   UNL     1       3.324  27.898  55.141  1.00  0.00     0.171 HD
BRANCH  21  24
HETATM   24  C   UNL     1       6.197  29.473  55.574  1.00  0.00     0.077 C 
HETATM   25  C   UNL     1       7.377  28.837  55.614  1.00  0.00     0.042 C 
BRANCH  25  26
HETATM   26  C   UNL     1       7.543  27.490  56.021  1.00  0.00     0.076 A 
HETATM   27  O   UNL     1       7.609  26.423  55.151  1.00  0.00    -0.310 OA
HETATM   28  C   UNL     1       7.753  25.280  55.882  1.00  0.00     0.086 A 
HETATM   29  C   UNL     1       7.781  25.585  57.224  1.00  0.00     0.041 A 
HETATM   30  C   UNL     1       7.619  26.987  57.312  1.00  0.00     0.040 A 
BRANCH  28  31
HETATM   31  C   UNL     1       7.845  24.040  55.127  1.00  0.00    -0.002 A 
HETATM   32  C   UNL     1       8.022  24.065  53.737  1.00  0.00     0.016 A 
HETATM   33  C   UNL     1       8.129  22.875  53.009  1.00  0.00     0.024 A 
HETATM   34  C   UNL     1       8.072  21.652  53.674  1.00  0.00     0.034 A 
HETATM   35 CL   UNL     1       8.192  20.185  52.783  1.00  0.00    -0.084 Cl
HETATM   36  C   UNL     1       7.908  21.608  55.056  1.00  0.00     0.024 A 
HETATM   37  C   UNL     1       7.789  22.799  55.779  1.00  0.00     0.016 A 
ENDBRANCH  28  31
ENDBRANCH  25  26
ENDBRANCH  21  24
ENDBRANCH   1  20
TORSDOF 7
ENDMDL
MODEL 8
REMARK VINA RESULT:      -9.5      2.297      2.661
REMARK  7 active torsions:
REMARK  status: ('A' for Active; 'I' for Inactive)
REMARK    1  A    between atoms: N_6  and  C_7 
REMARK    2  A    between atoms: C_11  and  N_12 
REMARK    3  A    between atoms: N_12  and  C_13 
REMARK    4  A    between atoms: C_13  and  N_14 
REMARK       I    between atoms: N_14  and  C_15 
REMARK    5  A    between atoms: C_15  and  C_16 
REMARK    6  A    between atoms: C_17  and  C_18 
REMARK    7  A    between atoms: C_20  and  C_21 
ROOT
HETATM    1  C   UNL     1       4.165  30.899  57.249  1.00  0.00     0.179 C 
HETATM    2  S   UNL     1       2.983  31.110  56.088  1.00  0.00    -0.040 SA
ENDROOT
BRANCH   1   3
HETATM    3  N   UNL     1       4.629  32.048  57.832  1.00  0.00    -0.333 N 
HETATM    4  H   UNL     1       4.957  32.705  57.126  1.00  0.00     0.168 HD
BRANCH   3   5
HETATM    5  C   UNL     1       4.859  32.439  59.166  1.00  0.00     0.036 A 
HETATM    6  C   UNL     1       3.764  32.975  59.849  1.00  0.00     0.055 A 
HETATM    7  C   UNL     1       3.899  33.476  61.149  1.00  0.00     0.062 A 
HETATM    8  C   UNL     1       5.138  33.450  61.828  1.00  0.00     0.052 A 
HETATM    9 CL   UNL     1       2.501  34.250  61.831  1.00  0.00    -0.082 Cl
HETATM   10  C   UNL     1       6.222  32.899  61.127  1.00  0.00     0.033 A 
HETATM   11  C   UNL     1       6.092  32.411  59.814  1.00  0.00     0.032 A 
BRANCH   8  12
HETATM   12  N   UNL     1       5.298  34.006  63.095  1.00  0.00    -0.376 N 
HETATM   13  C   UNL     1       5.693  33.114  64.199  1.00  0.00     0.150 C 
HETATM   14  C   UNL     1       5.049  33.625  65.505  1.00  0.00     0.254 C 
HETATM   15  N   UNL     1       5.428  35.092  65.756  1.00  0.00    -0.072 N 
HETATM   16  C   UNL     1       4.784  35.620  67.004  1.00  0.00     0.269 C 
HETATM   17  H   UNL     1       6.446  35.121  65.888  1.00  0.00     0.279 HD
HETATM   18  C   UNL     1       5.104  35.975  64.544  1.00  0.00     0.254 C 
HETATM   19  C   UNL     1       5.725  35.402  63.249  1.00  0.00     0.150 C 
ENDBRANCH   8  12
ENDBRANCH   3   5
ENDBRANCH   1   3
BRANCH   1  20
HETATM   20  N   UNL     1       4.675  29.706  57.729  1.00  0.00    -0.300 N 
HETATM   21  C   UNL     1       5.749  28.881  57.430  1.00  0.00     0.247 C 
HETATM   22  O   UNL     1       5.644  27.676  57.651  1.00  0.00    -0.268 OA
HETATM   23  H   UNL     1       3.956  29.132  58.148  1.00  0.00     0.171 HD
BRANCH  21  24
HETATM   24  C   UNL     1       6.974  29.466  56.841  1.00  0.00     0.077 C 
HETATM   25  C   UNL     1       7.513  29.101  55.668  1.00  0.00     0.042 C 
BRANCH  25  26
HETATM   26  C   UNL     1       7.050  28.019  54.880  1.00  0.00     0.076 A 
HETATM   27  O   UNL     1       7.518  26.727  54.988  1.00  0.00    -0.310 OA
HETATM   28  C   UNL     1       6.868  25.955  54.072  1.00  0.00     0.086 A 
HETATM   29  C   UNL     1       5.977  26.726  53.360  1.00  0.00     0.041 A 
HETATM   30  C   UNL     1       6.113  28.043  53.855  1.00  0.00     0.040 A 
BRANCH  28  31
HETATM   31  C   UNL     1       7.231  24.547  54.042  1.00  0.00    -0.002 A 
HETATM   32  C   UNL     1       7.702  23.959  52.859  1.00  0.00     0.016 A 
HETATM   33  C   UNL     1       8.070  22.610  52.830  1.00  0.00     0.024 A 
HETATM   34  C   UNL     1       7.978  21.844  53.990  1.00  0.00     0.034 A 
HETATM   35 CL   UNL     1       8.419  20.181  53.957  1.00  0.00    -0.084 Cl
HETATM   36  C   UNL     1       7.523  22.413  55.176  1.00  0.00     0.024 A 
HETATM   37  C   UNL     1       7.144  23.759  55.199  1.00  0.00     0.016 A 
ENDBRANCH  28  31
ENDBRANCH  25  26
ENDBRANCH  21  24
ENDBRANCH   1  20
TORSDOF 7
ENDMDL
MODEL 9
REMARK VINA RESULT:      -9.3      5.091     10.014
REMARK  7 active torsions:
REMARK  status: ('A' for Active; 'I' for Inactive)
REMARK    1  A    between atoms: N_6  and  C_7 
REMARK    2  A    between atoms: C_11  and  N_12 
REMARK    3  A    between atoms: N_12  and  C_13 
REMARK    4  A    between atoms: C_13  and  N_14 
REMARK       I    between atoms: N_14  and  C_15 
REMARK    5  A    between atoms: C_15  and  C_16 
REMARK    6  A    between atoms: C_17  and  C_18 
REMARK    7  A    between atoms: C_20  and  C_21 
ROOT
HETATM    1  C   UNL     1       2.540  34.516  61.556  1.00  0.00     0.179 C 
HETATM    2  S   UNL     1       1.053  34.990  60.961  1.00  0.00    -0.040 SA
ENDROOT
BRANCH   1   3
HETATM    3  N   UNL     1       2.894  33.220  61.290  1.00  0.00    -0.333 N 
HETATM    4  H   UNL     1       2.924  32.670  62.146  1.00  0.00     0.168 HD
BRANCH   3   5
HETATM    5  C   UNL     1       3.338  32.550  60.133  1.00  0.00     0.036 A 
HETATM    6  C   UNL     1       3.916  33.348  59.142  1.00  0.00     0.055 A 
HETATM    7  C   UNL     1       4.313  32.801  57.916  1.00  0.00     0.062 A 
HETATM    8  C   UNL     1       4.160  31.426  57.634  1.00  0.00     0.052 A 
HETATM    9 CL   UNL     1       4.878  33.922  56.714  1.00  0.00    -0.082 Cl
HETATM   10  C   UNL     1       3.587  30.641  58.646  1.00  0.00     0.033 A 
HETATM   11  C   UNL     1       3.171  31.191  59.872  1.00  0.00     0.032 A 
BRANCH   8  12
HETATM   12  N   UNL     1       4.491  30.885  56.393  1.00  0.00    -0.376 N 
HETATM   13  C   UNL     1       3.746  31.353  55.212  1.00  0.00     0.150 C 
HETATM   14  C   UNL     1       3.625  30.187  54.207  1.00  0.00     0.254 C 
HETATM   15  N   UNL     1       5.013  29.630  53.858  1.00  0.00    -0.072 N 
HETATM   16  C   UNL     1       4.916  28.472  52.908  1.00  0.00     0.269 C 
HETATM   17  H   UNL     1       5.530  30.383  53.388  1.00  0.00     0.279 HD
HETATM   18  C   UNL     1       5.805  29.255  55.116  1.00  0.00     0.254 C 
HETATM   19  C   UNL     1       5.859  30.433  56.117  1.00  0.00     0.150 C 
ENDBRANCH   8  12
ENDBRANCH   3   5
ENDBRANCH   1   3
BRANCH   1  20
HETATM   20  N   UNL     1       3.469  35.293  62.221  1.00  0.00    -0.300 N 
HETATM   21  C   UNL     1       3.745  35.620  63.540  1.00  0.00     0.247 C 
HETATM   22  O   UNL     1       4.266  36.708  63.781  1.00  0.00    -0.268 OA
HETATM   23  H   UNL     1       3.812  36.048  61.642  1.00  0.00     0.171 HD
BRANCH  21  24
HETATM   24  C   UNL     1       3.389  34.668  64.616  1.00  0.00     0.077 C 
HETATM   25  C   UNL     1       4.217  33.748  65.134  1.00  0.00     0.042 C 
BRANCH  25  26
HETATM   26  C   UNL     1       5.518  33.478  64.641  1.00  0.00     0.076 A 
HETATM   27  O   UNL     1       5.775  32.821  63.457  1.00  0.00    -0.310 OA
HETATM   28  C   UNL     1       7.127  32.722  63.305  1.00  0.00     0.086 A 
HETATM   29  C   UNL     1       7.761  33.304  64.379  1.00  0.00     0.041 A 
HETATM   30  C   UNL     1       6.738  33.761  65.241  1.00  0.00     0.040 A 
BRANCH  28  31
HETATM   31  C   UNL     1       7.593  32.055  62.099  1.00  0.00    -0.002 A 
HETATM   32  C   UNL     1       8.733  31.240  62.132  1.00  0.00     0.016 A 
HETATM   33  C   UNL     1       9.174  30.583  60.979  1.00  0.00     0.024 A 
HETATM   34  C   UNL     1       8.468  30.730  59.788  1.00  0.00     0.034 A 
HETATM   35 CL   UNL     1       9.012  29.933  58.364  1.00  0.00    -0.084 Cl
HETATM   36  C   UNL     1       7.327  31.527  59.738  1.00  0.00     0.024 A 
HETATM   37  C   UNL     1       6.895  32.192  60.889  1.00  0.00     0.016 A 
ENDBRANCH  28  31
ENDBRANCH  25  26
ENDBRANCH  21  24
ENDBRANCH   1  20
TORSDOF 7
ENDMDL
MODEL 10
REMARK VINA RESULT:      -9.2      5.706     10.106
REMARK  7 active torsions:
REMARK  status: ('A' for Active; 'I' for Inactive)
REMARK    1  A    between atoms: N_6  and  C_7 
REMARK    2  A    between atoms: C_11  and  N_12 
REMARK    3  A    between atoms: N_12  and  C_13 
REMARK    4  A    between atoms: C_13  and  N_14 
REMARK       I    between atoms: N_14  and  C_15 
REMARK    5  A    between atoms: C_15  and  C_16 
REMARK    6  A    between atoms: C_17  and  C_18 
REMARK    7  A    between atoms: C_20  and  C_21 
ROOT
HETATM    1  C   UNL     1       5.842  28.826  54.631  1.00  0.00     0.179 C 
HETATM    2  S   UNL     1       5.052  30.008  55.508  1.00  0.00    -0.040 SA
ENDROOT
BRANCH   1   3
HETATM    3  N   UNL     1       5.038  28.028  53.861  1.00  0.00    -0.333 N 
HETATM    4  H   UNL     1       5.057  27.066  54.195  1.00  0.00     0.168 HD
BRANCH   3   5
HETATM    5  C   UNL     1       4.321  28.233  52.665  1.00  0.00     0.036 A 
HETATM    6  C   UNL     1       4.782  27.538  51.544  1.00  0.00     0.055 A 
HETATM    7  C   UNL     1       4.200  27.732  50.286  1.00  0.00     0.062 A 
HETATM    8  C   UNL     1       3.120  28.624  50.099  1.00  0.00     0.052 A 
HETATM    9 CL   UNL     1       4.959  26.924  48.947  1.00  0.00    -0.082 Cl
HETATM   10  C   UNL     1       2.668  29.304  51.240  1.00  0.00     0.033 A 
HETATM   11  C   UNL     1       3.262  29.123  52.502  1.00  0.00     0.032 A 
BRANCH   8  12
HETATM   12  N   UNL     1       2.578  28.874  48.840  1.00  0.00    -0.376 N 
HETATM   13  C   UNL     1       3.296  29.801  47.948  1.00  0.00     0.150 C 
HETATM   14  C   UNL     1       2.263  30.555  47.083  1.00  0.00     0.254 C 
HETATM   15  N   UNL     1       1.369  29.564  46.323  1.00  0.00    -0.072 N 
HETATM   16  C   UNL     1       0.335  30.276  45.502  1.00  0.00     0.269 C 
HETATM   17  H   UNL     1       1.977  29.041  45.681  1.00  0.00     0.279 HD
HETATM   18  C   UNL     1       0.725  28.544  47.269  1.00  0.00     0.254 C 
HETATM   19  C   UNL     1       1.786  27.847  48.152  1.00  0.00     0.150 C 
ENDBRANCH   8  12
ENDBRANCH   3   5
ENDBRANCH   1   3
BRANCH   1  20
HETATM   20  N   UNL     1       7.204  28.608  54.545  1.00  0.00    -0.300 N 
HETATM   21  C   UNL     1       8.313  28.853  55.342  1.00  0.00     0.247 C 
HETATM   22  O   UNL     1       9.401  29.033  54.798  1.00  0.00    -0.268 OA
HETATM   23  H   UNL     1       7.520  28.575  53.585  1.00  0.00     0.171 HD
BRANCH  21  24
HETATM   24  C   UNL     1       8.154  28.911  56.813  1.00  0.00     0.077 C 
HETATM   25  C   UNL     1       7.577  27.960  57.562  1.00  0.00     0.042 C 
BRANCH  25  26
HETATM   26  C   UNL     1       6.930  26.814  57.037  1.00  0.00     0.076 A 
HETATM   27  O   UNL     1       7.565  25.839  56.298  1.00  0.00    -0.310 OA
HETATM   28  C   UNL     1       6.643  24.899  55.943  1.00  0.00     0.086 A 
HETATM   29  C   UNL     1       5.407  25.248  56.440  1.00  0.00     0.041 A 
HETATM   30  C   UNL     1       5.585  26.479  57.111  1.00  0.00     0.040 A 
BRANCH  28  31
HETATM   31  C   UNL     1       7.134  23.779  55.156  1.00  0.00    -0.002 A 
HETATM   32  C   UNL     1       7.086  23.820  53.755  1.00  0.00     0.016 A 
HETATM   33  C   UNL     1       7.573  22.753  52.993  1.00  0.00     0.024 A 
HETATM   34  C   UNL     1       8.124  21.644  53.631  1.00  0.00     0.034 A 
HETATM   35 CL   UNL     1       8.715  20.324  52.699  1.00  0.00    -0.084 Cl
HETATM   36  C   UNL     1       8.191  21.591  55.021  1.00  0.00     0.024 A 
HETATM   37  C   UNL     1       7.691  22.653  55.780  1.00  0.00     0.016 A 
ENDBRANCH  28  31
ENDBRANCH  25  26
ENDBRANCH  21  24
ENDBRANCH   1  20
TORSDOF 7
ENDMDL
