MODEL 1
REMARK VINA RESULT:      -8.9      0.000      0.000
REMARK  9 active torsions:
REMARK  status: ('A' for Active; 'I' for Inactive)
REMARK    1  A    between atoms: O_2  and  C_3 
REMARK    2  A    between atoms: C_5  and  O_6 
REMARK    3  A    between atoms: C_8  and  N_9 
REMARK    4  A    between atoms: C_10  and  O_11 
REMARK    5  A    between atoms: C_10  and  C_12 
REMARK       I    between atoms: C_12  and  N_13 
REMARK    6  A    between atoms: N_13  and  C_14 
REMARK    7  A    between atoms: C_14  and  C_15 
REMARK    8  A    between atoms: C_15  and  N_16 
REMARK    9  A    between atoms: N_20  and  C_21 
ROOT
HETATM    1  N   UNL     1       3.750  30.656  49.688  1.00  0.00    -0.251 N 
HETATM    2  C   UNL     1       4.360  29.401  50.144  1.00  0.00     0.256 C 
HETATM    3  C   UNL     1       3.830  28.213  49.359  1.00  0.00     0.034 A 
HETATM    4  C   UNL     1       2.531  28.286  48.867  1.00  0.00     0.048 A 
HETATM    5  N   UNL     1       1.831  29.477  49.017  1.00  0.00    -0.308 N 
HETATM    6  C   UNL     1       2.413  30.672  49.320  1.00  0.00     0.330 C 
HETATM    7  O   UNL     1       1.722  31.689  49.276  1.00  0.00    -0.246 OA
HETATM    8  C   UNL     1       4.559  27.029  49.156  1.00  0.00     0.015 A 
HETATM    9  C   UNL     1       3.992  25.959  48.461  1.00  0.00     0.001 A 
HETATM   10  C   UNL     1       2.683  26.047  47.990  1.00  0.00     0.002 A 
HETATM   11  C   UNL     1       1.944  27.211  48.200  1.00  0.00     0.030 A 
HETATM   12  H   UNL     1       0.889  29.552  48.645  1.00  0.00     0.170 HD
ENDROOT
BRANCH   2  13
HETATM   13  O   UNL     1       5.771  29.411  49.914  1.00  0.00    -0.359 OA
HETATM   14  H   UNL     1       6.016  30.344  49.796  1.00  0.00     0.213 HD
ENDBRANCH   2  13
BRANCH   2  15
HETATM   15  C   UNL     1       4.086  29.120  51.696  1.00  0.00     0.279 C 
HETATM   16  N   UNL     1       4.997  29.610  52.615  1.00  0.00    -0.355 N 
HETATM   17  H   UNL     1       5.907  29.849  52.221  1.00  0.00     0.162 HD
HETATM   18  O   UNL     1       3.061  28.556  52.099  1.00  0.00    -0.268 OA
BRANCH  16  19
HETATM   19  C   UNL     1       4.996  29.260  54.034  1.00  0.00     0.150 C 
BRANCH  19  20
HETATM   20  C   UNL     1       6.132  28.332  54.530  1.00  0.00     0.254 C 
BRANCH  20  21
HETATM   21  N   UNL     1       6.286  27.073  53.715  1.00  0.00    -0.067 N 
HETATM   22  H   UNL     1       6.022  27.328  52.740  1.00  0.00     0.280 HD
HETATM   23  C   UNL     1       7.712  26.543  53.595  1.00  0.00     0.254 C 
HETATM   24  C   UNL     1       7.762  25.374  52.587  1.00  0.00     0.150 C 
HETATM   25  N   UNL     1       6.811  24.316  52.979  1.00  0.00    -0.378 N 
HETATM   26  C   UNL     1       5.423  24.764  53.170  1.00  0.00     0.150 C 
HETATM   27  C   UNL     1       5.340  25.957  54.148  1.00  0.00     0.254 C 
BRANCH  25  28
HETATM   28  C   UNL     1       7.313  23.176  53.597  1.00  0.00     0.030 A 
HETATM   29  C   UNL     1       7.301  22.987  54.986  1.00  0.00     0.029 A 
HETATM   30  C   UNL     1       7.806  21.818  55.574  1.00  0.00     0.002 A 
HETATM   31  C   UNL     1       8.325  20.802  54.781  1.00  0.00     0.000 A 
HETATM   32  C   UNL     1       8.335  20.951  53.402  1.00  0.00     0.002 A 
HETATM   33  C   UNL     1       7.831  22.122  52.823  1.00  0.00     0.029 A 
ENDBRANCH  25  28
ENDBRANCH  20  21
ENDBRANCH  19  20
ENDBRANCH  16  19
ENDBRANCH   2  15
BRANCH   1  34
HETATM   34  C   UNL     1       4.533  31.849  49.517  1.00  0.00     0.076 A 
HETATM   35  C   UNL     1       4.883  32.710  50.574  1.00  0.00     0.098 A 
HETATM   36  C   UNL     1       5.804  33.752  50.372  1.00  0.00     0.075 A 
HETATM   37  C   UNL     1       6.341  33.982  49.106  1.00  0.00     0.070 A 
HETATM   38  C   UNL     1       5.926  33.194  48.037  1.00  0.00     0.039 A 
HETATM   39  C   UNL     1       5.033  32.139  48.238  1.00  0.00     0.035 A 
BRANCH  35  40
HETATM   40  O   UNL     1       4.319  32.479  51.809  1.00  0.00    -0.354 OA
HETATM   41  C   UNL     1       3.247  33.376  52.114  1.00  0.00     0.210 C 
ENDBRANCH  35  40
BRANCH  37  42
HETATM   42  O   UNL     1       7.258  34.943  48.787  1.00  0.00    -0.356 OA
HETATM   43  C   UNL     1       8.279  34.579  47.866  1.00  0.00     0.210 C 
ENDBRANCH  37  42
ENDBRANCH   1  34
TORSDOF 9
ENDMDL
MODEL 2
REMARK VINA RESULT:      -8.9      6.562     11.122
REMARK  9 active torsions:
REMARK  status: ('A' for Active; 'I' for Inactive)
REMARK    1  A    between atoms: O_2  and  C_3 
REMARK    2  A    between atoms: C_5  and  O_6 
REMARK    3  A    between atoms: C_8  and  N_9 
REMARK    4  A    between atoms: C_10  and  O_11 
REMARK    5  A    between atoms: C_10  and  C_12 
REMARK       I    between atoms: C_12  and  N_13 
REMARK    6  A    between atoms: N_13  and  C_14 
REMARK    7  A    between atoms: C_14  and  C_15 
REMARK    8  A    between atoms: C_15  and  N_16 
REMARK    9  A    between atoms: N_20  and  C_21 
ROOT
HETATM    1  N   UNL     1       7.182  27.029  55.605  1.00  0.00    -0.251 N 
HETATM    2  C   UNL     1       6.712  27.800  56.763  1.00  0.00     0.256 C 
HETATM    3  C   UNL     1       5.606  28.766  56.372  1.00  0.00     0.034 A 
HETATM    4  C   UNL     1       5.617  29.277  55.079  1.00  0.00     0.048 A 
HETATM    5  N   UNL     1       6.563  28.795  54.182  1.00  0.00    -0.308 N 
HETATM    6  C   UNL     1       7.272  27.645  54.366  1.00  0.00     0.330 C 
HETATM    7  O   UNL     1       7.969  27.231  53.440  1.00  0.00    -0.246 OA
HETATM    8  C   UNL     1       4.613  29.209  57.261  1.00  0.00     0.015 A 
HETATM    9  C   UNL     1       3.652  30.133  56.845  1.00  0.00     0.001 A 
HETATM   10  C   UNL     1       3.690  30.644  55.549  1.00  0.00     0.002 A 
HETATM   11  C   UNL     1       4.681  30.224  54.663  1.00  0.00     0.030 A 
HETATM   12  H   UNL     1       6.571  29.144  53.228  1.00  0.00     0.170 HD
ENDROOT
BRANCH   2  13
HETATM   13  O   UNL     1       6.135  26.937  57.745  1.00  0.00    -0.359 OA
HETATM   14  H   UNL     1       5.562  26.322  57.258  1.00  0.00     0.213 HD
ENDBRANCH   2  13
BRANCH   2  15
HETATM   15  C   UNL     1       7.885  28.653  57.441  1.00  0.00     0.279 C 
HETATM   16  N   UNL     1       7.564  29.452  58.524  1.00  0.00    -0.355 N 
HETATM   17  H   UNL     1       6.569  29.659  58.616  1.00  0.00     0.162 HD
HETATM   18  O   UNL     1       9.066  28.561  57.083  1.00  0.00    -0.268 OA
BRANCH  16  19
HETATM   19  C   UNL     1       8.470  30.437  59.112  1.00  0.00     0.150 C 
BRANCH  19  20
HETATM   20  C   UNL     1       8.376  30.653  60.642  1.00  0.00     0.254 C 
BRANCH  20  21
HETATM   21  N   UNL     1       7.059  31.229  61.094  1.00  0.00    -0.067 N 
HETATM   22  H   UNL     1       6.336  30.520  60.848  1.00  0.00     0.280 HD
HETATM   23  C   UNL     1       6.910  31.414  62.602  1.00  0.00     0.254 C 
HETATM   24  C   UNL     1       5.461  31.825  62.947  1.00  0.00     0.150 C 
HETATM   25  N   UNL     1       5.078  33.038  62.201  1.00  0.00    -0.378 N 
HETATM   26  C   UNL     1       5.250  32.954  60.741  1.00  0.00     0.150 C 
HETATM   27  C   UNL     1       6.680  32.513  60.362  1.00  0.00     0.254 C 
BRANCH  25  28
HETATM   28  C   UNL     1       5.077  34.253  62.877  1.00  0.00     0.030 A 
HETATM   29  C   UNL     1       5.690  35.411  62.379  1.00  0.00     0.029 A 
HETATM   30  C   UNL     1       5.658  36.623  63.085  1.00  0.00     0.002 A 
HETATM   31  C   UNL     1       4.997  36.707  64.304  1.00  0.00     0.000 A 
HETATM   32  C   UNL     1       4.364  35.583  64.815  1.00  0.00     0.002 A 
HETATM   33  C   UNL     1       4.403  34.376  64.106  1.00  0.00     0.029 A 
ENDBRANCH  25  28
ENDBRANCH  20  21
ENDBRANCH  19  20
ENDBRANCH  16  19
ENDBRANCH   2  15
BRANCH   1  34
HETATM   34  C   UNL     1       7.452  25.622  55.704  1.00  0.00     0.076 A 
HETATM   35  C   UNL     1       6.686  24.633  55.058  1.00  0.00     0.098 A 
HETATM   36  C   UNL     1       7.113  23.294  55.042  1.00  0.00     0.075 A 
HETATM   37  C   UNL     1       8.274  22.918  55.717  1.00  0.00     0.070 A 
HETATM   38  C   UNL     1       8.984  23.873  56.438  1.00  0.00     0.039 A 
HETATM   39  C   UNL     1       8.579  25.210  56.432  1.00  0.00     0.035 A 
BRANCH  35  40
HETATM   40  O   UNL     1       5.530  25.026  54.422  1.00  0.00    -0.354 OA
HETATM   41  C   UNL     1       5.494  24.652  53.041  1.00  0.00     0.210 C 
ENDBRANCH  35  40
BRANCH  37  42
HETATM   42  O   UNL     1       8.804  21.659  55.757  1.00  0.00    -0.356 OA
HETATM   43  C   UNL     1       8.101  20.690  56.526  1.00  0.00     0.210 C 
ENDBRANCH  37  42
ENDBRANCH   1  34
TORSDOF 9
ENDMDL
MODEL 3
REMARK VINA RESULT:      -8.9      2.259      5.265
REMARK  9 active torsions:
REMARK  status: ('A' for Active; 'I' for Inactive)
REMARK    1  A    between atoms: O_2  and  C_3 
REMARK    2  A    between atoms: C_5  and  O_6 
REMARK    3  A    between atoms: C_8  and  N_9 
REMARK    4  A    between atoms: C_10  and  O_11 
REMARK    5  A    between atoms: C_10  and  C_12 
REMARK       I    between atoms: C_12  and  N_13 
REMARK    6  A    between atoms: N_13  and  C_14 
REMARK    7  A    between atoms: C_14  and  C_15 
REMARK    8  A    between atoms: C_15  and  N_16 
REMARK    9  A    between atoms: N_20  and  C_21 
ROOT
HETATM    1  N   UNL     1       4.609  29.628  51.205  1.00  0.00    -0.251 N 
HETATM    2  C   UNL     1       4.078  29.721  52.572  1.00  0.00     0.256 C 
HETATM    3  C   UNL     1       3.743  31.158  52.936  1.00  0.00     0.034 A 
HETATM    4  C   UNL     1       4.493  32.170  52.346  1.00  0.00     0.048 A 
HETATM    5  N   UNL     1       5.425  31.826  51.375  1.00  0.00    -0.308 N 
HETATM    6  C   UNL     1       5.445  30.626  50.728  1.00  0.00     0.330 C 
HETATM    7  O   UNL     1       6.215  30.484  49.778  1.00  0.00    -0.246 OA
HETATM    8  C   UNL     1       2.760  31.511  53.876  1.00  0.00     0.015 A 
HETATM    9  C   UNL     1       2.535  32.851  54.195  1.00  0.00     0.001 A 
HETATM   10  C   UNL     1       3.308  33.849  53.604  1.00  0.00     0.002 A 
HETATM   11  C   UNL     1       4.298  33.509  52.683  1.00  0.00     0.030 A 
HETATM   12  H   UNL     1       5.965  32.555  50.920  1.00  0.00     0.170 HD
ENDROOT
BRANCH   2  13
HETATM   13  O   UNL     1       2.849  29.001  52.687  1.00  0.00    -0.359 OA
HETATM   14  H   UNL     1       3.011  28.129  52.291  1.00  0.00     0.213 HD
ENDBRANCH   2  13
BRANCH   2  15
HETATM   15  C   UNL     1       5.111  29.170  53.663  1.00  0.00     0.279 C 
HETATM   16  N   UNL     1       5.286  29.906  54.821  1.00  0.00    -0.355 N 
HETATM   17  H   UNL     1       4.972  30.875  54.758  1.00  0.00     0.162 HD
HETATM   18  O   UNL     1       5.689  28.082  53.542  1.00  0.00    -0.268 OA
BRANCH  16  19
HETATM   19  C   UNL     1       6.334  29.647  55.806  1.00  0.00     0.150 C 
BRANCH  19  20
HETATM   20  C   UNL     1       5.898  28.997  57.142  1.00  0.00     0.254 C 
BRANCH  20  21
HETATM   21  N   UNL     1       6.220  27.527  57.236  1.00  0.00    -0.067 N 
HETATM   22  H   UNL     1       6.124  27.276  58.242  1.00  0.00     0.280 HD
HETATM   23  C   UNL     1       5.245  26.598  56.517  1.00  0.00     0.254 C 
HETATM   24  C   UNL     1       5.573  25.125  56.848  1.00  0.00     0.150 C 
HETATM   25  N   UNL     1       6.977  24.822  56.509  1.00  0.00    -0.378 N 
HETATM   26  C   UNL     1       7.974  25.715  57.120  1.00  0.00     0.150 C 
HETATM   27  C   UNL     1       7.656  27.199  56.837  1.00  0.00     0.254 C 
BRANCH  25  28
HETATM   28  C   UNL     1       7.233  24.117  55.338  1.00  0.00     0.030 A 
HETATM   29  C   UNL     1       7.264  24.717  54.072  1.00  0.00     0.029 A 
HETATM   30  C   UNL     1       7.538  23.976  52.913  1.00  0.00     0.002 A 
HETATM   31  C   UNL     1       7.801  22.614  52.997  1.00  0.00     0.000 A 
HETATM   32  C   UNL     1       7.796  21.995  54.238  1.00  0.00     0.002 A 
HETATM   33  C   UNL     1       7.519  22.741  55.390  1.00  0.00     0.029 A 
ENDBRANCH  25  28
ENDBRANCH  20  21
ENDBRANCH  19  20
ENDBRANCH  16  19
ENDBRANCH   2  15
BRANCH   1  34
HETATM   34  C   UNL     1       4.200  28.577  50.315  1.00  0.00     0.076 A 
HETATM   35  C   UNL     1       3.070  28.659  49.479  1.00  0.00     0.098 A 
HETATM   36  C   UNL     1       2.833  27.680  48.500  1.00  0.00     0.075 A 
HETATM   37  C   UNL     1       3.684  26.581  48.382  1.00  0.00     0.070 A 
HETATM   38  C   UNL     1       4.747  26.444  49.270  1.00  0.00     0.039 A 
HETATM   39  C   UNL     1       5.003  27.429  50.225  1.00  0.00     0.035 A 
BRANCH  35  40
HETATM   40  O   UNL     1       2.231  29.740  49.632  1.00  0.00    -0.354 OA
HETATM   41  C   UNL     1       2.320  30.677  48.554  1.00  0.00     0.210 C 
ENDBRANCH  35  40
BRANCH  37  42
HETATM   42  O   UNL     1       3.573  25.578  47.460  1.00  0.00    -0.356 OA
HETATM   43  C   UNL     1       2.933  24.381  47.886  1.00  0.00     0.210 C 
ENDBRANCH  37  42
ENDBRANCH   1  34
TORSDOF 9
ENDMDL
MODEL 4
REMARK VINA RESULT:      -8.7      1.395      2.204
REMARK  9 active torsions:
REMARK  status: ('A' for Active; 'I' for Inactive)
REMARK    1  A    between atoms: O_2  and  C_3 
REMARK    2  A    between atoms: C_5  and  O_6 
REMARK    3  A    between atoms: C_8  and  N_9 
REMARK    4  A    between atoms: C_10  and  O_11 
REMARK    5  A    between atoms: C_10  and  C_12 
REMARK       I    between atoms: C_12  and  N_13 
REMARK    6  A    between atoms: N_13  and  C_14 
REMARK    7  A    between atoms: C_14  and  C_15 
REMARK    8  A    between atoms: C_15  and  N_16 
REMARK    9  A    between atoms: N_20  and  C_21 
ROOT
HETATM    1  N   UNL     1       4.191  31.035  49.930  1.00  0.00    -0.251 N 
HETATM    2  C   UNL     1       4.698  29.957  50.789  1.00  0.00     0.256 C 
HETATM    3  C   UNL     1       4.489  28.596  50.147  1.00  0.00     0.034 A 
HETATM    4  C   UNL     1       3.397  28.437  49.300  1.00  0.00     0.048 A 
HETATM    5  N   UNL     1       2.625  29.552  48.996  1.00  0.00    -0.308 N 
HETATM    6  C   UNL     1       3.028  30.838  49.201  1.00  0.00     0.330 C 
HETATM    7  O   UNL     1       2.332  31.749  48.754  1.00  0.00    -0.246 OA
HETATM    8  C   UNL     1       5.305  27.482  50.407  1.00  0.00     0.015 A 
HETATM    9  C   UNL     1       5.028  26.248  49.815  1.00  0.00     0.001 A 
HETATM   10  C   UNL     1       3.919  26.107  48.982  1.00  0.00     0.002 A 
HETATM   11  C   UNL     1       3.094  27.201  48.729  1.00  0.00     0.030 A 
HETATM   12  H   UNL     1       1.836  29.456  48.364  1.00  0.00     0.170 HD
ENDROOT
BRANCH   2  13
HETATM   13  O   UNL     1       6.110  30.079  50.974  1.00  0.00    -0.359 OA
HETATM   14  H   UNL     1       6.271  31.012  51.191  1.00  0.00     0.213 HD
ENDBRANCH   2  13
BRANCH   2  15
HETATM   15  C   UNL     1       3.983  29.934  52.221  1.00  0.00     0.279 C 
HETATM   16  N   UNL     1       4.598  30.604  53.264  1.00  0.00    -0.355 N 
HETATM   17  H   UNL     1       5.586  30.806  53.113  1.00  0.00     0.162 HD
HETATM   18  O   UNL     1       2.877  29.410  52.404  1.00  0.00    -0.268 OA
BRANCH  16  19
HETATM   19  C   UNL     1       4.182  30.501  54.661  1.00  0.00     0.150 C 
BRANCH  19  20
HETATM   20  C   UNL     1       5.304  30.457  55.727  1.00  0.00     0.254 C 
BRANCH  20  21
HETATM   21  N   UNL     1       5.781  29.063  56.049  1.00  0.00    -0.067 N 
HETATM   22  H   UNL     1       5.690  28.961  57.082  1.00  0.00     0.280 HD
HETATM   23  C   UNL     1       4.928  27.933  55.479  1.00  0.00     0.254 C 
HETATM   24  C   UNL     1       5.405  26.574  56.036  1.00  0.00     0.150 C 
HETATM   25  N   UNL     1       6.840  26.378  55.755  1.00  0.00    -0.378 N 
HETATM   26  C   UNL     1       7.721  27.459  56.226  1.00  0.00     0.150 C 
HETATM   27  C   UNL     1       7.252  28.838  55.714  1.00  0.00     0.254 C 
BRANCH  25  28
HETATM   28  C   UNL     1       7.197  25.534  54.709  1.00  0.00     0.030 A 
HETATM   29  C   UNL     1       7.361  24.150  54.860  1.00  0.00     0.029 A 
HETATM   30  C   UNL     1       7.711  23.329  53.778  1.00  0.00     0.002 A 
HETATM   31  C   UNL     1       7.892  23.874  52.513  1.00  0.00     0.000 A 
HETATM   32  C   UNL     1       7.719  25.238  52.328  1.00  0.00     0.002 A 
HETATM   33  C   UNL     1       7.372  26.052  53.413  1.00  0.00     0.029 A 
ENDBRANCH  25  28
ENDBRANCH  20  21
ENDBRANCH  19  20
ENDBRANCH  16  19
ENDBRANCH   2  15
BRANCH   1  34
HETATM   34  C   UNL     1       4.929  32.255  49.749  1.00  0.00     0.076 A 
HETATM   35  C   UNL     1       4.941  33.305  50.686  1.00  0.00     0.098 A 
HETATM   36  C   UNL     1       5.827  34.386  50.538  1.00  0.00     0.075 A 
HETATM   37  C   UNL     1       6.667  34.460  49.427  1.00  0.00     0.070 A 
HETATM   38  C   UNL     1       6.590  33.474  48.448  1.00  0.00     0.039 A 
HETATM   39  C   UNL     1       5.732  32.384  48.605  1.00  0.00     0.035 A 
BRANCH  35  40
HETATM   40  O   UNL     1       4.084  33.221  51.761  1.00  0.00    -0.354 OA
HETATM   41  C   UNL     1       3.801  34.493  52.354  1.00  0.00     0.210 C 
ENDBRANCH  35  40
BRANCH  37  42
HETATM   42  O   UNL     1       7.584  35.442  49.180  1.00  0.00    -0.356 OA
HETATM   43  C   UNL     1       8.545  35.186  48.163  1.00  0.00     0.210 C 
ENDBRANCH  37  42
ENDBRANCH   1  34
TORSDOF 9
ENDMDL
MODEL 5
REMARK VINA RESULT:      -8.7      1.517      2.303
REMARK  9 active torsions:
REMARK  status: ('A' for Active; 'I' for Inactive)
REMARK    1  A    between atoms: O_2  and  C_3 
REMARK    2  A    between atoms: C_5  and  O_6 
REMARK    3  A    between atoms: C_8  and  N_9 
REMARK    4  A    between atoms: C_10  and  O_11 
REMARK    5  A    between atoms: C_10  and  C_12 
REMARK       I    between atoms: C_12  and  N_13 
REMARK    6  A    between atoms: N_13  and  C_14 
REMARK    7  A    between atoms: C_14  and  C_15 
REMARK    8  A    between atoms: C_15  and  N_16 
REMARK    9  A    between atoms: N_20  and  C_21 
ROOT
HETATM    1  N   UNL     1       3.758  30.357  48.245  1.00  0.00    -0.251 N 
HETATM    2  C   UNL     1       4.217  29.115  48.880  1.00  0.00     0.256 C 
HETATM    3  C   UNL     1       3.641  27.894  48.185  1.00  0.00     0.034 A 
HETATM    4  C   UNL     1       2.393  28.017  47.583  1.00  0.00     0.048 A 
HETATM    5  N   UNL     1       1.794  29.270  47.547  1.00  0.00    -0.308 N 
HETATM    6  C   UNL     1       2.458  30.440  47.769  1.00  0.00     0.330 C 
HETATM    7  O   UNL     1       1.866  31.499  47.561  1.00  0.00    -0.246 OA
HETATM    8  C   UNL     1       4.273  26.639  48.169  1.00  0.00     0.015 A 
HETATM    9  C   UNL     1       3.664  25.547  47.548  1.00  0.00     0.001 A 
HETATM   10  C   UNL     1       2.406  25.689  46.963  1.00  0.00     0.002 A 
HETATM   11  C   UNL     1       1.762  26.924  46.987  1.00  0.00     0.030 A 
HETATM   12  H   UNL     1       0.892  29.380  47.093  1.00  0.00     0.170 HD
ENDROOT
BRANCH   2  13
HETATM   13  O   UNL     1       5.636  28.985  48.767  1.00  0.00    -0.359 OA
HETATM   14  H   UNL     1       5.944  29.789  48.317  1.00  0.00     0.213 HD
ENDBRANCH   2  13
BRANCH   2  15
HETATM   15  C   UNL     1       3.807  29.035  50.425  1.00  0.00     0.279 C 
HETATM   16  N   UNL     1       4.821  28.997  51.365  1.00  0.00    -0.355 N 
HETATM   17  H   UNL     1       5.732  28.729  50.993  1.00  0.00     0.162 HD
HETATM   18  O   UNL     1       2.629  29.085  50.804  1.00  0.00    -0.268 OA
BRANCH  16  19
HETATM   19  C   UNL     1       4.612  28.715  52.784  1.00  0.00     0.150 C 
BRANCH  19  20
HETATM   20  C   UNL     1       4.484  27.228  53.194  1.00  0.00     0.254 C 
BRANCH  20  21
HETATM   21  N   UNL     1       5.796  26.586  53.567  1.00  0.00    -0.067 N 
HETATM   22  H   UNL     1       6.450  27.370  53.776  1.00  0.00     0.280 HD
HETATM   23  C   UNL     1       5.776  25.758  54.850  1.00  0.00     0.254 C 
HETATM   24  C   UNL     1       7.210  25.320  55.221  1.00  0.00     0.150 C 
HETATM   25  N   UNL     1       7.831  24.588  54.101  1.00  0.00    -0.378 N 
HETATM   26  C   UNL     1       7.835  25.303  52.814  1.00  0.00     0.150 C 
HETATM   27  C   UNL     1       6.420  25.785  52.428  1.00  0.00     0.254 C 
BRANCH  25  28
HETATM   28  C   UNL     1       7.900  23.202  54.178  1.00  0.00     0.030 A 
HETATM   29  C   UNL     1       7.840  22.495  55.387  1.00  0.00     0.029 A 
HETATM   30  C   UNL     1       7.900  21.094  55.424  1.00  0.00     0.002 A 
HETATM   31  C   UNL     1       8.010  20.365  54.246  1.00  0.00     0.000 A 
HETATM   32  C   UNL     1       8.054  21.035  53.032  1.00  0.00     0.002 A 
HETATM   33  C   UNL     1       7.995  22.433  53.003  1.00  0.00     0.029 A 
ENDBRANCH  25  28
ENDBRANCH  20  21
ENDBRANCH  19  20
ENDBRANCH  16  19
ENDBRANCH   2  15
BRANCH   1  34
HETATM   34  C   UNL     1       4.656  31.455  48.013  1.00  0.00     0.076 A 
HETATM   35  C   UNL     1       5.112  31.831  46.736  1.00  0.00     0.098 A 
HETATM   36  C   UNL     1       5.835  33.023  46.558  1.00  0.00     0.075 A 
HETATM   37  C   UNL     1       6.159  33.820  47.655  1.00  0.00     0.070 A 
HETATM   38  C   UNL     1       5.794  33.404  48.932  1.00  0.00     0.039 A 
HETATM   39  C   UNL     1       5.051  32.235  49.110  1.00  0.00     0.035 A 
BRANCH  35  40
HETATM   40  O   UNL     1       4.801  31.014  45.672  1.00  0.00    -0.354 OA
HETATM   41  C   UNL     1       4.253  31.726  44.558  1.00  0.00     0.210 C 
ENDBRANCH  35  40
BRANCH  37  42
HETATM   42  O   UNL     1       6.835  35.007  47.611  1.00  0.00    -0.356 OA
HETATM   43  C   UNL     1       7.191  35.592  48.858  1.00  0.00     0.210 C 
ENDBRANCH  37  42
ENDBRANCH   1  34
TORSDOF 9
ENDMDL
MODEL 6
REMARK VINA RESULT:      -8.6      5.166      9.435
REMARK  9 active torsions:
REMARK  status: ('A' for Active; 'I' for Inactive)
REMARK    1  A    between atoms: O_2  and  C_3 
REMARK    2  A    between atoms: C_5  and  O_6 
REMARK    3  A    between atoms: C_8  and  N_9 
REMARK    4  A    between atoms: C_10  and  O_11 
REMARK    5  A    between atoms: C_10  and  C_12 
REMARK       I    between atoms: C_12  and  N_13 
REMARK    6  A    between atoms: N_13  and  C_14 
REMARK    7  A    between atoms: C_14  and  C_15 
REMARK    8  A    between atoms: C_15  and  N_16 
REMARK    9  A    between atoms: N_20  and  C_21 
ROOT
HETATM    1  N   UNL     1       6.638  26.661  54.050  1.00  0.00    -0.251 N 
HETATM    2  C   UNL     1       5.198  26.827  54.284  1.00  0.00     0.256 C 
HETATM    3  C   UNL     1       4.585  27.796  53.287  1.00  0.00     0.034 A 
HETATM    4  C   UNL     1       5.391  28.814  52.790  1.00  0.00     0.048 A 
HETATM    5  N   UNL     1       6.736  28.826  53.138  1.00  0.00    -0.308 N 
HETATM    6  C   UNL     1       7.398  27.755  53.663  1.00  0.00     0.330 C 
HETATM    7  O   UNL     1       8.620  27.825  53.790  1.00  0.00    -0.246 OA
HETATM    8  C   UNL     1       3.238  27.750  52.888  1.00  0.00     0.015 A 
HETATM    9  C   UNL     1       2.730  28.701  52.001  1.00  0.00     0.001 A 
HETATM   10  C   UNL     1       3.551  29.722  51.526  1.00  0.00     0.002 A 
HETATM   11  C   UNL     1       4.885  29.787  51.928  1.00  0.00     0.030 A 
HETATM   12  H   UNL     1       7.342  29.551  52.766  1.00  0.00     0.170 HD
ENDROOT
BRANCH   2  13
HETATM   13  O   UNL     1       4.508  25.590  54.088  1.00  0.00    -0.359 OA
HETATM   14  H   UNL     1       5.103  24.897  54.418  1.00  0.00     0.213 HD
ENDBRANCH   2  13
BRANCH   2  15
HETATM   15  C   UNL     1       4.881  27.376  55.754  1.00  0.00     0.279 C 
HETATM   16  N   UNL     1       4.498  28.698  55.885  1.00  0.00    -0.355 N 
HETATM   17  H   UNL     1       4.730  29.287  55.085  1.00  0.00     0.162 HD
HETATM   18  O   UNL     1       4.891  26.644  56.753  1.00  0.00    -0.268 OA
BRANCH  16  19
HETATM   19  C   UNL     1       4.379  29.393  57.165  1.00  0.00     0.150 C 
BRANCH  19  20
HETATM   20  C   UNL     1       3.320  30.519  57.258  1.00  0.00     0.254 C 
BRANCH  20  21
HETATM   21  N   UNL     1       3.690  31.623  58.215  1.00  0.00    -0.067 N 
HETATM   22  H   UNL     1       3.046  32.414  58.003  1.00  0.00     0.280 HD
HETATM   23  C   UNL     1       3.443  31.318  59.690  1.00  0.00     0.254 C 
HETATM   24  C   UNL     1       3.678  32.586  60.542  1.00  0.00     0.150 C 
HETATM   25  N   UNL     1       5.034  33.119  60.307  1.00  0.00    -0.378 N 
HETATM   26  C   UNL     1       5.365  33.383  58.898  1.00  0.00     0.150 C 
HETATM   27  C   UNL     1       5.109  32.145  58.012  1.00  0.00     0.254 C 
BRANCH  25  28
HETATM   28  C   UNL     1       6.012  32.874  61.264  1.00  0.00     0.030 A 
HETATM   29  C   UNL     1       7.151  32.096  61.017  1.00  0.00     0.029 A 
HETATM   30  C   UNL     1       8.123  31.879  62.004  1.00  0.00     0.002 A 
HETATM   31  C   UNL     1       7.983  32.451  63.264  1.00  0.00     0.000 A 
HETATM   32  C   UNL     1       6.876  33.242  63.533  1.00  0.00     0.002 A 
HETATM   33  C   UNL     1       5.909  33.451  62.543  1.00  0.00     0.029 A 
ENDBRANCH  25  28
ENDBRANCH  20  21
ENDBRANCH  19  20
ENDBRANCH  16  19
ENDBRANCH   2  15
BRANCH   1  34
HETATM   34  C   UNL     1       7.261  25.368  54.112  1.00  0.00     0.076 A 
HETATM   35  C   UNL     1       7.768  24.804  55.298  1.00  0.00     0.098 A 
HETATM   36  C   UNL     1       8.192  23.464  55.328  1.00  0.00     0.075 A 
HETATM   37  C   UNL     1       8.171  22.693  54.166  1.00  0.00     0.070 A 
HETATM   38  C   UNL     1       7.763  23.275  52.970  1.00  0.00     0.039 A 
HETATM   39  C   UNL     1       7.312  24.596  52.941  1.00  0.00     0.035 A 
BRANCH  35  40
HETATM   40  O   UNL     1       7.803  25.594  56.426  1.00  0.00    -0.354 OA
HETATM   41  C   UNL     1       8.531  25.000  57.505  1.00  0.00     0.210 C 
ENDBRANCH  35  40
BRANCH  37  42
HETATM   42  O   UNL     1       8.535  21.379  54.071  1.00  0.00    -0.356 OA
HETATM   43  C   UNL     1       7.918  20.614  53.043  1.00  0.00     0.210 C 
ENDBRANCH  37  42
ENDBRANCH   1  34
TORSDOF 9
ENDMDL
MODEL 7
REMARK VINA RESULT:      -8.3      5.491     10.054
REMARK  9 active torsions:
REMARK  status: ('A' for Active; 'I' for Inactive)
REMARK    1  A    between atoms: O_2  and  C_3 
REMARK    2  A    between atoms: C_5  and  O_6 
REMARK    3  A    between atoms: C_8  and  N_9 
REMARK    4  A    between atoms: C_10  and  O_11 
REMARK    5  A    between atoms: C_10  and  C_12 
REMARK       I    between atoms: C_12  and  N_13 
REMARK    6  A    between atoms: N_13  and  C_14 
REMARK    7  A    between atoms: C_14  and  C_15 
REMARK    8  A    between atoms: C_15  and  N_16 
REMARK    9  A    between atoms: N_20  and  C_21 
ROOT
HETATM    1  N   UNL     1       6.699  26.661  54.118  1.00  0.00    -0.251 N 
HETATM    2  C   UNL     1       5.256  26.803  54.353  1.00  0.00     0.256 C 
HETATM    3  C   UNL     1       4.632  27.787  53.379  1.00  0.00     0.034 A 
HETATM    4  C   UNL     1       5.426  28.827  52.907  1.00  0.00     0.048 A 
HETATM    5  N   UNL     1       6.770  28.848  53.257  1.00  0.00    -0.308 N 
HETATM    6  C   UNL     1       7.445  27.774  53.758  1.00  0.00     0.330 C 
HETATM    7  O   UNL     1       8.666  27.856  53.889  1.00  0.00    -0.246 OA
HETATM    8  C   UNL     1       3.287  27.734  52.977  1.00  0.00     0.015 A 
HETATM    9  C   UNL     1       2.768  28.699  52.111  1.00  0.00     0.001 A 
HETATM   10  C   UNL     1       3.577  29.742  51.662  1.00  0.00     0.002 A 
HETATM   11  C   UNL     1       4.909  29.814  52.068  1.00  0.00     0.030 A 
HETATM   12  H   UNL     1       7.368  29.589  52.904  1.00  0.00     0.170 HD
ENDROOT
BRANCH   2  13
HETATM   13  O   UNL     1       4.582  25.563  54.127  1.00  0.00    -0.359 OA
HETATM   14  H   UNL     1       5.235  24.867  54.310  1.00  0.00     0.213 HD
ENDBRANCH   2  13
BRANCH   2  15
HETATM   15  C   UNL     1       4.930  27.312  55.835  1.00  0.00     0.279 C 
HETATM   16  N   UNL     1       4.762  28.671  56.033  1.00  0.00    -0.355 N 
HETATM   17  H   UNL     1       5.146  29.256  55.291  1.00  0.00     0.162 HD
HETATM   18  O   UNL     1       4.748  26.534  56.781  1.00  0.00    -0.268 OA
BRANCH  16  19
HETATM   19  C   UNL     1       4.669  29.302  57.348  1.00  0.00     0.150 C 
BRANCH  19  20
HETATM   20  C   UNL     1       5.458  30.618  57.554  1.00  0.00     0.254 C 
BRANCH  20  21
HETATM   21  N   UNL     1       5.340  31.185  58.945  1.00  0.00    -0.067 N 
HETATM   22  H   UNL     1       5.382  30.370  59.592  1.00  0.00     0.280 HD
HETATM   23  C   UNL     1       6.495  32.080  59.386  1.00  0.00     0.254 C 
HETATM   24  C   UNL     1       6.351  32.436  60.882  1.00  0.00     0.150 C 
HETATM   25  N   UNL     1       5.040  33.062  61.138  1.00  0.00    -0.378 N 
HETATM   26  C   UNL     1       3.877  32.281  60.686  1.00  0.00     0.150 C 
HETATM   27  C   UNL     1       4.005  31.879  59.201  1.00  0.00     0.254 C 
BRANCH  25  28
HETATM   28  C   UNL     1       4.989  34.442  61.295  1.00  0.00     0.030 A 
HETATM   29  C   UNL     1       4.168  35.274  60.521  1.00  0.00     0.029 A 
HETATM   30  C   UNL     1       4.135  36.663  60.716  1.00  0.00     0.002 A 
HETATM   31  C   UNL     1       4.916  37.252  61.703  1.00  0.00     0.000 A 
HETATM   32  C   UNL     1       5.725  36.453  62.498  1.00  0.00     0.002 A 
HETATM   33  C   UNL     1       5.755  35.068  62.296  1.00  0.00     0.029 A 
ENDBRANCH  25  28
ENDBRANCH  20  21
ENDBRANCH  19  20
ENDBRANCH  16  19
ENDBRANCH   2  15
BRANCH   1  34
HETATM   34  C   UNL     1       7.338  25.375  54.151  1.00  0.00     0.076 A 
HETATM   35  C   UNL     1       7.769  24.749  55.335  1.00  0.00     0.098 A 
HETATM   36  C   UNL     1       8.214  23.416  55.319  1.00  0.00     0.075 A 
HETATM   37  C   UNL     1       8.288  22.713  54.116  1.00  0.00     0.070 A 
HETATM   38  C   UNL     1       7.955  23.358  52.929  1.00  0.00     0.039 A 
HETATM   39  C   UNL     1       7.485  24.673  52.944  1.00  0.00     0.035 A 
BRANCH  35  40
HETATM   40  O   UNL     1       7.710  25.472  56.506  1.00  0.00    -0.354 OA
HETATM   41  C   UNL     1       8.623  25.002  57.503  1.00  0.00     0.210 C 
ENDBRANCH  35  40
BRANCH  37  42
HETATM   42  O   UNL     1       8.681  21.412  53.972  1.00  0.00    -0.356 OA
HETATM   43  C   UNL     1       8.021  20.649  52.969  1.00  0.00     0.210 C 
ENDBRANCH  37  42
ENDBRANCH   1  34
TORSDOF 9
ENDMDL
MODEL 8
REMARK VINA RESULT:      -8.3      1.926      5.092
REMARK  9 active torsions:
REMARK  status: ('A' for Active; 'I' for Inactive)
REMARK    1  A    between atoms: O_2  and  C_3 
REMARK    2  A    between atoms: C_5  and  O_6 
REMARK    3  A    between atoms: C_8  and  N_9 
REMARK    4  A    between atoms: C_10  and  O_11 
REMARK    5  A    between atoms: C_10  and  C_12 
REMARK       I    between atoms: C_12  and  N_13 
REMARK    6  A    between atoms: N_13  and  C_14 
REMARK    7  A    between atoms: C_14  and  C_15 
REMARK    8  A    between atoms: C_15  and  N_16 
REMARK    9  A    between atoms: N_20  and  C_21 
ROOT
HETATM    1  N   UNL     1       3.988  30.491  50.381  1.00  0.00    -0.251 N 
HETATM    2  C   UNL     1       3.256  30.998  51.548  1.00  0.00     0.256 C 
HETATM    3  C   UNL     1       3.649  32.431  51.865  1.00  0.00     0.034 A 
HETATM    4  C   UNL     1       4.942  32.836  51.551  1.00  0.00     0.048 A 
HETATM    5  N   UNL     1       5.765  31.953  50.863  1.00  0.00    -0.308 N 
HETATM    6  C   UNL     1       5.315  30.851  50.197  1.00  0.00     0.330 C 
HETATM    7  O   UNL     1       6.108  30.226  49.494  1.00  0.00    -0.246 OA
HETATM    8  C   UNL     1       2.797  33.345  52.509  1.00  0.00     0.015 A 
HETATM    9  C   UNL     1       3.240  34.634  52.809  1.00  0.00     0.001 A 
HETATM   10  C   UNL     1       4.545  35.015  52.499  1.00  0.00     0.002 A 
HETATM   11  C   UNL     1       5.404  34.111  51.875  1.00  0.00     0.030 A 
HETATM   12  H   UNL     1       6.705  32.241  50.608  1.00  0.00     0.170 HD
ENDROOT
BRANCH   2  13
HETATM   13  O   UNL     1       1.851  31.037  51.287  1.00  0.00    -0.359 OA
HETATM   14  H   UNL     1       1.494  30.197  51.621  1.00  0.00     0.213 HD
ENDBRANCH   2  13
BRANCH   2  15
HETATM   15  C   UNL     1       3.520  30.120  52.860  1.00  0.00     0.279 C 
HETATM   16  N   UNL     1       4.224  28.938  52.719  1.00  0.00    -0.355 N 
HETATM   17  H   UNL     1       4.263  28.580  51.765  1.00  0.00     0.162 HD
HETATM   18  O   UNL     1       3.186  30.497  53.991  1.00  0.00    -0.268 OA
BRANCH  16  19
HETATM   19  C   UNL     1       4.362  27.936  53.774  1.00  0.00     0.150 C 
BRANCH  19  20
HETATM   20  C   UNL     1       4.569  26.468  53.327  1.00  0.00     0.254 C 
BRANCH  20  21
HETATM   21  N   UNL     1       5.954  25.940  53.602  1.00  0.00    -0.067 N 
HETATM   22  H   UNL     1       6.573  26.776  53.664  1.00  0.00     0.280 HD
HETATM   23  C   UNL     1       6.130  25.238  54.946  1.00  0.00     0.254 C 
HETATM   24  C   UNL     1       7.622  24.918  55.188  1.00  0.00     0.150 C 
HETATM   25  N   UNL     1       8.165  24.119  54.072  1.00  0.00    -0.378 N 
HETATM   26  C   UNL     1       7.979  24.707  52.736  1.00  0.00     0.150 C 
HETATM   27  C   UNL     1       6.502  25.070  52.474  1.00  0.00     0.254 C 
BRANCH  25  28
HETATM   28  C   UNL     1       8.333  22.753  54.263  1.00  0.00     0.030 A 
HETATM   29  C   UNL     1       8.186  21.810  53.237  1.00  0.00     0.029 A 
HETATM   30  C   UNL     1       8.375  20.439  53.464  1.00  0.00     0.002 A 
HETATM   31  C   UNL     1       8.730  19.979  54.727  1.00  0.00     0.000 A 
HETATM   32  C   UNL     1       8.902  20.890  55.759  1.00  0.00     0.002 A 
HETATM   33  C   UNL     1       8.708  22.257  55.525  1.00  0.00     0.029 A 
ENDBRANCH  25  28
ENDBRANCH  20  21
ENDBRANCH  19  20
ENDBRANCH  16  19
ENDBRANCH   2  15
BRANCH   1  34
HETATM   34  C   UNL     1       3.332  29.710  49.369  1.00  0.00     0.076 A 
HETATM   35  C   UNL     1       3.333  28.303  49.347  1.00  0.00     0.098 A 
HETATM   36  C   UNL     1       2.519  27.601  48.442  1.00  0.00     0.075 A 
HETATM   37  C   UNL     1       1.741  28.292  47.513  1.00  0.00     0.070 A 
HETATM   38  C   UNL     1       1.810  29.681  47.466  1.00  0.00     0.039 A 
HETATM   39  C   UNL     1       2.595  30.383  48.382  1.00  0.00     0.035 A 
BRANCH  35  40
HETATM   40  O   UNL     1       4.130  27.643  50.257  1.00  0.00    -0.354 OA
HETATM   41  C   UNL     1       4.857  26.554  49.681  1.00  0.00     0.210 C 
ENDBRANCH  35  40
BRANCH  37  42
HETATM   42  O   UNL     1       0.895  27.728  46.600  1.00  0.00    -0.356 OA
HETATM   43  C   UNL     1      -0.240  28.494  46.215  1.00  0.00     0.210 C 
ENDBRANCH  37  42
ENDBRANCH   1  34
TORSDOF 9
ENDMDL
MODEL 9
REMARK VINA RESULT:      -7.9      2.377      4.020
REMARK  9 active torsions:
REMARK  status: ('A' for Active; 'I' for Inactive)
REMARK    1  A    between atoms: O_2  and  C_3 
REMARK    2  A    between atoms: C_5  and  O_6 
REMARK    3  A    between atoms: C_8  and  N_9 
REMARK    4  A    between atoms: C_10  and  O_11 
REMARK    5  A    between atoms: C_10  and  C_12 
REMARK       I    between atoms: C_12  and  N_13 
REMARK    6  A    between atoms: N_13  and  C_14 
REMARK    7  A    between atoms: C_14  and  C_15 
REMARK    8  A    between atoms: C_15  and  N_16 
REMARK    9  A    between atoms: N_20  and  C_21 
ROOT
HETATM    1  N   UNL     1       3.511  30.190  49.513  1.00  0.00    -0.251 N 
HETATM    2  C   UNL     1       4.113  28.891  49.843  1.00  0.00     0.256 C 
HETATM    3  C   UNL     1       3.590  27.793  48.933  1.00  0.00     0.034 A 
HETATM    4  C   UNL     1       2.297  27.921  48.437  1.00  0.00     0.048 A 
HETATM    5  N   UNL     1       1.597  29.092  48.701  1.00  0.00    -0.308 N 
HETATM    6  C   UNL     1       2.178  30.247  49.133  1.00  0.00     0.330 C 
HETATM    7  O   UNL     1       1.490  31.266  49.187  1.00  0.00    -0.246 OA
HETATM    8  C   UNL     1       4.319  26.635  48.617  1.00  0.00     0.015 A 
HETATM    9  C   UNL     1       3.758  25.644  47.809  1.00  0.00     0.001 A 
HETATM   10  C   UNL     1       2.455  25.785  47.334  1.00  0.00     0.002 A 
HETATM   11  C   UNL     1       1.716  26.922  47.655  1.00  0.00     0.030 A 
HETATM   12  H   UNL     1       0.660  29.209  48.328  1.00  0.00     0.170 HD
ENDROOT
BRANCH   2  13
HETATM   13  O   UNL     1       5.526  28.921  49.632  1.00  0.00    -0.359 OA
HETATM   14  H   UNL     1       5.929  28.674  50.481  1.00  0.00     0.213 HD
ENDBRANCH   2  13
BRANCH   2  15
HETATM   15  C   UNL     1       3.820  28.453  51.354  1.00  0.00     0.279 C 
HETATM   16  N   UNL     1       4.746  27.642  51.986  1.00  0.00    -0.355 N 
HETATM   17  H   UNL     1       5.382  27.155  51.355  1.00  0.00     0.162 HD
HETATM   18  O   UNL     1       2.845  28.873  51.992  1.00  0.00    -0.268 OA
BRANCH  16  19
HETATM   19  C   UNL     1       4.521  26.994  53.277  1.00  0.00     0.150 C 
BRANCH  19  20
HETATM   20  C   UNL     1       5.741  26.311  53.942  1.00  0.00     0.254 C 
BRANCH  20  21
HETATM   21  N   UNL     1       6.062  26.845  55.315  1.00  0.00    -0.067 N 
HETATM   22  H   UNL     1       5.389  26.388  55.965  1.00  0.00     0.280 HD
HETATM   23  C   UNL     1       7.435  26.463  55.860  1.00  0.00     0.254 C 
HETATM   24  C   UNL     1       7.564  26.904  57.334  1.00  0.00     0.150 C 
HETATM   25  N   UNL     1       7.301  28.350  57.464  1.00  0.00    -0.378 N 
HETATM   26  C   UNL     1       6.017  28.803  56.907  1.00  0.00     0.150 C 
HETATM   27  C   UNL     1       5.841  28.350  55.442  1.00  0.00     0.254 C 
BRANCH  25  28
HETATM   28  C   UNL     1       8.387  29.205  57.612  1.00  0.00     0.030 A 
HETATM   29  C   UNL     1       8.532  30.084  58.694  1.00  0.00     0.029 A 
HETATM   30  C   UNL     1       9.648  30.925  58.815  1.00  0.00     0.002 A 
HETATM   31  C   UNL     1      10.655  30.896  57.858  1.00  0.00     0.000 A 
HETATM   32  C   UNL     1      10.550  30.024  56.784  1.00  0.00     0.002 A 
HETATM   33  C   UNL     1       9.432  29.190  56.669  1.00  0.00     0.029 A 
ENDBRANCH  25  28
ENDBRANCH  20  21
ENDBRANCH  19  20
ENDBRANCH  16  19
ENDBRANCH   2  15
BRANCH   1  34
HETATM   34  C   UNL     1       4.298  31.391  49.476  1.00  0.00     0.076 A 
HETATM   35  C   UNL     1       4.639  32.135  50.621  1.00  0.00     0.098 A 
HETATM   36  C   UNL     1       5.565  33.190  50.538  1.00  0.00     0.075 A 
HETATM   37  C   UNL     1       6.115  33.549  49.308  1.00  0.00     0.070 A 
HETATM   38  C   UNL     1       5.708  32.880  48.158  1.00  0.00     0.039 A 
HETATM   39  C   UNL     1       4.811  31.813  48.239  1.00  0.00     0.035 A 
BRANCH  35  40
HETATM   40  O   UNL     1       4.062  31.777  51.819  1.00  0.00    -0.354 OA
HETATM   41  C   UNL     1       2.941  32.595  52.169  1.00  0.00     0.210 C 
ENDBRANCH  35  40
BRANCH  37  42
HETATM   42  O   UNL     1       7.037  34.536  49.101  1.00  0.00    -0.356 OA
HETATM   43  C   UNL     1       7.839  34.432  47.931  1.00  0.00     0.210 C 
ENDBRANCH  37  42
ENDBRANCH   1  34
TORSDOF 9
ENDMDL
MODEL 10
REMARK VINA RESULT:      -7.8      6.435      9.352
REMARK  9 active torsions:
REMARK  status: ('A' for Active; 'I' for Inactive)
REMARK    1  A    between atoms: O_2  and  C_3 
REMARK    2  A    between atoms: C_5  and  O_6 
REMARK    3  A    between atoms: C_8  and  N_9 
REMARK    4  A    between atoms: C_10  and  O_11 
REMARK    5  A    between atoms: C_10  and  C_12 
REMARK       I    between atoms: C_12  and  N_13 
REMARK    6  A    between atoms: N_13  and  C_14 
REMARK    7  A    between atoms: C_14  and  C_15 
REMARK    8  A    between atoms: C_15  and  N_16 
REMARK    9  A    between atoms: N_20  and  C_21 
ROOT
HETATM    1  N   UNL     1       3.376  34.072  59.160  1.00  0.00    -0.251 N 
HETATM    2  C   UNL     1       4.147  33.802  57.940  1.00  0.00     0.256 C 
HETATM    3  C   UNL     1       4.024  34.942  56.945  1.00  0.00     0.034 A 
HETATM    4  C   UNL     1       2.845  35.680  56.944  1.00  0.00     0.048 A 
HETATM    5  N   UNL     1       1.895  35.413  57.923  1.00  0.00    -0.308 N 
HETATM    6  C   UNL     1       2.151  34.715  59.065  1.00  0.00     0.330 C 
HETATM    7  O   UNL     1       1.280  34.670  59.934  1.00  0.00    -0.246 OA
HETATM    8  C   UNL     1       5.009  35.252  55.992  1.00  0.00     0.015 A 
HETATM    9  C   UNL     1       4.810  36.287  55.077  1.00  0.00     0.001 A 
HETATM   10  C   UNL     1       3.614  37.004  55.085  1.00  0.00     0.002 A 
HETATM   11  C   UNL     1       2.622  36.696  56.014  1.00  0.00     0.030 A 
HETATM   12  H   UNL     1       1.037  35.957  57.948  1.00  0.00     0.170 HD
ENDROOT
BRANCH   2  13
HETATM   13  O   UNL     1       5.543  33.702  58.235  1.00  0.00    -0.359 OA
HETATM   14  H   UNL     1       5.763  34.494  58.753  1.00  0.00     0.213 HD
ENDBRANCH   2  13
BRANCH   2  15
HETATM   15  C   UNL     1       3.672  32.461  57.206  1.00  0.00     0.279 C 
HETATM   16  N   UNL     1       4.369  31.295  57.469  1.00  0.00    -0.355 N 
HETATM   17  H   UNL     1       5.295  31.438  57.872  1.00  0.00     0.162 HD
HETATM   18  O   UNL     1       2.669  32.419  56.482  1.00  0.00    -0.268 OA
BRANCH  16  19
HETATM   19  C   UNL     1       4.190  30.050  56.726  1.00  0.00     0.150 C 
BRANCH  19  20
HETATM   20  C   UNL     1       5.387  29.562  55.873  1.00  0.00     0.254 C 
BRANCH  20  21
HETATM   21  N   UNL     1       5.879  28.187  56.248  1.00  0.00    -0.067 N 
HETATM   22  H   UNL     1       5.817  28.133  57.286  1.00  0.00     0.280 HD
HETATM   23  C   UNL     1       5.015  27.028  55.756  1.00  0.00     0.254 C 
HETATM   24  C   UNL     1       5.514  25.698  56.362  1.00  0.00     0.150 C 
HETATM   25  N   UNL     1       6.941  25.493  56.051  1.00  0.00    -0.378 N 
HETATM   26  C   UNL     1       7.830  26.598  56.445  1.00  0.00     0.150 C 
HETATM   27  C   UNL     1       7.341  27.950  55.883  1.00  0.00     0.254 C 
BRANCH  25  28
HETATM   28  C   UNL     1       7.273  24.603  55.037  1.00  0.00     0.030 A 
HETATM   29  C   UNL     1       7.587  25.007  53.732  1.00  0.00     0.029 A 
HETATM   30  C   UNL     1       7.928  24.079  52.736  1.00  0.00     0.002 A 
HETATM   31  C   UNL     1       7.975  22.721  53.029  1.00  0.00     0.000 A 
HETATM   32  C   UNL     1       7.686  22.292  54.316  1.00  0.00     0.002 A 
HETATM   33  C   UNL     1       7.344  23.223  55.303  1.00  0.00     0.029 A 
ENDBRANCH  25  28
ENDBRANCH  20  21
ENDBRANCH  19  20
ENDBRANCH  16  19
ENDBRANCH   2  15
BRANCH   1  34
HETATM   34  C   UNL     1       3.910  33.779  60.462  1.00  0.00     0.076 A 
HETATM   35  C   UNL     1       4.447  34.755  61.323  1.00  0.00     0.098 A 
HETATM   36  C   UNL     1       4.777  34.433  62.650  1.00  0.00     0.075 A 
HETATM   37  C   UNL     1       4.630  33.127  63.116  1.00  0.00     0.070 A 
HETATM   38  C   UNL     1       4.191  32.137  62.241  1.00  0.00     0.039 A 
HETATM   39  C   UNL     1       3.834  32.458  60.930  1.00  0.00     0.035 A 
BRANCH  35  40
HETATM   40  O   UNL     1       4.606  36.032  60.831  1.00  0.00    -0.354 OA
HETATM   41  C   UNL     1       4.955  36.982  61.842  1.00  0.00     0.210 C 
ENDBRANCH  35  40
BRANCH  37  42
HETATM   42  O   UNL     1       4.894  32.695  64.385  1.00  0.00    -0.356 OA
HETATM   43  C   UNL     1       4.806  33.661  65.425  1.00  0.00     0.210 C 
ENDBRANCH  37  42
ENDBRANCH   1  34
TORSDOF 9
ENDMDL
