MODEL 1
REMARK VINA RESULT:     -10.0      0.000      0.000
REMARK  6 active torsions:
REMARK  status: ('A' for Active; 'I' for Inactive)
REMARK    1  A    between atoms: N_4  and  C_5 
REMARK    2  A    between atoms: C_14  and  C_15 
REMARK       I    between atoms: C_15  and  N_16 
REMARK    3  A    between atoms: N_16  and  C_17 
REMARK    4  A    between atoms: C_17  and  C_18 
REMARK    5  A    between atoms: C_18  and  O_19 
REMARK    6  A    between atoms: C_18  and  C_20 
ROOT
HETATM    1  C   UNL     1       8.041  28.307  56.066  1.00  0.00     0.255 C 
HETATM    2  N   UNL     1       7.615  27.040  56.394  1.00  0.00    -0.354 N 
HETATM    3  O   UNL     1       8.156  28.677  54.902  1.00  0.00    -0.268 OA
HETATM    4  H   UNL     1       7.797  26.696  57.327  1.00  0.00     0.162 HD
ENDROOT
BRANCH   1   5
HETATM    5  C   UNL     1       8.388  29.174  57.187  1.00  0.00     0.082 C 
HETATM    6  C   UNL     1       9.692  29.638  57.491  1.00  0.00     0.069 C 
HETATM    7  C   UNL     1      10.963  29.332  56.784  1.00  0.00     0.073 C 
HETATM    8  N   UNL     1       9.700  30.461  58.538  1.00  0.00    -0.171 NA
HETATM    9  N   UNL     1       8.422  30.493  58.988  1.00  0.00    -0.237 N 
HETATM   10  C   UNL     1       7.569  29.807  58.123  1.00  0.00     0.050 C 
HETATM   11  C   UNL     1       6.084  29.897  58.166  1.00  0.00     0.071 C 
BRANCH   9  12
HETATM   12  C   UNL     1       8.153  31.196  60.205  1.00  0.00     0.058 A 
HETATM   13  C   UNL     1       8.735  30.728  61.398  1.00  0.00     0.033 A 
HETATM   14  C   UNL     1       8.507  31.383  62.611  1.00  0.00     0.021 A 
HETATM   15  C   UNL     1       7.678  32.499  62.644  1.00  0.00     0.011 A 
HETATM   16 BR   UNL     1       7.362  33.388  64.282  1.00  0.00    -0.051 Br
HETATM   17  C   UNL     1       7.071  32.960  61.478  1.00  0.00     0.021 A 
HETATM   18  C   UNL     1       7.303  32.308  60.259  1.00  0.00     0.033 A 
ENDBRANCH   9  12
ENDBRANCH   1   5
BRANCH   2  19
HETATM   19  C   UNL     1       7.405  26.036  55.361  1.00  0.00     0.159 C 
BRANCH  19  20
HETATM   20  C   UNL     1       7.009  24.675  55.956  1.00  0.00     0.169 C 
BRANCH  20  21
HETATM   21  O   UNL     1       7.628  24.517  57.240  1.00  0.00    -0.389 OA
HETATM   22  H   UNL     1       7.402  25.309  57.762  1.00  0.00     0.210 HD
ENDBRANCH  20  21
BRANCH  20  23
HETATM   23  C   UNL     1       7.393  23.525  55.047  1.00  0.00    -0.028 A 
HETATM   24  C   UNL     1       7.565  22.235  55.577  1.00  0.00     0.013 A 
HETATM   25  C   UNL     1       7.886  21.164  54.740  1.00  0.00     0.043 A 
HETATM   26  C   UNL     1       8.034  21.378  53.375  1.00  0.00     0.116 A 
HETATM   27  F   UNL     1       8.336  20.347  52.576  1.00  0.00    -0.206 F 
HETATM   28  C   UNL     1       7.872  22.645  52.830  1.00  0.00     0.043 A 
HETATM   29  C   UNL     1       7.553  23.719  53.664  1.00  0.00     0.013 A 
ENDBRANCH  20  23
ENDBRANCH  19  20
ENDBRANCH   2  19
TORSDOF 6
ENDMDL
MODEL 2
REMARK VINA RESULT:      -9.6      5.436     10.246
REMARK  6 active torsions:
REMARK  status: ('A' for Active; 'I' for Inactive)
REMARK    1  A    between atoms: N_4  and  C_5 
REMARK    2  A    between atoms: C_14  and  C_15 
REMARK       I    between atoms: C_15  and  N_16 
REMARK    3  A    between atoms: N_16  and  C_17 
REMARK    4  A    between atoms: C_17  and  C_18 
REMARK    5  A    between atoms: C_18  and  O_19 
REMARK    6  A    between atoms: C_18  and  C_20 
ROOT
HETATM    1  C   UNL     1       8.840  31.294  59.094  1.00  0.00     0.255 C 
HETATM    2  N   UNL     1       8.648  30.945  60.412  1.00  0.00    -0.354 N 
HETATM    3  O   UNL     1       9.486  32.286  58.768  1.00  0.00    -0.268 OA
HETATM    4  H   UNL     1       7.900  30.302  60.636  1.00  0.00     0.162 HD
ENDROOT
BRANCH   1   5
HETATM    5  C   UNL     1       8.195  30.437  58.106  1.00  0.00     0.082 C 
HETATM    6  C   UNL     1       6.828  30.497  57.736  1.00  0.00     0.069 C 
HETATM    7  C   UNL     1       5.770  31.391  58.275  1.00  0.00     0.073 C 
HETATM    8  N   UNL     1       6.532  29.633  56.767  1.00  0.00    -0.171 NA
HETATM    9  N   UNL     1       7.672  28.938  56.536  1.00  0.00    -0.237 N 
HETATM   10  C   UNL     1       8.741  29.474  57.256  1.00  0.00     0.050 C 
HETATM   11  C   UNL     1      10.169  29.137  57.010  1.00  0.00     0.071 C 
BRANCH   9  12
HETATM   12  C   UNL     1       7.615  27.831  55.630  1.00  0.00     0.058 A 
HETATM   13  C   UNL     1       7.562  26.528  56.160  1.00  0.00     0.033 A 
HETATM   14  C   UNL     1       7.500  25.415  55.317  1.00  0.00     0.021 A 
HETATM   15  C   UNL     1       7.513  25.595  53.938  1.00  0.00     0.011 A 
HETATM   16 BR   UNL     1       7.434  24.094  52.792  1.00  0.00    -0.051 Br
HETATM   17  C   UNL     1       7.594  26.876  53.397  1.00  0.00     0.021 A 
HETATM   18  C   UNL     1       7.650  27.995  54.240  1.00  0.00     0.033 A 
ENDBRANCH   9  12
ENDBRANCH   1   5
BRANCH   2  19
HETATM   19  C   UNL     1       9.098  31.818  61.485  1.00  0.00     0.159 C 
BRANCH  19  20
HETATM   20  C   UNL     1       8.326  31.566  62.791  1.00  0.00     0.169 C 
BRANCH  20  21
HETATM   21  O   UNL     1       7.452  30.443  62.619  1.00  0.00    -0.389 OA
HETATM   22  H   UNL     1       7.307  30.341  61.661  1.00  0.00     0.210 HD
ENDBRANCH  20  21
BRANCH  20  23
HETATM   23  C   UNL     1       7.533  32.783  63.224  1.00  0.00    -0.028 A 
HETATM   24  C   UNL     1       6.835  33.544  62.271  1.00  0.00     0.013 A 
HETATM   25  C   UNL     1       6.075  34.647  62.665  1.00  0.00     0.043 A 
HETATM   26  C   UNL     1       6.008  34.990  64.010  1.00  0.00     0.116 A 
HETATM   27  F   UNL     1       5.273  36.044  64.385  1.00  0.00    -0.206 F 
HETATM   28  C   UNL     1       6.691  34.254  64.969  1.00  0.00     0.043 A 
HETATM   29  C   UNL     1       7.455  33.153  64.578  1.00  0.00     0.013 A 
ENDBRANCH  20  23
ENDBRANCH  19  20
ENDBRANCH   2  19
TORSDOF 6
ENDMDL
MODEL 3
REMARK VINA RESULT:      -9.5      5.102      9.892
REMARK  6 active torsions:
REMARK  status: ('A' for Active; 'I' for Inactive)
REMARK    1  A    between atoms: N_4  and  C_5 
REMARK    2  A    between atoms: C_14  and  C_15 
REMARK       I    between atoms: C_15  and  N_16 
REMARK    3  A    between atoms: N_16  and  C_17 
REMARK    4  A    between atoms: C_17  and  C_18 
REMARK    5  A    between atoms: C_18  and  O_19 
REMARK    6  A    between atoms: C_18  and  C_20 
ROOT
HETATM    1  C   UNL     1       5.823  29.001  56.983  1.00  0.00     0.255 C 
HETATM    2  N   UNL     1       6.867  29.897  57.032  1.00  0.00    -0.354 N 
HETATM    3  O   UNL     1       4.849  29.092  57.723  1.00  0.00    -0.268 OA
HETATM    4  H   UNL     1       7.750  29.633  56.614  1.00  0.00     0.162 HD
ENDROOT
BRANCH   1   5
HETATM    5  C   UNL     1       5.964  27.910  56.026  1.00  0.00     0.082 C 
HETATM    6  C   UNL     1       5.251  27.791  54.806  1.00  0.00     0.069 C 
HETATM    7  C   UNL     1       4.210  28.701  54.261  1.00  0.00     0.073 C 
HETATM    8  N   UNL     1       5.626  26.722  54.107  1.00  0.00    -0.171 NA
HETATM    9  N   UNL     1       6.532  26.078  54.883  1.00  0.00    -0.237 N 
HETATM   10  C   UNL     1       6.848  26.830  56.015  1.00  0.00     0.050 C 
HETATM   11  C   UNL     1       8.006  26.552  56.908  1.00  0.00     0.071 C 
BRANCH   9  12
HETATM   12  C   UNL     1       7.011  24.803  54.442  1.00  0.00     0.058 A 
HETATM   13  C   UNL     1       7.032  23.736  55.360  1.00  0.00     0.033 A 
HETATM   14  C   UNL     1       7.486  22.472  54.977  1.00  0.00     0.021 A 
HETATM   15  C   UNL     1       7.942  22.269  53.680  1.00  0.00     0.011 A 
HETATM   16 BR   UNL     1       8.562  20.562  53.156  1.00  0.00    -0.051 Br
HETATM   17  C   UNL     1       7.955  23.321  52.766  1.00  0.00     0.021 A 
HETATM   18  C   UNL     1       7.495  24.589  53.146  1.00  0.00     0.033 A 
ENDBRANCH   9  12
ENDBRANCH   1   5
BRANCH   2  19
HETATM   19  C   UNL     1       6.917  30.925  58.062  1.00  0.00     0.159 C 
BRANCH  19  20
HETATM   20  C   UNL     1       8.105  30.721  59.017  1.00  0.00     0.169 C 
BRANCH  20  21
HETATM   21  O   UNL     1       8.266  29.322  59.286  1.00  0.00    -0.389 OA
HETATM   22  H   UNL     1       7.446  29.021  59.719  1.00  0.00     0.210 HD
ENDBRANCH  20  21
BRANCH  20  23
HETATM   23  C   UNL     1       7.926  31.485  60.314  1.00  0.00    -0.028 A 
HETATM   24  C   UNL     1       6.845  32.369  60.467  1.00  0.00     0.013 A 
HETATM   25  C   UNL     1       6.654  33.052  61.670  1.00  0.00     0.043 A 
HETATM   26  C   UNL     1       7.540  32.852  62.722  1.00  0.00     0.116 A 
HETATM   27  F   UNL     1       7.350  33.502  63.876  1.00  0.00    -0.206 F 
HETATM   28  C   UNL     1       8.617  31.984  62.592  1.00  0.00     0.043 A 
HETATM   29  C   UNL     1       8.813  31.303  61.390  1.00  0.00     0.013 A 
ENDBRANCH  20  23
ENDBRANCH  19  20
ENDBRANCH   2  19
TORSDOF 6
ENDMDL
MODEL 4
REMARK VINA RESULT:      -8.9      2.672      4.539
REMARK  6 active torsions:
REMARK  status: ('A' for Active; 'I' for Inactive)
REMARK    1  A    between atoms: N_4  and  C_5 
REMARK    2  A    between atoms: C_14  and  C_15 
REMARK       I    between atoms: C_15  and  N_16 
REMARK    3  A    between atoms: N_16  and  C_17 
REMARK    4  A    between atoms: C_17  and  C_18 
REMARK    5  A    between atoms: C_18  and  O_19 
REMARK    6  A    between atoms: C_18  and  C_20 
ROOT
HETATM    1  C   UNL     1       7.927  31.086  59.174  1.00  0.00     0.255 C 
HETATM    2  N   UNL     1       7.504  29.810  58.879  1.00  0.00    -0.354 N 
HETATM    3  O   UNL     1       8.882  31.606  58.604  1.00  0.00    -0.268 OA
HETATM    4  H   UNL     1       6.912  29.332  59.545  1.00  0.00     0.162 HD
ENDROOT
BRANCH   1   5
HETATM    5  C   UNL     1       7.198  31.771  60.236  1.00  0.00     0.082 C 
HETATM    6  C   UNL     1       6.028  32.550  60.057  1.00  0.00     0.069 C 
HETATM    7  C   UNL     1       5.322  32.866  58.787  1.00  0.00     0.073 C 
HETATM    8  N   UNL     1       5.547  33.007  61.211  1.00  0.00    -0.171 NA
HETATM    9  N   UNL     1       6.428  32.604  62.159  1.00  0.00    -0.237 N 
HETATM   10  C   UNL     1       7.392  31.752  61.618  1.00  0.00     0.050 C 
HETATM   11  C   UNL     1       8.317  30.912  62.427  1.00  0.00     0.071 C 
BRANCH   9  12
HETATM   12  C   UNL     1       6.240  33.073  63.498  1.00  0.00     0.058 A 
HETATM   13  C   UNL     1       7.373  33.438  64.250  1.00  0.00     0.033 A 
HETATM   14  C   UNL     1       7.241  33.908  65.559  1.00  0.00     0.021 A 
HETATM   15  C   UNL     1       5.979  33.996  66.135  1.00  0.00     0.011 A 
HETATM   16 BR   UNL     1       5.794  34.626  67.907  1.00  0.00    -0.051 Br
HETATM   17  C   UNL     1       4.849  33.612  65.415  1.00  0.00     0.021 A 
HETATM   18  C   UNL     1       4.978  33.147  64.099  1.00  0.00     0.033 A 
ENDBRANCH   9  12
ENDBRANCH   1   5
BRANCH   2  19
HETATM   19  C   UNL     1       8.259  28.969  57.962  1.00  0.00     0.159 C 
BRANCH  19  20
HETATM   20  C   UNL     1       7.439  28.602  56.714  1.00  0.00     0.169 C 
BRANCH  20  21
HETATM   21  O   UNL     1       6.132  29.184  56.814  1.00  0.00    -0.389 OA
HETATM   22  H   UNL     1       5.782  28.944  57.691  1.00  0.00     0.210 HD
ENDBRANCH  20  21
BRANCH  20  23
HETATM   23  C   UNL     1       7.330  27.102  56.529  1.00  0.00    -0.028 A 
HETATM   24  C   UNL     1       6.445  26.572  55.574  1.00  0.00     0.013 A 
HETATM   25  C   UNL     1       6.363  25.193  55.375  1.00  0.00     0.043 A 
HETATM   26  C   UNL     1       7.163  24.341  56.126  1.00  0.00     0.116 A 
HETATM   27  F   UNL     1       7.086  23.019  55.927  1.00  0.00    -0.206 F 
HETATM   28  C   UNL     1       8.042  24.842  57.077  1.00  0.00     0.043 A 
HETATM   29  C   UNL     1       8.125  26.220  57.281  1.00  0.00     0.013 A 
ENDBRANCH  20  23
ENDBRANCH  19  20
ENDBRANCH   2  19
TORSDOF 6
ENDMDL
MODEL 5
REMARK VINA RESULT:      -8.9      6.457      9.202
REMARK  6 active torsions:
REMARK  status: ('A' for Active; 'I' for Inactive)
REMARK    1  A    between atoms: N_4  and  C_5 
REMARK    2  A    between atoms: C_14  and  C_15 
REMARK       I    between atoms: C_15  and  N_16 
REMARK    3  A    between atoms: N_16  and  C_17 
REMARK    4  A    between atoms: C_17  and  C_18 
REMARK    5  A    between atoms: C_18  and  O_19 
REMARK    6  A    between atoms: C_18  and  C_20 
ROOT
HETATM    1  C   UNL     1       5.214  28.739  51.818  1.00  0.00     0.255 C 
HETATM    2  N   UNL     1       3.846  28.790  51.669  1.00  0.00    -0.354 N 
HETATM    3  O   UNL     1       5.965  29.505  51.222  1.00  0.00    -0.268 OA
HETATM    4  H   UNL     1       3.300  27.987  51.951  1.00  0.00     0.162 HD
ENDROOT
BRANCH   1   5
HETATM    5  C   UNL     1       5.722  27.691  52.696  1.00  0.00     0.082 C 
HETATM    6  C   UNL     1       6.018  27.847  54.073  1.00  0.00     0.069 C 
HETATM    7  C   UNL     1       5.916  29.079  54.900  1.00  0.00     0.073 C 
HETATM    8  N   UNL     1       6.410  26.706  54.635  1.00  0.00    -0.171 NA
HETATM    9  N   UNL     1       6.454  25.799  53.628  1.00  0.00    -0.237 N 
HETATM   10  C   UNL     1       5.934  26.334  52.449  1.00  0.00     0.050 C 
HETATM   11  C   UNL     1       5.570  25.527  51.252  1.00  0.00     0.071 C 
BRANCH   9  12
HETATM   12  C   UNL     1       6.983  24.500  53.913  1.00  0.00     0.058 A 
HETATM   13  C   UNL     1       6.892  24.009  55.229  1.00  0.00     0.033 A 
HETATM   14  C   UNL     1       7.389  22.745  55.557  1.00  0.00     0.021 A 
HETATM   15  C   UNL     1       7.999  21.970  54.577  1.00  0.00     0.011 A 
HETATM   16 BR   UNL     1       8.677  20.261  55.014  1.00  0.00    -0.051 Br
HETATM   17  C   UNL     1       8.123  22.453  53.275  1.00  0.00     0.021 A 
HETATM   18  C   UNL     1       7.620  23.718  52.943  1.00  0.00     0.033 A 
ENDBRANCH   9  12
ENDBRANCH   1   5
BRANCH   2  19
HETATM   19  C   UNL     1       3.238  29.679  50.691  1.00  0.00     0.159 C 
BRANCH  19  20
HETATM   20  C   UNL     1       1.900  29.129  50.170  1.00  0.00     0.169 C 
BRANCH  20  21
HETATM   21  O   UNL     1       1.166  28.551  51.258  1.00  0.00    -0.389 OA
HETATM   22  H   UNL     1       1.811  28.356  51.962  1.00  0.00     0.210 HD
ENDBRANCH  20  21
BRANCH  20  23
HETATM   23  C   UNL     1       2.098  28.104  49.072  1.00  0.00    -0.028 A 
HETATM   24  C   UNL     1       3.323  27.426  48.953  1.00  0.00     0.013 A 
HETATM   25  C   UNL     1       3.503  26.457  47.964  1.00  0.00     0.043 A 
HETATM   26  C   UNL     1       2.460  26.161  47.095  1.00  0.00     0.116 A 
HETATM   27  F   UNL     1       2.633  25.225  46.152  1.00  0.00    -0.206 F 
HETATM   28  C   UNL     1       1.241  26.819  47.192  1.00  0.00     0.043 A 
HETATM   29  C   UNL     1       1.059  27.791  48.177  1.00  0.00     0.013 A 
ENDBRANCH  20  23
ENDBRANCH  19  20
ENDBRANCH   2  19
TORSDOF 6
ENDMDL
MODEL 6
REMARK VINA RESULT:      -8.8      5.525     10.052
REMARK  6 active torsions:
REMARK  status: ('A' for Active; 'I' for Inactive)
REMARK    1  A    between atoms: N_4  and  C_5 
REMARK    2  A    between atoms: C_14  and  C_15 
REMARK       I    between atoms: C_15  and  N_16 
REMARK    3  A    between atoms: N_16  and  C_17 
REMARK    4  A    between atoms: C_17  and  C_18 
REMARK    5  A    between atoms: C_18  and  O_19 
REMARK    6  A    between atoms: C_18  and  C_20 
ROOT
HETATM    1  C   UNL     1       7.731  28.818  57.660  1.00  0.00     0.255 C 
HETATM    2  N   UNL     1       7.716  30.137  58.054  1.00  0.00    -0.354 N 
HETATM    3  O   UNL     1       7.849  27.898  58.463  1.00  0.00    -0.268 OA
HETATM    4  H   UNL     1       7.894  30.851  57.360  1.00  0.00     0.162 HD
ENDROOT
BRANCH   1   5
HETATM    5  C   UNL     1       7.638  28.581  56.224  1.00  0.00     0.082 C 
HETATM    6  C   UNL     1       8.657  28.862  55.279  1.00  0.00     0.069 C 
HETATM    7  C   UNL     1       9.990  29.473  55.522  1.00  0.00     0.073 C 
HETATM    8  N   UNL     1       8.316  28.487  54.047  1.00  0.00    -0.171 NA
HETATM    9  N   UNL     1       7.045  28.027  54.144  1.00  0.00    -0.237 N 
HETATM   10  C   UNL     1       6.634  27.964  55.476  1.00  0.00     0.050 C 
HETATM   11  C   UNL     1       5.422  27.240  55.945  1.00  0.00     0.071 C 
BRANCH   9  12
HETATM   12  C   UNL     1       6.360  27.680  52.936  1.00  0.00     0.058 A 
HETATM   13  C   UNL     1       6.426  26.350  52.481  1.00  0.00     0.033 A 
HETATM   14  C   UNL     1       5.770  25.961  51.310  1.00  0.00     0.021 A 
HETATM   15  C   UNL     1       5.061  26.903  50.574  1.00  0.00     0.011 A 
HETATM   16 BR   UNL     1       4.175  26.384  48.987  1.00  0.00    -0.051 Br
HETATM   17  C   UNL     1       5.009  28.230  50.994  1.00  0.00     0.021 A 
HETATM   18  C   UNL     1       5.661  28.622  52.171  1.00  0.00     0.033 A 
ENDBRANCH   9  12
ENDBRANCH   1   5
BRANCH   2  19
HETATM   19  C   UNL     1       7.973  30.502  59.440  1.00  0.00     0.159 C 
BRANCH  19  20
HETATM   20  C   UNL     1       7.954  32.026  59.645  1.00  0.00     0.169 C 
BRANCH  20  21
HETATM   21  O   UNL     1       9.241  32.566  59.319  1.00  0.00    -0.389 OA
HETATM   22  H   UNL     1       9.243  32.736  58.360  1.00  0.00     0.210 HD
ENDBRANCH  20  21
BRANCH  20  23
HETATM   23  C   UNL     1       7.574  32.402  61.063  1.00  0.00    -0.028 A 
HETATM   24  C   UNL     1       8.424  32.072  62.132  1.00  0.00     0.013 A 
HETATM   25  C   UNL     1       8.097  32.443  63.437  1.00  0.00     0.043 A 
HETATM   26  C   UNL     1       6.923  33.146  63.678  1.00  0.00     0.116 A 
HETATM   27  F   UNL     1       6.616  33.508  64.930  1.00  0.00    -0.206 F 
HETATM   28  C   UNL     1       6.066  33.481  62.637  1.00  0.00     0.043 A 
HETATM   29  C   UNL     1       6.388  33.109  61.331  1.00  0.00     0.013 A 
ENDBRANCH  20  23
ENDBRANCH  19  20
ENDBRANCH   2  19
TORSDOF 6
ENDMDL
MODEL 7
REMARK VINA RESULT:      -8.8      1.553      2.249
REMARK  6 active torsions:
REMARK  status: ('A' for Active; 'I' for Inactive)
REMARK    1  A    between atoms: N_4  and  C_5 
REMARK    2  A    between atoms: C_14  and  C_15 
REMARK       I    between atoms: C_15  and  N_16 
REMARK    3  A    between atoms: N_16  and  C_17 
REMARK    4  A    between atoms: C_17  and  C_18 
REMARK    5  A    between atoms: C_18  and  O_19 
REMARK    6  A    between atoms: C_18  and  C_20 
ROOT
HETATM    1  C   UNL     1       7.684  28.923  55.795  1.00  0.00     0.255 C 
HETATM    2  N   UNL     1       6.457  29.272  55.278  1.00  0.00    -0.354 N 
HETATM    3  O   UNL     1       8.376  28.040  55.296  1.00  0.00    -0.268 OA
HETATM    4  H   UNL     1       5.816  29.791  55.863  1.00  0.00     0.162 HD
ENDROOT
BRANCH   1   5
HETATM    5  C   UNL     1       8.096  29.637  56.998  1.00  0.00     0.082 C 
HETATM    6  C   UNL     1       9.435  29.925  57.363  1.00  0.00     0.069 C 
HETATM    7  C   UNL     1      10.682  29.549  56.647  1.00  0.00     0.073 C 
HETATM    8  N   UNL     1       9.507  30.640  58.484  1.00  0.00    -0.171 NA
HETATM    9  N   UNL     1       8.229  30.770  58.917  1.00  0.00    -0.237 N 
HETATM   10  C   UNL     1       7.328  30.266  57.979  1.00  0.00     0.050 C 
HETATM   11  C   UNL     1       5.861  30.514  58.010  1.00  0.00     0.071 C 
BRANCH   9  12
HETATM   12  C   UNL     1       8.009  31.382  60.192  1.00  0.00     0.058 A 
HETATM   13  C   UNL     1       8.591  30.796  61.332  1.00  0.00     0.033 A 
HETATM   14  C   UNL     1       8.410  31.358  62.598  1.00  0.00     0.021 A 
HETATM   15  C   UNL     1       7.627  32.499  62.737  1.00  0.00     0.011 A 
HETATM   16 BR   UNL     1       7.374  33.263  64.448  1.00  0.00    -0.051 Br
HETATM   17  C   UNL     1       7.020  33.076  61.624  1.00  0.00     0.021 A 
HETATM   18  C   UNL     1       7.205  32.518  60.352  1.00  0.00     0.033 A 
ENDBRANCH   9  12
ENDBRANCH   1   5
BRANCH   2  19
HETATM   19  C   UNL     1       5.868  28.513  54.184  1.00  0.00     0.159 C 
BRANCH  19  20
HETATM   20  C   UNL     1       4.939  27.399  54.695  1.00  0.00     0.169 C 
BRANCH  20  21
HETATM   21  O   UNL     1       4.450  27.746  55.998  1.00  0.00    -0.389 OA
HETATM   22  H   UNL     1       4.857  28.599  56.235  1.00  0.00     0.210 HD
ENDBRANCH  20  21
BRANCH  20  23
HETATM   23  C   UNL     1       5.637  26.055  54.740  1.00  0.00    -0.028 A 
HETATM   24  C   UNL     1       5.921  25.368  53.548  1.00  0.00     0.013 A 
HETATM   25  C   UNL     1       6.593  24.144  53.579  1.00  0.00     0.043 A 
HETATM   26  C   UNL     1       6.986  23.607  54.798  1.00  0.00     0.116 A 
HETATM   27  F   UNL     1       7.638  22.437  54.823  1.00  0.00    -0.206 F 
HETATM   28  C   UNL     1       6.715  24.267  55.990  1.00  0.00     0.043 A 
HETATM   29  C   UNL     1       6.040  25.489  55.963  1.00  0.00     0.013 A 
ENDBRANCH  20  23
ENDBRANCH  19  20
ENDBRANCH   2  19
TORSDOF 6
ENDMDL
MODEL 8
REMARK VINA RESULT:      -8.5      6.106      9.101
REMARK  6 active torsions:
REMARK  status: ('A' for Active; 'I' for Inactive)
REMARK    1  A    between atoms: N_4  and  C_5 
REMARK    2  A    between atoms: C_14  and  C_15 
REMARK       I    between atoms: C_15  and  N_16 
REMARK    3  A    between atoms: N_16  and  C_17 
REMARK    4  A    between atoms: C_17  and  C_18 
REMARK    5  A    between atoms: C_18  and  O_19 
REMARK    6  A    between atoms: C_18  and  C_20 
ROOT
HETATM    1  C   UNL     1       4.920  28.734  52.356  1.00  0.00     0.255 C 
HETATM    2  N   UNL     1       5.716  29.324  51.400  1.00  0.00    -0.354 N 
HETATM    3  O   UNL     1       3.769  29.103  52.567  1.00  0.00    -0.268 OA
HETATM    4  H   UNL     1       6.716  29.183  51.450  1.00  0.00     0.162 HD
ENDROOT
BRANCH   1   5
HETATM    5  C   UNL     1       5.542  27.669  53.135  1.00  0.00     0.082 C 
HETATM    6  C   UNL     1       6.043  27.802  54.454  1.00  0.00     0.069 C 
HETATM    7  C   UNL     1       6.080  29.022  55.302  1.00  0.00     0.073 C 
HETATM    8  N   UNL     1       6.502  26.648  54.935  1.00  0.00    -0.171 NA
HETATM    9  N   UNL     1       6.384  25.757  53.922  1.00  0.00    -0.237 N 
HETATM   10  C   UNL     1       5.700  26.314  52.841  1.00  0.00     0.050 C 
HETATM   11  C   UNL     1       5.152  25.527  51.702  1.00  0.00     0.071 C 
BRANCH   9  12
HETATM   12  C   UNL     1       6.935  24.449  54.107  1.00  0.00     0.058 A 
HETATM   13  C   UNL     1       7.451  23.769  52.987  1.00  0.00     0.033 A 
HETATM   14  C   UNL     1       8.004  22.493  53.117  1.00  0.00     0.021 A 
HETATM   15  C   UNL     1       8.026  21.876  54.363  1.00  0.00     0.011 A 
HETATM   16 BR   UNL     1       8.769  20.148  54.546  1.00  0.00    -0.051 Br
HETATM   17  C   UNL     1       7.494  22.523  55.477  1.00  0.00     0.021 A 
HETATM   18  C   UNL     1       6.944  23.806  55.351  1.00  0.00     0.033 A 
ENDBRANCH   9  12
ENDBRANCH   1   5
BRANCH   2  19
HETATM   19  C   UNL     1       5.263  30.507  50.683  1.00  0.00     0.159 C 
BRANCH  19  20
HETATM   20  C   UNL     1       5.211  30.271  49.164  1.00  0.00     0.169 C 
BRANCH  20  21
HETATM   21  O   UNL     1       4.523  31.361  48.536  1.00  0.00    -0.389 OA
HETATM   22  H   UNL     1       4.766  32.168  49.024  1.00  0.00     0.210 HD
ENDBRANCH  20  21
BRANCH  20  23
HETATM   23  C   UNL     1       4.535  28.959  48.818  1.00  0.00    -0.028 A 
HETATM   24  C   UNL     1       3.155  28.801  49.027  1.00  0.00     0.013 A 
HETATM   25  C   UNL     1       2.519  27.607  48.680  1.00  0.00     0.043 A 
HETATM   26  C   UNL     1       3.259  26.571  48.122  1.00  0.00     0.116 A 
HETATM   27  F   UNL     1       2.645  25.430  47.784  1.00  0.00    -0.206 F 
HETATM   28  C   UNL     1       4.625  26.704  47.909  1.00  0.00     0.043 A 
HETATM   29  C   UNL     1       5.264  27.895  48.258  1.00  0.00     0.013 A 
ENDBRANCH  20  23
ENDBRANCH  19  20
ENDBRANCH   2  19
TORSDOF 6
ENDMDL
MODEL 9
REMARK VINA RESULT:      -8.5      2.003      2.549
REMARK  6 active torsions:
REMARK  status: ('A' for Active; 'I' for Inactive)
REMARK    1  A    between atoms: N_4  and  C_5 
REMARK    2  A    between atoms: C_14  and  C_15 
REMARK       I    between atoms: C_15  and  N_16 
REMARK    3  A    between atoms: N_16  and  C_17 
REMARK    4  A    between atoms: C_17  and  C_18 
REMARK    5  A    between atoms: C_18  and  O_19 
REMARK    6  A    between atoms: C_18  and  C_20 
ROOT
HETATM    1  C   UNL     1       8.114  28.714  57.006  1.00  0.00     0.255 C 
HETATM    2  N   UNL     1       7.835  27.522  57.637  1.00  0.00    -0.354 N 
HETATM    3  O   UNL     1       8.647  28.759  55.901  1.00  0.00    -0.268 OA
HETATM    4  H   UNL     1       7.659  27.533  58.632  1.00  0.00     0.162 HD
ENDROOT
BRANCH   1   5
HETATM    5  C   UNL     1       7.775  29.923  57.748  1.00  0.00     0.082 C 
HETATM    6  C   UNL     1       8.708  30.855  58.267  1.00  0.00     0.069 C 
HETATM    7  C   UNL     1      10.193  30.797  58.208  1.00  0.00     0.073 C 
HETATM    8  N   UNL     1       8.111  31.893  58.848  1.00  0.00    -0.171 NA
HETATM    9  N   UNL     1       6.782  31.629  58.791  1.00  0.00    -0.237 N 
HETATM   10  C   UNL     1       6.531  30.488  58.028  1.00  0.00     0.050 C 
HETATM   11  C   UNL     1       5.184  30.095  57.530  1.00  0.00     0.071 C 
BRANCH   9  12
HETATM   12  C   UNL     1       5.889  32.516  59.471  1.00  0.00     0.058 A 
HETATM   13  C   UNL     1       5.081  33.378  58.704  1.00  0.00     0.033 A 
HETATM   14  C   UNL     1       4.189  34.259  59.320  1.00  0.00     0.021 A 
HETATM   15  C   UNL     1       4.113  34.302  60.708  1.00  0.00     0.011 A 
HETATM   16 BR   UNL     1       2.911  35.494  61.548  1.00  0.00    -0.051 Br
HETATM   17  C   UNL     1       4.925  33.477  61.483  1.00  0.00     0.021 A 
HETATM   18  C   UNL     1       5.816  32.587  60.867  1.00  0.00     0.033 A 
ENDBRANCH   9  12
ENDBRANCH   1   5
BRANCH   2  19
HETATM   19  C   UNL     1       8.283  26.258  57.070  1.00  0.00     0.159 C 
BRANCH  19  20
HETATM   20  C   UNL     1       7.129  25.485  56.410  1.00  0.00     0.169 C 
BRANCH  20  21
HETATM   21  O   UNL     1       6.275  24.944  57.426  1.00  0.00    -0.389 OA
HETATM   22  H   UNL     1       5.522  24.527  56.970  1.00  0.00     0.210 HD
ENDBRANCH  20  21
BRANCH  20  23
HETATM   23  C   UNL     1       7.634  24.377  55.507  1.00  0.00    -0.028 A 
HETATM   24  C   UNL     1       8.711  23.572  55.915  1.00  0.00     0.013 A 
HETATM   25  C   UNL     1       9.161  22.528  55.104  1.00  0.00     0.043 A 
HETATM   26  C   UNL     1       8.535  22.285  53.887  1.00  0.00     0.116 A 
HETATM   27  F   UNL     1       8.964  21.278  53.115  1.00  0.00    -0.206 F 
HETATM   28  C   UNL     1       7.470  23.069  53.463  1.00  0.00     0.043 A 
HETATM   29  C   UNL     1       7.020  24.115  54.270  1.00  0.00     0.013 A 
ENDBRANCH  20  23
ENDBRANCH  19  20
ENDBRANCH   2  19
TORSDOF 6
ENDMDL
MODEL 10
REMARK VINA RESULT:      -8.4      5.596     10.032
REMARK  6 active torsions:
REMARK  status: ('A' for Active; 'I' for Inactive)
REMARK    1  A    between atoms: N_4  and  C_5 
REMARK    2  A    between atoms: C_14  and  C_15 
REMARK       I    between atoms: C_15  and  N_16 
REMARK    3  A    between atoms: N_16  and  C_17 
REMARK    4  A    between atoms: C_17  and  C_18 
REMARK    5  A    between atoms: C_18  and  O_19 
REMARK    6  A    between atoms: C_18  and  C_20 
ROOT
HETATM    1  C   UNL     1       7.421  28.678  57.088  1.00  0.00     0.255 C 
HETATM    2  N   UNL     1       7.961  29.916  57.353  1.00  0.00    -0.354 N 
HETATM    3  O   UNL     1       7.642  27.702  57.799  1.00  0.00    -0.268 OA
HETATM    4  H   UNL     1       7.981  30.602  56.612  1.00  0.00     0.162 HD
ENDROOT
BRANCH   1   5
HETATM    5  C   UNL     1       6.600  28.584  55.886  1.00  0.00     0.082 C 
HETATM    6  C   UNL     1       5.243  28.980  55.787  1.00  0.00     0.069 C 
HETATM    7  C   UNL     1       4.366  29.527  56.855  1.00  0.00     0.073 C 
HETATM    8  N   UNL     1       4.766  28.834  54.552  1.00  0.00    -0.171 NA
HETATM    9  N   UNL     1       5.771  28.271  53.837  1.00  0.00    -0.237 N 
HETATM   10  C   UNL     1       6.945  28.205  54.588  1.00  0.00     0.050 C 
HETATM   11  C   UNL     1       8.289  27.917  54.017  1.00  0.00     0.071 C 
BRANCH   9  12
HETATM   12  C   UNL     1       5.496  27.866  52.492  1.00  0.00     0.058 A 
HETATM   13  C   UNL     1       5.310  28.860  51.513  1.00  0.00     0.033 A 
HETATM   14  C   UNL     1       5.045  28.516  50.185  1.00  0.00     0.021 A 
HETATM   15  C   UNL     1       4.941  27.176  49.829  1.00  0.00     0.011 A 
HETATM   16 BR   UNL     1       4.579  26.703  48.036  1.00  0.00    -0.051 Br
HETATM   17  C   UNL     1       5.094  26.179  50.791  1.00  0.00     0.021 A 
HETATM   18  C   UNL     1       5.367  26.522  52.123  1.00  0.00     0.033 A 
ENDBRANCH   9  12
ENDBRANCH   1   5
BRANCH   2  19
HETATM   19  C   UNL     1       8.931  30.089  58.425  1.00  0.00     0.159 C 
BRANCH  19  20
HETATM   20  C   UNL     1       9.069  31.563  58.840  1.00  0.00     0.169 C 
BRANCH  20  21
HETATM   21  O   UNL     1      10.406  32.009  58.577  1.00  0.00    -0.389 OA
HETATM   22  H   UNL     1      10.871  32.030  59.433  1.00  0.00     0.210 HD
ENDBRANCH  20  21
BRANCH  20  23
HETATM   23  C   UNL     1       8.727  31.774  60.301  1.00  0.00    -0.028 A 
HETATM   24  C   UNL     1       7.923  32.861  60.687  1.00  0.00     0.013 A 
HETATM   25  C   UNL     1       7.576  33.044  62.027  1.00  0.00     0.043 A 
HETATM   26  C   UNL     1       8.028  32.142  62.983  1.00  0.00     0.116 A 
HETATM   27  F   UNL     1       7.688  32.317  64.266  1.00  0.00    -0.206 F 
HETATM   28  C   UNL     1       8.826  31.063  62.626  1.00  0.00     0.043 A 
HETATM   29  C   UNL     1       9.178  30.879  61.287  1.00  0.00     0.013 A 
ENDBRANCH  20  23
ENDBRANCH  19  20
ENDBRANCH   2  19
TORSDOF 6
ENDMDL
