MODEL 1
REMARK VINA RESULT:      -9.9      0.000      0.000
REMARK  10 active torsions:
REMARK  status: ('A' for Active; 'I' for Inactive)
REMARK    1  A    between atoms: C_2  and  O_3 
REMARK    2  A    between atoms: O_3  and  C_4 
REMARK    3  A    between atoms: C_6  and  O_7 
REMARK    4  A    between atoms: O_7  and  C_8 
REMARK    5  A    between atoms: C_11  and  C_12 
REMARK       I    between atoms: C_12  and  N_13 
REMARK    6  A    between atoms: N_13  and  C_14 
REMARK    7  A    between atoms: C_14  and  N_15 
REMARK    8  A    between atoms: N_15  and  C_16 
REMARK    9  A    between atoms: C_18  and  C_19 
REMARK   10  A    between atoms: C_28  and  O_29 
ROOT
HETATM    1  N   UNL     1       8.362  28.705  58.368  1.00  0.00    -0.333 N 
HETATM    2  H   UNL     1       8.559  28.182  59.224  1.00  0.00     0.168 HD
ENDROOT
BRANCH   1   3
HETATM    3  C   UNL     1       9.011  29.915  58.312  1.00  0.00     0.179 C 
HETATM    4  S   UNL     1      10.259  30.403  57.311  1.00  0.00    -0.040 SA
BRANCH   3   5
HETATM    5  N   UNL     1       8.575  30.861  59.224  1.00  0.00    -0.299 N 
HETATM    6  C   UNL     1       8.662  30.846  60.611  1.00  0.00     0.258 C 
HETATM    7  O   UNL     1       9.359  30.045  61.230  1.00  0.00    -0.267 OA
HETATM    8  H   UNL     1       8.025  31.578  58.775  1.00  0.00     0.171 HD
BRANCH   6   9
HETATM    9  C   UNL     1       7.854  31.864  61.349  1.00  0.00     0.037 A 
HETATM   10  C   UNL     1       8.116  32.041  62.716  1.00  0.00     0.054 A 
HETATM   11  C   UNL     1       7.360  32.941  63.467  1.00  0.00     0.072 A 
HETATM   12  C   UNL     1       6.324  33.655  62.855  1.00  0.00     0.073 A 
HETATM   13  C   UNL     1       6.063  33.499  61.496  1.00  0.00     0.072 A 
HETATM   14  C   UNL     1       6.842  32.619  60.742  1.00  0.00     0.054 A 
BRANCH  11  15
HETATM   15  O   UNL     1       7.514  33.201  64.802  1.00  0.00    -0.351 OA
BRANCH  15  16
HETATM   16  C   UNL     1       6.408  33.793  65.482  1.00  0.00     0.171 C 
HETATM   17  C   UNL     1       6.864  34.153  66.884  1.00  0.00     0.034 C 
ENDBRANCH  15  16
ENDBRANCH  11  15
BRANCH  13  18
HETATM   18  O   UNL     1       5.089  34.143  60.784  1.00  0.00    -0.351 OA
BRANCH  18  19
HETATM   19  C   UNL     1       4.426  33.391  59.768  1.00  0.00     0.171 C 
HETATM   20  C   UNL     1       3.247  32.679  60.408  1.00  0.00     0.034 C 
ENDBRANCH  18  19
ENDBRANCH  13  18
ENDBRANCH   6   9
ENDBRANCH   3   5
ENDBRANCH   1   3
BRANCH   1  21
HETATM   21  C   UNL     1       7.503  28.060  57.450  1.00  0.00     0.035 A 
HETATM   22  C   UNL     1       7.845  26.756  57.058  1.00  0.00     0.046 A 
HETATM   23  C   UNL     1       7.038  26.015  56.173  1.00  0.00     0.036 A 
HETATM   24  C   UNL     1       5.839  26.606  55.727  1.00  0.00     0.084 A 
HETATM   25  C   UNL     1       5.467  27.897  56.121  1.00  0.00    -0.026 A 
HETATM   26  C   UNL     1       4.185  28.512  55.639  1.00  0.00     0.051 C 
HETATM   27  C   UNL     1       6.311  28.612  56.981  1.00  0.00     0.039 A 
BRANCH  23  28
HETATM   28  C   UNL     1       7.402  24.656  55.716  1.00  0.00     0.112 A 
HETATM   29  S   UNL     1       8.159  23.505  56.744  1.00  0.00    -0.067 SA
HETATM   30  C   UNL     1       8.262  22.385  55.442  1.00  0.00     0.035 A 
HETATM   31  C   UNL     1       7.706  22.966  54.303  1.00  0.00     0.075 A 
HETATM   32  C   UNL     1       8.799  21.087  55.426  1.00  0.00     0.021 A 
HETATM   33  N   UNL     1       7.237  24.258  54.466  1.00  0.00    -0.239 NA
HETATM   34  C   UNL     1       7.674  22.221  53.107  1.00  0.00     0.033 A 
HETATM   35  C   UNL     1       8.201  20.926  53.080  1.00  0.00     0.002 A 
HETATM   36  C   UNL     1       8.759  20.370  54.226  1.00  0.00     0.002 A 
ENDBRANCH  23  28
BRANCH  24  37
HETATM   37  O   UNL     1       4.969  25.946  54.890  1.00  0.00    -0.359 OA
HETATM   38  H   UNL     1       5.108  26.287  53.980  1.00  0.00     0.218 HD
ENDBRANCH  24  37
ENDBRANCH   1  21
TORSDOF 10
ENDMDL
MODEL 2
REMARK VINA RESULT:      -9.6      1.639      2.005
REMARK  10 active torsions:
REMARK  status: ('A' for Active; 'I' for Inactive)
REMARK    1  A    between atoms: C_2  and  O_3 
REMARK    2  A    between atoms: O_3  and  C_4 
REMARK    3  A    between atoms: C_6  and  O_7 
REMARK    4  A    between atoms: O_7  and  C_8 
REMARK    5  A    between atoms: C_11  and  C_12 
REMARK       I    between atoms: C_12  and  N_13 
REMARK    6  A    between atoms: N_13  and  C_14 
REMARK    7  A    between atoms: C_14  and  N_15 
REMARK    8  A    between atoms: N_15  and  C_16 
REMARK    9  A    between atoms: C_18  and  C_19 
REMARK   10  A    between atoms: C_28  and  O_29 
ROOT
HETATM    1  N   UNL     1       7.887  29.125  58.827  1.00  0.00    -0.333 N 
HETATM    2  H   UNL     1       8.344  28.464  59.459  1.00  0.00     0.168 HD
ENDROOT
BRANCH   1   3
HETATM    3  C   UNL     1       8.161  30.438  59.125  1.00  0.00     0.179 C 
HETATM    4  S   UNL     1       9.505  31.355  58.737  1.00  0.00    -0.040 SA
BRANCH   3   5
HETATM    5  N   UNL     1       7.188  31.090  59.863  1.00  0.00    -0.299 N 
HETATM    6  C   UNL     1       6.363  32.143  59.488  1.00  0.00     0.258 C 
HETATM    7  O   UNL     1       6.240  32.517  58.324  1.00  0.00    -0.267 OA
HETATM    8  H   UNL     1       7.204  30.799  60.829  1.00  0.00     0.171 HD
BRANCH   6   9
HETATM    9  C   UNL     1       5.608  32.831  60.580  1.00  0.00     0.037 A 
HETATM   10  C   UNL     1       5.750  32.336  61.885  1.00  0.00     0.054 A 
HETATM   11  C   UNL     1       5.032  32.908  62.936  1.00  0.00     0.072 A 
HETATM   12  C   UNL     1       4.154  33.966  62.680  1.00  0.00     0.073 A 
HETATM   13  C   UNL     1       4.016  34.476  61.392  1.00  0.00     0.072 A 
HETATM   14  C   UNL     1       4.759  33.921  60.348  1.00  0.00     0.054 A 
BRANCH  11  15
HETATM   15  O   UNL     1       5.079  32.516  64.246  1.00  0.00    -0.351 OA
BRANCH  15  16
HETATM   16  C   UNL     1       5.500  33.489  65.202  1.00  0.00     0.171 C 
HETATM   17  C   UNL     1       7.014  33.576  65.141  1.00  0.00     0.034 C 
ENDBRANCH  15  16
ENDBRANCH  11  15
BRANCH  13  18
HETATM   18  O   UNL     1       3.201  35.509  61.018  1.00  0.00    -0.351 OA
BRANCH  18  19
HETATM   19  C   UNL     1       3.796  36.805  60.938  1.00  0.00     0.171 C 
HETATM   20  C   UNL     1       3.435  37.563  62.204  1.00  0.00     0.034 C 
ENDBRANCH  18  19
ENDBRANCH  13  18
ENDBRANCH   6   9
ENDBRANCH   3   5
ENDBRANCH   1   3
BRANCH   1  21
HETATM   21  C   UNL     1       7.114  28.541  57.798  1.00  0.00     0.035 A 
HETATM   22  C   UNL     1       7.504  27.270  57.345  1.00  0.00     0.046 A 
HETATM   23  C   UNL     1       6.782  26.588  56.346  1.00  0.00     0.036 A 
HETATM   24  C   UNL     1       5.615  27.200  55.847  1.00  0.00     0.084 A 
HETATM   25  C   UNL     1       5.194  28.456  56.300  1.00  0.00    -0.026 A 
HETATM   26  C   UNL     1       3.947  29.095  55.760  1.00  0.00     0.051 C 
HETATM   27  C   UNL     1       5.956  29.115  57.274  1.00  0.00     0.039 A 
BRANCH  23  28
HETATM   28  C   UNL     1       7.200  25.269  55.825  1.00  0.00     0.112 A 
HETATM   29  S   UNL     1       7.987  24.094  56.804  1.00  0.00    -0.067 SA
HETATM   30  C   UNL     1       8.146  23.047  55.448  1.00  0.00     0.035 A 
HETATM   31  C   UNL     1       7.582  23.665  54.332  1.00  0.00     0.075 A 
HETATM   32  C   UNL     1       8.730  21.772  55.373  1.00  0.00     0.021 A 
HETATM   33  N   UNL     1       7.064  24.929  54.555  1.00  0.00    -0.239 NA
HETATM   34  C   UNL     1       7.590  22.981  53.100  1.00  0.00     0.033 A 
HETATM   35  C   UNL     1       8.164  21.710  53.013  1.00  0.00     0.002 A 
HETATM   36  C   UNL     1       8.729  21.116  54.137  1.00  0.00     0.002 A 
ENDBRANCH  23  28
BRANCH  24  37
HETATM   37  O   UNL     1       4.825  26.595  54.897  1.00  0.00    -0.359 OA
HETATM   38  H   UNL     1       5.175  26.837  54.013  1.00  0.00     0.218 HD
ENDBRANCH  24  37
ENDBRANCH   1  21
TORSDOF 10
ENDMDL
MODEL 3
REMARK VINA RESULT:      -9.6      0.671      2.595
REMARK  10 active torsions:
REMARK  status: ('A' for Active; 'I' for Inactive)
REMARK    1  A    between atoms: C_2  and  O_3 
REMARK    2  A    between atoms: O_3  and  C_4 
REMARK    3  A    between atoms: C_6  and  O_7 
REMARK    4  A    between atoms: O_7  and  C_8 
REMARK    5  A    between atoms: C_11  and  C_12 
REMARK       I    between atoms: C_12  and  N_13 
REMARK    6  A    between atoms: N_13  and  C_14 
REMARK    7  A    between atoms: C_14  and  N_15 
REMARK    8  A    between atoms: N_15  and  C_16 
REMARK    9  A    between atoms: C_18  and  C_19 
REMARK   10  A    between atoms: C_28  and  O_29 
ROOT
HETATM    1  N   UNL     1       8.161  28.653  58.320  1.00  0.00    -0.333 N 
HETATM    2  H   UNL     1       8.312  28.122  59.181  1.00  0.00     0.168 HD
ENDROOT
BRANCH   1   3
HETATM    3  C   UNL     1       8.809  29.865  58.311  1.00  0.00     0.179 C 
HETATM    4  S   UNL     1      10.097  30.371  57.373  1.00  0.00    -0.040 SA
BRANCH   3   5
HETATM    5  N   UNL     1       8.331  30.795  59.219  1.00  0.00    -0.299 N 
HETATM    6  C   UNL     1       8.474  30.824  60.601  1.00  0.00     0.258 C 
HETATM    7  O   UNL     1       9.261  30.101  61.208  1.00  0.00    -0.267 OA
HETATM    8  H   UNL     1       7.706  31.452  58.776  1.00  0.00     0.171 HD
BRANCH   6   9
HETATM    9  C   UNL     1       7.613  31.791  61.348  1.00  0.00     0.037 A 
HETATM   10  C   UNL     1       6.646  32.502  60.622  1.00  0.00     0.054 A 
HETATM   11  C   UNL     1       5.848  33.453  61.258  1.00  0.00     0.072 A 
HETATM   12  C   UNL     1       6.027  33.708  62.622  1.00  0.00     0.073 A 
HETATM   13  C   UNL     1       6.973  32.998  63.357  1.00  0.00     0.072 A 
HETATM   14  C   UNL     1       7.750  32.026  62.722  1.00  0.00     0.054 A 
BRANCH  11  15
HETATM   15  O   UNL     1       4.876  34.212  60.664  1.00  0.00    -0.351 OA
BRANCH  15  16
HETATM   16  C   UNL     1       3.698  34.474  61.425  1.00  0.00     0.171 C 
HETATM   17  C   UNL     1       3.316  35.926  61.204  1.00  0.00     0.034 C 
ENDBRANCH  15  16
ENDBRANCH  11  15
BRANCH  13  18
HETATM   18  O   UNL     1       7.235  33.149  64.691  1.00  0.00    -0.351 OA
BRANCH  18  19
HETATM   19  C   UNL     1       6.306  33.922  65.449  1.00  0.00     0.171 C 
HETATM   20  C   UNL     1       6.873  34.095  66.848  1.00  0.00     0.034 C 
ENDBRANCH  18  19
ENDBRANCH  13  18
ENDBRANCH   6   9
ENDBRANCH   3   5
ENDBRANCH   1   3
BRANCH   1  21
HETATM   21  C   UNL     1       7.357  28.015  57.350  1.00  0.00     0.035 A 
HETATM   22  C   UNL     1       7.708  26.705  56.984  1.00  0.00     0.046 A 
HETATM   23  C   UNL     1       6.952  25.970  56.050  1.00  0.00     0.036 A 
HETATM   24  C   UNL     1       5.791  26.573  55.526  1.00  0.00     0.084 A 
HETATM   25  C   UNL     1       5.408  27.869  55.893  1.00  0.00    -0.026 A 
HETATM   26  C   UNL     1       4.166  28.497  55.329  1.00  0.00     0.051 C 
HETATM   27  C   UNL     1       6.203  28.578  56.804  1.00  0.00     0.039 A 
BRANCH  23  28
HETATM   28  C   UNL     1       7.331  24.607  55.620  1.00  0.00     0.112 A 
HETATM   29  S   UNL     1       8.055  23.468  56.685  1.00  0.00    -0.067 SA
HETATM   30  C   UNL     1       8.199  22.334  55.400  1.00  0.00     0.035 A 
HETATM   31  C   UNL     1       7.679  22.900  54.237  1.00  0.00     0.075 A 
HETATM   32  C   UNL     1       8.736  21.036  55.415  1.00  0.00     0.021 A 
HETATM   33  N   UNL     1       7.205  24.194  54.370  1.00  0.00    -0.239 NA
HETATM   34  C   UNL     1       7.685  22.142  53.049  1.00  0.00     0.033 A 
HETATM   35  C   UNL     1       8.212  20.847  53.053  1.00  0.00     0.002 A 
HETATM   36  C   UNL     1       8.734  20.304  54.223  1.00  0.00     0.002 A 
ENDBRANCH  23  28
BRANCH  24  37
HETATM   37  O   UNL     1       4.970  25.920  54.637  1.00  0.00    -0.359 OA
HETATM   38  H   UNL     1       5.364  26.007  53.742  1.00  0.00     0.218 HD
ENDBRANCH  24  37
ENDBRANCH   1  21
TORSDOF 10
ENDMDL
MODEL 4
REMARK VINA RESULT:      -9.5      1.672      3.161
REMARK  10 active torsions:
REMARK  status: ('A' for Active; 'I' for Inactive)
REMARK    1  A    between atoms: C_2  and  O_3 
REMARK    2  A    between atoms: O_3  and  C_4 
REMARK    3  A    between atoms: C_6  and  O_7 
REMARK    4  A    between atoms: O_7  and  C_8 
REMARK    5  A    between atoms: C_11  and  C_12 
REMARK       I    between atoms: C_12  and  N_13 
REMARK    6  A    between atoms: N_13  and  C_14 
REMARK    7  A    between atoms: C_14  and  N_15 
REMARK    8  A    between atoms: N_15  and  C_16 
REMARK    9  A    between atoms: C_18  and  C_19 
REMARK   10  A    between atoms: C_28  and  O_29 
ROOT
HETATM    1  N   UNL     1       7.956  29.262  58.888  1.00  0.00    -0.333 N 
HETATM    2  H   UNL     1       8.495  28.595  59.445  1.00  0.00     0.168 HD
ENDROOT
BRANCH   1   3
HETATM    3  C   UNL     1       8.158  30.569  59.262  1.00  0.00     0.179 C 
HETATM    4  S   UNL     1       9.482  31.555  58.993  1.00  0.00    -0.040 SA
BRANCH   3   5
HETATM    5  N   UNL     1       7.120  31.146  59.973  1.00  0.00    -0.299 N 
HETATM    6  C   UNL     1       6.299  32.208  59.618  1.00  0.00     0.258 C 
HETATM    7  O   UNL     1       6.249  32.665  58.478  1.00  0.00    -0.267 OA
HETATM    8  H   UNL     1       7.075  30.784  60.914  1.00  0.00     0.171 HD
BRANCH   6   9
HETATM    9  C   UNL     1       5.453  32.799  60.699  1.00  0.00     0.037 A 
HETATM   10  C   UNL     1       4.548  33.810  60.342  1.00  0.00     0.054 A 
HETATM   11  C   UNL     1       3.768  34.432  61.318  1.00  0.00     0.072 A 
HETATM   12  C   UNL     1       3.905  34.057  62.658  1.00  0.00     0.073 A 
HETATM   13  C   UNL     1       4.788  33.044  63.023  1.00  0.00     0.072 A 
HETATM   14  C   UNL     1       5.546  32.404  62.040  1.00  0.00     0.054 A 
BRANCH  11  15
HETATM   15  O   UNL     1       2.855  35.429  61.100  1.00  0.00    -0.351 OA
BRANCH  15  16
HETATM   16  C   UNL     1       3.275  36.766  61.369  1.00  0.00     0.171 C 
HETATM   17  C   UNL     1       3.115  37.569  60.092  1.00  0.00     0.034 C 
ENDBRANCH  15  16
ENDBRANCH  11  15
BRANCH  13  18
HETATM   18  O   UNL     1       5.004  32.583  64.292  1.00  0.00    -0.351 OA
BRANCH  18  19
HETATM   19  C   UNL     1       5.332  33.553  65.287  1.00  0.00     0.171 C 
HETATM   20  C   UNL     1       6.846  33.640  65.373  1.00  0.00     0.034 C 
ENDBRANCH  18  19
ENDBRANCH  13  18
ENDBRANCH   6   9
ENDBRANCH   3   5
ENDBRANCH   1   3
BRANCH   1  21
HETATM   21  C   UNL     1       7.162  28.693  57.867  1.00  0.00     0.035 A 
HETATM   22  C   UNL     1       7.535  27.424  57.396  1.00  0.00     0.046 A 
HETATM   23  C   UNL     1       6.791  26.756  56.402  1.00  0.00     0.036 A 
HETATM   24  C   UNL     1       5.621  27.382  55.928  1.00  0.00     0.084 A 
HETATM   25  C   UNL     1       5.218  28.637  56.399  1.00  0.00    -0.026 A 
HETATM   26  C   UNL     1       3.967  29.290  55.884  1.00  0.00     0.051 C 
HETATM   27  C   UNL     1       6.001  29.281  57.366  1.00  0.00     0.039 A 
BRANCH  23  28
HETATM   28  C   UNL     1       7.191  25.439  55.863  1.00  0.00     0.112 A 
HETATM   29  S   UNL     1       8.006  24.259  56.812  1.00  0.00    -0.067 SA
HETATM   30  C   UNL     1       8.121  23.218  55.447  1.00  0.00     0.035 A 
HETATM   31  C   UNL     1       7.523  23.841  54.352  1.00  0.00     0.075 A 
HETATM   32  C   UNL     1       8.700  21.942  55.348  1.00  0.00     0.021 A 
HETATM   33  N   UNL     1       7.015  25.105  54.596  1.00  0.00    -0.239 NA
HETATM   34  C   UNL     1       7.492  23.163  53.117  1.00  0.00     0.033 A 
HETATM   35  C   UNL     1       8.061  21.891  53.007  1.00  0.00     0.002 A 
HETATM   36  C   UNL     1       8.660  21.291  54.110  1.00  0.00     0.002 A 
ENDBRANCH  23  28
BRANCH  24  37
HETATM   37  O   UNL     1       4.811  26.792  54.985  1.00  0.00    -0.359 OA
HETATM   38  H   UNL     1       5.261  26.859  54.115  1.00  0.00     0.218 HD
ENDBRANCH  24  37
ENDBRANCH   1  21
TORSDOF 10
ENDMDL
MODEL 5
REMARK VINA RESULT:      -9.4      1.908      3.142
REMARK  10 active torsions:
REMARK  status: ('A' for Active; 'I' for Inactive)
REMARK    1  A    between atoms: C_2  and  O_3 
REMARK    2  A    between atoms: O_3  and  C_4 
REMARK    3  A    between atoms: C_6  and  O_7 
REMARK    4  A    between atoms: O_7  and  C_8 
REMARK    5  A    between atoms: C_11  and  C_12 
REMARK       I    between atoms: C_12  and  N_13 
REMARK    6  A    between atoms: N_13  and  C_14 
REMARK    7  A    between atoms: C_14  and  N_15 
REMARK    8  A    between atoms: N_15  and  C_16 
REMARK    9  A    between atoms: C_18  and  C_19 
REMARK   10  A    between atoms: C_28  and  O_29 
ROOT
HETATM    1  N   UNL     1       7.097  29.640  55.654  1.00  0.00    -0.333 N 
HETATM    2  H   UNL     1       7.085  30.567  55.225  1.00  0.00     0.168 HD
ENDROOT
BRANCH   1   3
HETATM    3  C   UNL     1       7.798  29.597  56.835  1.00  0.00     0.179 C 
HETATM    4  S   UNL     1       9.287  28.908  57.160  1.00  0.00    -0.040 SA
BRANCH   3   5
HETATM    5  N   UNL     1       7.174  30.203  57.912  1.00  0.00    -0.299 N 
HETATM    6  C   UNL     1       6.250  31.241  57.920  1.00  0.00     0.258 C 
HETATM    7  O   UNL     1       5.681  31.638  56.905  1.00  0.00    -0.267 OA
HETATM    8  H   UNL     1       7.567  29.890  58.787  1.00  0.00     0.171 HD
BRANCH   6   9
HETATM    9  C   UNL     1       5.963  31.880  59.240  1.00  0.00     0.037 A 
HETATM   10  C   UNL     1       4.632  32.218  59.527  1.00  0.00     0.054 A 
HETATM   11  C   UNL     1       4.312  32.862  60.723  1.00  0.00     0.072 A 
HETATM   12  C   UNL     1       5.328  33.187  61.628  1.00  0.00     0.073 A 
HETATM   13  C   UNL     1       6.651  32.844  61.361  1.00  0.00     0.072 A 
HETATM   14  C   UNL     1       6.963  32.173  60.177  1.00  0.00     0.054 A 
BRANCH  11  15
HETATM   15  O   UNL     1       3.059  33.246  61.117  1.00  0.00    -0.351 OA
BRANCH  15  16
HETATM   16  C   UNL     1       2.962  34.411  61.935  1.00  0.00     0.171 C 
HETATM   17  C   UNL     1       2.095  34.067  63.132  1.00  0.00     0.034 C 
ENDBRANCH  15  16
ENDBRANCH  11  15
BRANCH  13  18
HETATM   18  O   UNL     1       7.727  33.096  62.167  1.00  0.00    -0.351 OA
BRANCH  18  19
HETATM   19  C   UNL     1       7.793  32.381  63.401  1.00  0.00     0.171 C 
HETATM   20  C   UNL     1       7.546  33.369  64.528  1.00  0.00     0.034 C 
ENDBRANCH  18  19
ENDBRANCH  13  18
ENDBRANCH   6   9
ENDBRANCH   3   5
ENDBRANCH   1   3
BRANCH   1  21
HETATM   21  C   UNL     1       6.382  28.642  54.954  1.00  0.00     0.035 A 
HETATM   22  C   UNL     1       6.826  27.317  55.093  1.00  0.00     0.046 A 
HETATM   23  C   UNL     1       6.163  26.245  54.464  1.00  0.00     0.036 A 
HETATM   24  C   UNL     1       4.997  26.537  53.726  1.00  0.00     0.084 A 
HETATM   25  C   UNL     1       4.523  27.847  53.593  1.00  0.00    -0.026 A 
HETATM   26  C   UNL     1       3.278  28.142  52.806  1.00  0.00     0.051 C 
HETATM   27  C   UNL     1       5.228  28.889  54.211  1.00  0.00     0.039 A 
BRANCH  23  28
HETATM   28  C   UNL     1       6.640  24.849  54.562  1.00  0.00     0.112 A 
HETATM   29  S   UNL     1       6.954  24.082  56.069  1.00  0.00    -0.067 SA
HETATM   30  C   UNL     1       7.496  22.667  55.254  1.00  0.00     0.035 A 
HETATM   31  C   UNL     1       7.397  22.873  53.878  1.00  0.00     0.075 A 
HETATM   32  C   UNL     1       7.977  21.461  55.790  1.00  0.00     0.021 A 
HETATM   33  N   UNL     1       6.926  24.118  53.499  1.00  0.00    -0.239 NA
HETATM   34  C   UNL     1       7.782  21.835  53.006  1.00  0.00     0.033 A 
HETATM   35  C   UNL     1       8.258  20.628  53.528  1.00  0.00     0.002 A 
HETATM   36  C   UNL     1       8.356  20.448  54.904  1.00  0.00     0.002 A 
ENDBRANCH  23  28
BRANCH  24  37
HETATM   37  O   UNL     1       4.262  25.553  53.108  1.00  0.00    -0.359 OA
HETATM   38  H   UNL     1       3.909  25.921  52.269  1.00  0.00     0.218 HD
ENDBRANCH  24  37
ENDBRANCH   1  21
TORSDOF 10
ENDMDL
MODEL 6
REMARK VINA RESULT:      -9.3      2.374     11.056
REMARK  10 active torsions:
REMARK  status: ('A' for Active; 'I' for Inactive)
REMARK    1  A    between atoms: C_2  and  O_3 
REMARK    2  A    between atoms: O_3  and  C_4 
REMARK    3  A    between atoms: C_6  and  O_7 
REMARK    4  A    between atoms: O_7  and  C_8 
REMARK    5  A    between atoms: C_11  and  C_12 
REMARK       I    between atoms: C_12  and  N_13 
REMARK    6  A    between atoms: N_13  and  C_14 
REMARK    7  A    between atoms: C_14  and  N_15 
REMARK    8  A    between atoms: N_15  and  C_16 
REMARK    9  A    between atoms: C_18  and  C_19 
REMARK   10  A    between atoms: C_28  and  O_29 
ROOT
HETATM    1  N   UNL     1       8.417  29.488  58.414  1.00  0.00    -0.333 N 
HETATM    2  H   UNL     1       8.693  28.921  59.218  1.00  0.00     0.168 HD
ENDROOT
BRANCH   1   3
HETATM    3  C   UNL     1       9.021  29.097  57.243  1.00  0.00     0.179 C 
HETATM    4  S   UNL     1      10.426  29.663  56.534  1.00  0.00    -0.040 SA
BRANCH   3   5
HETATM    5  N   UNL     1       8.362  28.100  56.545  1.00  0.00    -0.299 N 
HETATM    6  C   UNL     1       7.941  26.852  56.987  1.00  0.00     0.258 C 
HETATM    7  O   UNL     1       7.914  26.536  58.175  1.00  0.00    -0.267 OA
HETATM    8  H   UNL     1       8.310  28.314  55.560  1.00  0.00     0.171 HD
BRANCH   6   9
HETATM    9  C   UNL     1       7.512  25.873  55.942  1.00  0.00     0.037 A 
HETATM   10  C   UNL     1       6.485  26.260  55.067  1.00  0.00     0.054 A 
HETATM   11  C   UNL     1       6.010  25.370  54.104  1.00  0.00     0.072 A 
HETATM   12  C   UNL     1       6.549  24.082  54.024  1.00  0.00     0.073 A 
HETATM   13  C   UNL     1       7.579  23.691  54.876  1.00  0.00     0.072 A 
HETATM   14  C   UNL     1       8.072  24.596  55.820  1.00  0.00     0.054 A 
BRANCH  11  15
HETATM   15  O   UNL     1       5.015  25.623  53.199  1.00  0.00    -0.351 OA
BRANCH  15  16
HETATM   16  C   UNL     1       4.594  26.979  53.057  1.00  0.00     0.171 C 
HETATM   17  C   UNL     1       5.164  27.508  51.753  1.00  0.00     0.034 C 
ENDBRANCH  15  16
ENDBRANCH  11  15
BRANCH  13  18
HETATM   18  O   UNL     1       8.193  22.469  54.890  1.00  0.00    -0.351 OA
BRANCH  18  19
HETATM   19  C   UNL     1       8.709  21.990  53.648  1.00  0.00     0.171 C 
HETATM   20  C   UNL     1       7.964  20.714  53.295  1.00  0.00     0.034 C 
ENDBRANCH  18  19
ENDBRANCH  13  18
ENDBRANCH   6   9
ENDBRANCH   3   5
ENDBRANCH   1   3
BRANCH   1  21
HETATM   21  C   UNL     1       7.477  30.507  58.688  1.00  0.00     0.035 A 
HETATM   22  C   UNL     1       7.439  31.010  59.998  1.00  0.00     0.046 A 
HETATM   23  C   UNL     1       6.561  32.049  60.365  1.00  0.00     0.036 A 
HETATM   24  C   UNL     1       5.751  32.610  59.358  1.00  0.00     0.084 A 
HETATM   25  C   UNL     1       5.788  32.139  58.040  1.00  0.00    -0.026 A 
HETATM   26  C   UNL     1       4.920  32.749  56.977  1.00  0.00     0.051 C 
HETATM   27  C   UNL     1       6.654  31.085  57.721  1.00  0.00     0.039 A 
BRANCH  23  28
HETATM   28  C   UNL     1       6.476  32.563  61.749  1.00  0.00     0.112 A 
HETATM   29  S   UNL     1       7.841  32.649  62.791  1.00  0.00    -0.067 SA
HETATM   30  C   UNL     1       6.848  33.225  64.072  1.00  0.00     0.035 A 
HETATM   31  C   UNL     1       5.533  33.317  63.617  1.00  0.00     0.075 A 
HETATM   32  C   UNL     1       7.203  33.567  65.387  1.00  0.00     0.021 A 
HETATM   33  N   UNL     1       5.332  32.924  62.305  1.00  0.00    -0.239 NA
HETATM   34  C   UNL     1       4.538  33.779  64.502  1.00  0.00     0.033 A 
HETATM   35  C   UNL     1       4.880  34.127  65.812  1.00  0.00     0.002 A 
HETATM   36  C   UNL     1       6.196  34.019  66.248  1.00  0.00     0.002 A 
ENDBRANCH  23  28
BRANCH  24  37
HETATM   37  O   UNL     1       4.890  33.652  59.613  1.00  0.00    -0.359 OA
HETATM   38  H   UNL     1       5.391  34.490  59.513  1.00  0.00     0.218 HD
ENDBRANCH  24  37
ENDBRANCH   1  21
TORSDOF 10
ENDMDL
MODEL 7
REMARK VINA RESULT:      -9.2      2.484     10.872
REMARK  10 active torsions:
REMARK  status: ('A' for Active; 'I' for Inactive)
REMARK    1  A    between atoms: C_2  and  O_3 
REMARK    2  A    between atoms: O_3  and  C_4 
REMARK    3  A    between atoms: C_6  and  O_7 
REMARK    4  A    between atoms: O_7  and  C_8 
REMARK    5  A    between atoms: C_11  and  C_12 
REMARK       I    between atoms: C_12  and  N_13 
REMARK    6  A    between atoms: N_13  and  C_14 
REMARK    7  A    between atoms: C_14  and  N_15 
REMARK    8  A    between atoms: N_15  and  C_16 
REMARK    9  A    between atoms: C_18  and  C_19 
REMARK   10  A    between atoms: C_28  and  O_29 
ROOT
HETATM    1  N   UNL     1       8.545  29.619  58.530  1.00  0.00    -0.333 N 
HETATM    2  H   UNL     1       8.869  29.088  59.341  1.00  0.00     0.168 HD
ENDROOT
BRANCH   1   3
HETATM    3  C   UNL     1       9.145  29.233  57.355  1.00  0.00     0.179 C 
HETATM    4  S   UNL     1      10.583  29.753  56.679  1.00  0.00    -0.040 SA
BRANCH   3   5
HETATM    5  N   UNL     1       8.449  28.287  56.622  1.00  0.00    -0.299 N 
HETATM    6  C   UNL     1       7.932  27.065  57.034  1.00  0.00     0.258 C 
HETATM    7  O   UNL     1       7.839  26.742  58.216  1.00  0.00    -0.267 OA
HETATM    8  H   UNL     1       8.449  28.513  55.638  1.00  0.00     0.171 HD
BRANCH   6   9
HETATM    9  C   UNL     1       7.480  26.127  55.962  1.00  0.00     0.037 A 
HETATM   10  C   UNL     1       8.028  24.835  55.951  1.00  0.00     0.054 A 
HETATM   11  C   UNL     1       7.681  23.932  54.946  1.00  0.00     0.072 A 
HETATM   12  C   UNL     1       6.797  24.326  53.935  1.00  0.00     0.073 A 
HETATM   13  C   UNL     1       6.236  25.600  53.943  1.00  0.00     0.072 A 
HETATM   14  C   UNL     1       6.563  26.491  54.968  1.00  0.00     0.054 A 
BRANCH  11  15
HETATM   15  O   UNL     1       8.146  22.651  54.823  1.00  0.00    -0.351 OA
BRANCH  15  16
HETATM   16  C   UNL     1       8.440  21.946  56.028  1.00  0.00     0.171 C 
HETATM   17  C   UNL     1       7.689  20.628  55.990  1.00  0.00     0.034 C 
ENDBRANCH  15  16
ENDBRANCH  11  15
BRANCH  13  18
HETATM   18  O   UNL     1       5.356  26.098  53.022  1.00  0.00    -0.351 OA
BRANCH  18  19
HETATM   19  C   UNL     1       5.896  26.490  51.759  1.00  0.00     0.171 C 
HETATM   20  C   UNL     1       5.023  25.886  50.672  1.00  0.00     0.034 C 
ENDBRANCH  18  19
ENDBRANCH  13  18
ENDBRANCH   6   9
ENDBRANCH   3   5
ENDBRANCH   1   3
BRANCH   1  21
HETATM   21  C   UNL     1       7.555  30.591  58.801  1.00  0.00     0.035 A 
HETATM   22  C   UNL     1       7.493  31.097  60.109  1.00  0.00     0.046 A 
HETATM   23  C   UNL     1       6.564  32.092  60.473  1.00  0.00     0.036 A 
HETATM   24  C   UNL     1       5.727  32.607  59.464  1.00  0.00     0.084 A 
HETATM   25  C   UNL     1       5.786  32.134  58.148  1.00  0.00    -0.026 A 
HETATM   26  C   UNL     1       4.888  32.696  57.084  1.00  0.00     0.051 C 
HETATM   27  C   UNL     1       6.704  31.124  57.833  1.00  0.00     0.039 A 
BRANCH  23  28
HETATM   28  C   UNL     1       6.454  32.606  61.855  1.00  0.00     0.112 A 
HETATM   29  S   UNL     1       7.805  32.711  62.914  1.00  0.00    -0.067 SA
HETATM   30  C   UNL     1       6.787  33.275  64.182  1.00  0.00     0.035 A 
HETATM   31  C   UNL     1       5.478  33.351  63.709  1.00  0.00     0.075 A 
HETATM   32  C   UNL     1       7.120  33.624  65.501  1.00  0.00     0.021 A 
HETATM   33  N   UNL     1       5.299  32.954  62.395  1.00  0.00    -0.239 NA
HETATM   34  C   UNL     1       4.465  33.801  64.580  1.00  0.00     0.033 A 
HETATM   35  C   UNL     1       4.785  34.156  65.894  1.00  0.00     0.002 A 
HETATM   36  C   UNL     1       6.098  34.064  66.347  1.00  0.00     0.002 A 
ENDBRANCH  23  28
BRANCH  24  37
HETATM   37  O   UNL     1       4.814  33.606  59.716  1.00  0.00    -0.359 OA
HETATM   38  H   UNL     1       4.853  34.246  58.973  1.00  0.00     0.218 HD
ENDBRANCH  24  37
ENDBRANCH   1  21
TORSDOF 10
ENDMDL
MODEL 8
REMARK VINA RESULT:      -9.1      5.336     10.032
REMARK  10 active torsions:
REMARK  status: ('A' for Active; 'I' for Inactive)
REMARK    1  A    between atoms: C_2  and  O_3 
REMARK    2  A    between atoms: O_3  and  C_4 
REMARK    3  A    between atoms: C_6  and  O_7 
REMARK    4  A    between atoms: O_7  and  C_8 
REMARK    5  A    between atoms: C_11  and  C_12 
REMARK       I    between atoms: C_12  and  N_13 
REMARK    6  A    between atoms: N_13  and  C_14 
REMARK    7  A    between atoms: C_14  and  N_15 
REMARK    8  A    between atoms: N_15  and  C_16 
REMARK    9  A    between atoms: C_18  and  C_19 
REMARK   10  A    between atoms: C_28  and  O_29 
ROOT
HETATM    1  N   UNL     1       3.972  28.142  54.516  1.00  0.00    -0.333 N 
HETATM    2  H   UNL     1       3.109  27.603  54.607  1.00  0.00     0.168 HD
ENDROOT
BRANCH   1   3
HETATM    3  C   UNL     1       3.834  29.257  53.724  1.00  0.00     0.179 C 
HETATM    4  S   UNL     1       3.492  30.834  54.164  1.00  0.00    -0.040 SA
BRANCH   3   5
HETATM    5  N   UNL     1       3.990  29.038  52.366  1.00  0.00    -0.299 N 
HETATM    6  C   UNL     1       5.160  28.911  51.627  1.00  0.00     0.258 C 
HETATM    7  O   UNL     1       6.266  28.764  52.143  1.00  0.00    -0.267 OA
HETATM    8  H   UNL     1       3.108  29.103  51.881  1.00  0.00     0.171 HD
BRANCH   6   9
HETATM    9  C   UNL     1       5.028  28.965  50.140  1.00  0.00     0.037 A 
HETATM   10  C   UNL     1       4.899  30.227  49.540  1.00  0.00     0.054 A 
HETATM   11  C   UNL     1       4.724  30.335  48.160  1.00  0.00     0.072 A 
HETATM   12  C   UNL     1       4.658  29.178  47.377  1.00  0.00     0.073 A 
HETATM   13  C   UNL     1       4.800  27.921  47.958  1.00  0.00     0.072 A 
HETATM   14  C   UNL     1       5.005  27.818  49.336  1.00  0.00     0.054 A 
BRANCH  11  15
HETATM   15  O   UNL     1       4.583  31.502  47.458  1.00  0.00    -0.351 OA
BRANCH  15  16
HETATM   16  C   UNL     1       4.910  31.471  46.070  1.00  0.00     0.171 C 
HETATM   17  C   UNL     1       5.752  32.696  45.764  1.00  0.00     0.034 C 
ENDBRANCH  15  16
ENDBRANCH  11  15
BRANCH  13  18
HETATM   18  O   UNL     1       4.764  26.721  47.301  1.00  0.00    -0.351 OA
BRANCH  18  19
HETATM   19  C   UNL     1       3.793  25.771  47.742  1.00  0.00     0.171 C 
HETATM   20  C   UNL     1       2.475  26.102  47.063  1.00  0.00     0.034 C 
ENDBRANCH  18  19
ENDBRANCH  13  18
ENDBRANCH   6   9
ENDBRANCH   3   5
ENDBRANCH   1   3
BRANCH   1  21
HETATM   21  C   UNL     1       5.079  27.637  55.235  1.00  0.00     0.035 A 
HETATM   22  C   UNL     1       5.572  26.378  54.854  1.00  0.00     0.046 A 
HETATM   23  C   UNL     1       6.691  25.800  55.485  1.00  0.00     0.036 A 
HETATM   24  C   UNL     1       7.340  26.551  56.485  1.00  0.00     0.084 A 
HETATM   25  C   UNL     1       6.881  27.817  56.866  1.00  0.00    -0.026 A 
HETATM   26  C   UNL     1       7.586  28.607  57.932  1.00  0.00     0.051 C 
HETATM   27  C   UNL     1       5.747  28.345  56.234  1.00  0.00     0.039 A 
BRANCH  23  28
HETATM   28  C   UNL     1       7.198  24.458  55.127  1.00  0.00     0.112 A 
HETATM   29  S   UNL     1       7.469  23.975  53.499  1.00  0.00    -0.067 SA
HETATM   30  C   UNL     1       7.918  22.399  54.024  1.00  0.00     0.035 A 
HETATM   31  C   UNL     1       7.834  22.347  55.415  1.00  0.00     0.075 A 
HETATM   32  C   UNL     1       8.312  21.287  53.263  1.00  0.00     0.021 A 
HETATM   33  N   UNL     1       7.410  23.514  56.027  1.00  0.00    -0.239 NA
HETATM   34  C   UNL     1       8.167  21.145  56.071  1.00  0.00     0.033 A 
HETATM   35  C   UNL     1       8.566  20.032  55.325  1.00  0.00     0.002 A 
HETATM   36  C   UNL     1       8.634  20.104  53.937  1.00  0.00     0.002 A 
ENDBRANCH  23  28
BRANCH  24  37
HETATM   37  O   UNL     1       8.462  26.086  57.131  1.00  0.00    -0.359 OA
HETATM   38  H   UNL     1       9.249  26.464  56.682  1.00  0.00     0.218 HD
ENDBRANCH  24  37
ENDBRANCH   1  21
TORSDOF 10
ENDMDL
MODEL 9
REMARK VINA RESULT:      -8.8      2.908      4.487
REMARK  10 active torsions:
REMARK  status: ('A' for Active; 'I' for Inactive)
REMARK    1  A    between atoms: C_2  and  O_3 
REMARK    2  A    between atoms: O_3  and  C_4 
REMARK    3  A    between atoms: C_6  and  O_7 
REMARK    4  A    between atoms: O_7  and  C_8 
REMARK    5  A    between atoms: C_11  and  C_12 
REMARK       I    between atoms: C_12  and  N_13 
REMARK    6  A    between atoms: N_13  and  C_14 
REMARK    7  A    between atoms: C_14  and  N_15 
REMARK    8  A    between atoms: N_15  and  C_16 
REMARK    9  A    between atoms: C_18  and  C_19 
REMARK   10  A    between atoms: C_28  and  O_29 
ROOT
HETATM    1  N   UNL     1       4.134  30.575  57.023  1.00  0.00    -0.333 N 
HETATM    2  H   UNL     1       3.367  29.973  56.718  1.00  0.00     0.168 HD
ENDROOT
BRANCH   1   3
HETATM    3  C   UNL     1       3.747  31.875  57.247  1.00  0.00     0.179 C 
HETATM    4  S   UNL     1       3.085  32.981  56.182  1.00  0.00    -0.040 SA
BRANCH   3   5
HETATM    5  N   UNL     1       3.946  32.335  58.537  1.00  0.00    -0.299 N 
HETATM    6  C   UNL     1       3.386  31.882  59.725  1.00  0.00     0.258 C 
HETATM    7  O   UNL     1       2.767  30.824  59.813  1.00  0.00    -0.267 OA
HETATM    8  H   UNL     1       4.487  33.187  58.543  1.00  0.00     0.171 HD
BRANCH   6   9
HETATM    9  C   UNL     1       3.562  32.750  60.929  1.00  0.00     0.037 A 
HETATM   10  C   UNL     1       3.111  34.077  60.851  1.00  0.00     0.054 A 
HETATM   11  C   UNL     1       3.293  34.946  61.926  1.00  0.00     0.072 A 
HETATM   12  C   UNL     1       3.947  34.496  63.078  1.00  0.00     0.073 A 
HETATM   13  C   UNL     1       4.386  33.178  63.174  1.00  0.00     0.072 A 
HETATM   14  C   UNL     1       4.175  32.302  62.107  1.00  0.00     0.054 A 
BRANCH  11  15
HETATM   15  O   UNL     1       2.903  36.257  61.973  1.00  0.00    -0.351 OA
BRANCH  15  16
HETATM   16  C   UNL     1       3.581  37.106  62.899  1.00  0.00     0.171 C 
HETATM   17  C   UNL     1       4.489  38.028  62.104  1.00  0.00     0.034 C 
ENDBRANCH  15  16
ENDBRANCH  11  15
BRANCH  13  18
HETATM   18  O   UNL     1       5.026  32.619  64.246  1.00  0.00    -0.351 OA
BRANCH  18  19
HETATM   19  C   UNL     1       5.791  33.496  65.073  1.00  0.00     0.171 C 
HETATM   20  C   UNL     1       7.254  33.332  64.699  1.00  0.00     0.034 C 
ENDBRANCH  18  19
ENDBRANCH  13  18
ENDBRANCH   6   9
ENDBRANCH   3   5
ENDBRANCH   1   3
BRANCH   1  21
HETATM   21  C   UNL     1       5.386  29.934  57.165  1.00  0.00     0.035 A 
HETATM   22  C   UNL     1       5.661  28.865  56.299  1.00  0.00     0.046 A 
HETATM   23  C   UNL     1       6.892  28.180  56.337  1.00  0.00     0.036 A 
HETATM   24  C   UNL     1       7.869  28.639  57.243  1.00  0.00     0.084 A 
HETATM   25  C   UNL     1       7.625  29.717  58.101  1.00  0.00    -0.026 A 
HETATM   26  C   UNL     1       8.677  30.195  59.060  1.00  0.00     0.051 C 
HETATM   27  C   UNL     1       6.377  30.353  58.052  1.00  0.00     0.039 A 
BRANCH  23  28
HETATM   28  C   UNL     1       7.185  27.025  55.462  1.00  0.00     0.112 A 
HETATM   29  S   UNL     1       7.312  27.166  53.753  1.00  0.00    -0.067 SA
HETATM   30  C   UNL     1       7.552  25.468  53.615  1.00  0.00     0.035 A 
HETATM   31  C   UNL     1       7.523  24.903  54.889  1.00  0.00     0.075 A 
HETATM   32  C   UNL     1       7.749  24.689  52.462  1.00  0.00     0.021 A 
HETATM   33  N   UNL     1       7.298  25.792  55.925  1.00  0.00    -0.239 NA
HETATM   34  C   UNL     1       7.707  23.511  55.020  1.00  0.00     0.033 A 
HETATM   35  C   UNL     1       7.909  22.726  53.881  1.00  0.00     0.002 A 
HETATM   36  C   UNL     1       7.926  23.310  52.618  1.00  0.00     0.002 A 
ENDBRANCH  23  28
BRANCH  24  37
HETATM   37  O   UNL     1       9.113  28.058  57.327  1.00  0.00    -0.359 OA
HETATM   38  H   UNL     1       9.785  28.763  57.204  1.00  0.00     0.218 HD
ENDBRANCH  24  37
ENDBRANCH   1  21
TORSDOF 10
ENDMDL
MODEL 10
REMARK VINA RESULT:      -8.7      2.055      2.650
REMARK  10 active torsions:
REMARK  status: ('A' for Active; 'I' for Inactive)
REMARK    1  A    between atoms: C_2  and  O_3 
REMARK    2  A    between atoms: O_3  and  C_4 
REMARK    3  A    between atoms: C_6  and  O_7 
REMARK    4  A    between atoms: O_7  and  C_8 
REMARK    5  A    between atoms: C_11  and  C_12 
REMARK       I    between atoms: C_12  and  N_13 
REMARK    6  A    between atoms: N_13  and  C_14 
REMARK    7  A    between atoms: C_14  and  N_15 
REMARK    8  A    between atoms: N_15  and  C_16 
REMARK    9  A    between atoms: C_18  and  C_19 
REMARK   10  A    between atoms: C_28  and  O_29 
ROOT
HETATM    1  N   UNL     1       7.005  29.692  55.824  1.00  0.00    -0.333 N 
HETATM    2  H   UNL     1       7.428  30.443  55.275  1.00  0.00     0.168 HD
ENDROOT
BRANCH   1   3
HETATM    3  C   UNL     1       7.200  29.835  57.177  1.00  0.00     0.179 C 
HETATM    4  S   UNL     1       8.311  29.081  58.174  1.00  0.00    -0.040 SA
BRANCH   3   5
HETATM    5  N   UNL     1       6.344  30.724  57.805  1.00  0.00    -0.299 N 
HETATM    6  C   UNL     1       6.643  31.751  58.692  1.00  0.00     0.258 C 
HETATM    7  O   UNL     1       7.787  32.157  58.886  1.00  0.00    -0.267 OA
HETATM    8  H   UNL     1       5.379  30.473  57.653  1.00  0.00     0.171 HD
BRANCH   6   9
HETATM    9  C   UNL     1       5.496  32.362  59.430  1.00  0.00     0.037 A 
HETATM   10  C   UNL     1       5.413  32.136  60.812  1.00  0.00     0.054 A 
HETATM   11  C   UNL     1       4.337  32.641  61.544  1.00  0.00     0.072 A 
HETATM   12  C   UNL     1       3.330  33.358  60.890  1.00  0.00     0.073 A 
HETATM   13  C   UNL     1       3.408  33.601  59.521  1.00  0.00     0.072 A 
HETATM   14  C   UNL     1       4.502  33.120  58.798  1.00  0.00     0.054 A 
BRANCH  11  15
HETATM   15  O   UNL     1       4.140  32.487  62.889  1.00  0.00    -0.351 OA
BRANCH  15  16
HETATM   16  C   UNL     1       5.209  32.873  63.753  1.00  0.00     0.171 C 
HETATM   17  C   UNL     1       4.655  33.856  64.767  1.00  0.00     0.034 C 
ENDBRANCH  15  16
ENDBRANCH  11  15
BRANCH  13  18
HETATM   18  O   UNL     1       2.497  34.294  58.773  1.00  0.00    -0.351 OA
BRANCH  18  19
HETATM   19  C   UNL     1       2.798  34.472  57.388  1.00  0.00     0.171 C 
HETATM   20  C   UNL     1       2.600  35.940  57.052  1.00  0.00     0.034 C 
ENDBRANCH  18  19
ENDBRANCH  13  18
ENDBRANCH   6   9
ENDBRANCH   3   5
ENDBRANCH   1   3
BRANCH   1  21
HETATM   21  C   UNL     1       6.311  28.714  55.078  1.00  0.00     0.035 A 
HETATM   22  C   UNL     1       6.754  27.386  55.190  1.00  0.00     0.046 A 
HETATM   23  C   UNL     1       6.110  26.332  54.512  1.00  0.00     0.036 A 
HETATM   24  C   UNL     1       4.964  26.644  53.753  1.00  0.00     0.084 A 
HETATM   25  C   UNL     1       4.491  27.957  53.645  1.00  0.00    -0.026 A 
HETATM   26  C   UNL     1       3.267  28.273  52.834  1.00  0.00     0.051 C 
HETATM   27  C   UNL     1       5.177  28.981  54.311  1.00  0.00     0.039 A 
BRANCH  23  28
HETATM   28  C   UNL     1       6.587  24.935  54.583  1.00  0.00     0.112 A 
HETATM   29  S   UNL     1       6.829  24.113  56.074  1.00  0.00    -0.067 SA
HETATM   30  C   UNL     1       7.416  22.731  55.236  1.00  0.00     0.035 A 
HETATM   31  C   UNL     1       7.385  22.987  53.866  1.00  0.00     0.075 A 
HETATM   32  C   UNL     1       7.875  21.507  55.751  1.00  0.00     0.021 A 
HETATM   33  N   UNL     1       6.929  24.244  53.509  1.00  0.00    -0.239 NA
HETATM   34  C   UNL     1       7.817  21.982  52.976  1.00  0.00     0.033 A 
HETATM   35  C   UNL     1       8.271  20.758  53.477  1.00  0.00     0.002 A 
HETATM   36  C   UNL     1       8.302  20.527  54.849  1.00  0.00     0.002 A 
ENDBRANCH  23  28
BRANCH  24  37
HETATM   37  O   UNL     1       4.248  25.677  53.086  1.00  0.00    -0.359 OA
HETATM   38  H   UNL     1       4.485  24.806  53.472  1.00  0.00     0.218 HD
ENDBRANCH  24  37
ENDBRANCH   1  21
TORSDOF 10
ENDMDL
