MODEL 1
REMARK VINA RESULT:     -10.3      0.000      0.000
REMARK  2 active torsions:
REMARK  status: ('A' for Active; 'I' for Inactive)
REMARK    1  A    between atoms: C_4  and  C_5 
REMARK       I    between atoms: C_5  and  N_6 
REMARK    2  A    between atoms: N_6  and  N_7 
ROOT
HETATM    1  N   UNL     1       8.328  25.029  56.676  1.00  0.00    -0.282 N 
HETATM    2  C   UNL     1       7.972  24.471  55.524  1.00  0.00     0.127 C 
HETATM    3  C   UNL     1       8.048  22.991  55.385  1.00  0.00     0.015 A 
HETATM    4  C   UNL     1       8.125  22.435  54.091  1.00  0.00    -0.042 A 
HETATM    5  C   UNL     1       8.239  21.051  53.913  1.00  0.00     0.008 A 
HETATM    6  C   UNL     1       8.236  20.205  55.019  1.00  0.00     0.001 A 
HETATM    7  C   UNL     1       8.121  20.736  56.300  1.00  0.00     0.001 A 
HETATM    8  C   UNL     1       8.026  22.118  56.485  1.00  0.00     0.016 A 
HETATM    9  C   UNL     1       8.116  23.363  52.904  1.00  0.00     0.070 C 
HETATM   10  C   UNL     1       7.203  24.572  53.169  1.00  0.00     0.035 C 
HETATM   11  C   UNL     1       7.345  25.640  52.063  1.00  0.00     0.031 C 
HETATM   12  C   UNL     1       5.986  25.698  51.375  1.00  0.00     0.002 C 
HETATM   13  C   UNL     1       5.009  25.357  52.483  1.00  0.00     0.002 C 
HETATM   14  C   UNL     1       5.704  24.212  53.207  1.00  0.00     0.031 C 
HETATM   15  N   UNL     1       7.569  25.191  54.476  1.00  0.00    -0.365 N 
HETATM   16  H   UNL     1       7.507  26.190  54.578  1.00  0.00     0.162 HD
HETATM   17  H   UNL     1       8.699  24.404  57.401  1.00  0.00     0.188 HD
ENDROOT
BRANCH   1  18
HETATM   18  N   UNL     1       8.318  26.318  57.007  1.00  0.00    -0.264 N 
HETATM   19  C   UNL     1       7.055  26.863  57.204  1.00  0.00     0.270 C 
HETATM   20  O   UNL     1       6.049  26.167  57.087  1.00  0.00    -0.266 OA
HETATM   21  H   UNL     1       9.163  26.844  57.188  1.00  0.00     0.190 HD
BRANCH  19  22
HETATM   22  C   UNL     1       6.984  28.289  57.604  1.00  0.00     0.033 A 
HETATM   23  C   UNL     1       8.063  28.949  58.208  1.00  0.00     0.017 A 
HETATM   24  C   UNL     1       7.940  30.292  58.570  1.00  0.00     0.001 A 
HETATM   25  C   UNL     1       6.750  30.979  58.324  1.00  0.00     0.000 A 
HETATM   26  C   UNL     1       5.682  30.329  57.707  1.00  0.00     0.001 A 
HETATM   27  C   UNL     1       5.799  28.988  57.341  1.00  0.00     0.017 A 
ENDBRANCH  19  22
ENDBRANCH   1  18
TORSDOF 2
ENDMDL
MODEL 2
REMARK VINA RESULT:      -9.9      6.028     10.795
REMARK  2 active torsions:
REMARK  status: ('A' for Active; 'I' for Inactive)
REMARK    1  A    between atoms: C_4  and  C_5 
REMARK       I    between atoms: C_5  and  N_6 
REMARK    2  A    between atoms: N_6  and  N_7 
ROOT
HETATM    1  N   UNL     1       7.610  31.224  61.843  1.00  0.00    -0.282 N 
HETATM    2  C   UNL     1       6.541  31.993  62.018  1.00  0.00     0.127 C 
HETATM    3  C   UNL     1       6.355  32.685  63.322  1.00  0.00     0.015 A 
HETATM    4  C   UNL     1       5.061  33.107  63.687  1.00  0.00    -0.042 A 
HETATM    5  C   UNL     1       4.831  33.726  64.922  1.00  0.00     0.008 A 
HETATM    6  C   UNL     1       5.895  33.966  65.788  1.00  0.00     0.001 A 
HETATM    7  C   UNL     1       7.185  33.590  65.425  1.00  0.00     0.001 A 
HETATM    8  C   UNL     1       7.417  32.956  64.202  1.00  0.00     0.016 A 
HETATM    9  C   UNL     1       3.921  32.851  62.735  1.00  0.00     0.070 C 
HETATM   10  C   UNL     1       4.394  32.987  61.278  1.00  0.00     0.035 C 
HETATM   11  C   UNL     1       3.307  32.519  60.286  1.00  0.00     0.031 C 
HETATM   12  C   UNL     1       2.909  33.762  59.499  1.00  0.00     0.002 C 
HETATM   13  C   UNL     1       4.184  34.582  59.458  1.00  0.00     0.002 C 
HETATM   14  C   UNL     1       4.726  34.438  60.873  1.00  0.00     0.031 C 
HETATM   15  N   UNL     1       5.613  32.153  61.073  1.00  0.00    -0.365 N 
HETATM   16  H   UNL     1       5.749  31.695  60.188  1.00  0.00     0.162 HD
HETATM   17  H   UNL     1       8.230  31.098  62.651  1.00  0.00     0.188 HD
ENDROOT
BRANCH   1  18
HETATM   18  N   UNL     1       7.966  30.539  60.758  1.00  0.00    -0.264 N 
HETATM   19  C   UNL     1       8.807  31.218  59.886  1.00  0.00     0.270 C 
HETATM   20  O   UNL     1       9.185  32.360  60.143  1.00  0.00    -0.266 OA
HETATM   21  H   UNL     1       7.717  29.569  60.617  1.00  0.00     0.190 HD
BRANCH  19  22
HETATM   22  C   UNL     1       9.260  30.493  58.675  1.00  0.00     0.033 A 
HETATM   23  C   UNL     1       8.515  29.449  58.108  1.00  0.00     0.017 A 
HETATM   24  C   UNL     1       8.992  28.797  56.969  1.00  0.00     0.001 A 
HETATM   25  C   UNL     1      10.202  29.186  56.391  1.00  0.00     0.000 A 
HETATM   26  C   UNL     1      10.934  30.236  56.943  1.00  0.00     0.001 A 
HETATM   27  C   UNL     1      10.463  30.894  58.079  1.00  0.00     0.017 A 
ENDBRANCH  19  22
ENDBRANCH   1  18
TORSDOF 2
ENDMDL
MODEL 3
REMARK VINA RESULT:      -9.7      3.635      6.845
REMARK  2 active torsions:
REMARK  status: ('A' for Active; 'I' for Inactive)
REMARK    1  A    between atoms: C_4  and  C_5 
REMARK       I    between atoms: C_5  and  N_6 
REMARK    2  A    between atoms: N_6  and  N_7 
ROOT
HETATM    1  N   UNL     1       6.205  25.918  51.123  1.00  0.00    -0.282 N 
HETATM    2  C   UNL     1       6.296  25.899  52.448  1.00  0.00     0.127 C 
HETATM    3  C   UNL     1       6.882  24.705  53.114  1.00  0.00     0.015 A 
HETATM    4  C   UNL     1       6.576  24.466  54.469  1.00  0.00    -0.042 A 
HETATM    5  C   UNL     1       7.071  23.333  55.127  1.00  0.00     0.008 A 
HETATM    6  C   UNL     1       7.909  22.450  54.452  1.00  0.00     0.001 A 
HETATM    7  C   UNL     1       8.253  22.692  53.126  1.00  0.00     0.001 A 
HETATM    8  C   UNL     1       7.746  23.811  52.460  1.00  0.00     0.016 A 
HETATM    9  C   UNL     1       5.676  25.437  55.189  1.00  0.00     0.070 C 
HETATM   10  C   UNL     1       5.928  26.873  54.698  1.00  0.00     0.035 C 
HETATM   11  C   UNL     1       4.876  27.854  55.258  1.00  0.00     0.031 C 
HETATM   12  C   UNL     1       5.648  28.813  56.157  1.00  0.00     0.002 C 
HETATM   13  C   UNL     1       7.016  28.889  55.507  1.00  0.00     0.002 C 
HETATM   14  C   UNL     1       7.295  27.440  55.132  1.00  0.00     0.031 C 
HETATM   15  N   UNL     1       5.861  26.905  53.208  1.00  0.00    -0.365 N 
HETATM   16  H   UNL     1       5.477  27.716  52.754  1.00  0.00     0.162 HD
HETATM   17  H   UNL     1       6.494  25.068  50.624  1.00  0.00     0.188 HD
ENDROOT
BRANCH   1  18
HETATM   18  N   UNL     1       5.733  26.887  50.341  1.00  0.00    -0.264 N 
HETATM   19  C   UNL     1       4.625  26.539  49.579  1.00  0.00     0.270 C 
HETATM   20  O   UNL     1       4.138  25.413  49.662  1.00  0.00    -0.266 OA
HETATM   21  H   UNL     1       6.095  27.832  50.361  1.00  0.00     0.190 HD
BRANCH  19  22
HETATM   22  C   UNL     1       4.040  27.589  48.711  1.00  0.00     0.033 A 
HETATM   23  C   UNL     1       2.661  27.678  48.476  1.00  0.00     0.017 A 
HETATM   24  C   UNL     1       2.163  28.685  47.645  1.00  0.00     0.001 A 
HETATM   25  C   UNL     1       3.034  29.603  47.056  1.00  0.00     0.000 A 
HETATM   26  C   UNL     1       4.404  29.526  47.304  1.00  0.00     0.001 A 
HETATM   27  C   UNL     1       4.907  28.525  48.134  1.00  0.00     0.017 A 
ENDBRANCH  19  22
ENDBRANCH   1  18
TORSDOF 2
ENDMDL
MODEL 4
REMARK VINA RESULT:      -9.5      2.394      5.344
REMARK  2 active torsions:
REMARK  status: ('A' for Active; 'I' for Inactive)
REMARK    1  A    between atoms: C_4  and  C_5 
REMARK       I    between atoms: C_5  and  N_6 
REMARK    2  A    between atoms: N_6  and  N_7 
ROOT
HETATM    1  N   UNL     1       7.413  24.271  52.271  1.00  0.00    -0.282 N 
HETATM    2  C   UNL     1       7.484  24.018  53.573  1.00  0.00     0.127 C 
HETATM    3  C   UNL     1       7.860  22.650  54.023  1.00  0.00     0.015 A 
HETATM    4  C   UNL     1       7.502  22.243  55.324  1.00  0.00    -0.042 A 
HETATM    5  C   UNL     1       7.799  20.952  55.777  1.00  0.00     0.008 A 
HETATM    6  C   UNL     1       8.489  20.067  54.952  1.00  0.00     0.001 A 
HETATM    7  C   UNL     1       8.882  20.467  53.679  1.00  0.00     0.001 A 
HETATM    8  C   UNL     1       8.573  21.749  53.215  1.00  0.00     0.016 A 
HETATM    9  C   UNL     1       6.765  23.215  56.209  1.00  0.00     0.070 C 
HETATM   10  C   UNL     1       7.254  24.651  55.958  1.00  0.00     0.035 C 
HETATM   11  C   UNL     1       6.369  25.685  56.690  1.00  0.00     0.031 C 
HETATM   12  C   UNL     1       7.277  26.342  57.723  1.00  0.00     0.002 C 
HETATM   13  C   UNL     1       8.647  26.301  57.073  1.00  0.00     0.002 C 
HETATM   14  C   UNL     1       8.690  24.909  56.459  1.00  0.00     0.031 C 
HETATM   15  N   UNL     1       7.210  24.941  54.496  1.00  0.00    -0.365 N 
HETATM   16  H   UNL     1       6.970  25.868  54.188  1.00  0.00     0.162 HD
HETATM   17  H   UNL     1       7.565  23.480  51.633  1.00  0.00     0.188 HD
ENDROOT
BRANCH   1  18
HETATM   18  N   UNL     1       7.115  25.420  51.668  1.00  0.00    -0.264 N 
HETATM   19  C   UNL     1       5.756  25.683  51.545  1.00  0.00     0.270 C 
HETATM   20  O   UNL     1       4.924  24.894  51.988  1.00  0.00    -0.266 OA
HETATM   21  H   UNL     1       7.818  26.095  51.396  1.00  0.00     0.190 HD
BRANCH  19  22
HETATM   22  C   UNL     1       5.366  26.963  50.907  1.00  0.00     0.033 A 
HETATM   23  C   UNL     1       5.558  28.200  51.539  1.00  0.00     0.017 A 
HETATM   24  C   UNL     1       5.167  29.376  50.894  1.00  0.00     0.001 A 
HETATM   25  C   UNL     1       4.594  29.322  49.622  1.00  0.00     0.000 A 
HETATM   26  C   UNL     1       4.419  28.094  48.986  1.00  0.00     0.001 A 
HETATM   27  C   UNL     1       4.810  26.916  49.622  1.00  0.00     0.017 A 
ENDBRANCH  19  22
ENDBRANCH   1  18
TORSDOF 2
ENDMDL
MODEL 5
REMARK VINA RESULT:      -9.1      2.557      7.075
REMARK  2 active torsions:
REMARK  status: ('A' for Active; 'I' for Inactive)
REMARK    1  A    between atoms: C_4  and  C_5 
REMARK       I    between atoms: C_5  and  N_6 
REMARK    2  A    between atoms: N_6  and  N_7 
ROOT
HETATM    1  N   UNL     1       5.786  24.686  52.370  1.00  0.00    -0.282 N 
HETATM    2  C   UNL     1       5.579  25.997  52.432  1.00  0.00     0.127 C 
HETATM    3  C   UNL     1       5.233  26.732  51.186  1.00  0.00     0.015 A 
HETATM    4  C   UNL     1       5.459  28.123  51.135  1.00  0.00    -0.042 A 
HETATM    5  C   UNL     1       5.187  28.850  49.970  1.00  0.00     0.008 A 
HETATM    6  C   UNL     1       4.650  28.207  48.858  1.00  0.00     0.001 A 
HETATM    7  C   UNL     1       4.385  26.842  48.906  1.00  0.00     0.001 A 
HETATM    8  C   UNL     1       4.671  26.108  50.060  1.00  0.00     0.016 A 
HETATM    9  C   UNL     1       6.031  28.808  52.350  1.00  0.00     0.070 C 
HETATM   10  C   UNL     1       5.492  28.161  53.637  1.00  0.00     0.035 C 
HETATM   11  C   UNL     1       6.225  28.697  54.887  1.00  0.00     0.031 C 
HETATM   12  C   UNL     1       5.166  29.440  55.694  1.00  0.00     0.002 C 
HETATM   13  C   UNL     1       3.886  28.688  55.382  1.00  0.00     0.002 C 
HETATM   14  C   UNL     1       3.995  28.438  53.885  1.00  0.00     0.031 C 
HETATM   15  N   UNL     1       5.690  26.684  53.570  1.00  0.00    -0.365 N 
HETATM   16  H   UNL     1       5.910  26.181  54.413  1.00  0.00     0.162 HD
HETATM   17  H   UNL     1       5.756  24.253  51.439  1.00  0.00     0.188 HD
ENDROOT
BRANCH   1  18
HETATM   18  N   UNL     1       6.086  23.849  53.362  1.00  0.00    -0.264 N 
HETATM   19  C   UNL     1       7.387  23.363  53.346  1.00  0.00     0.270 C 
HETATM   20  O   UNL     1       8.176  23.716  52.472  1.00  0.00    -0.266 OA
HETATM   21  H   UNL     1       5.447  23.648  54.120  1.00  0.00     0.190 HD
BRANCH  19  22
HETATM   22  C   UNL     1       7.784  22.449  54.444  1.00  0.00     0.033 A 
HETATM   23  C   UNL     1       7.937  21.070  54.248  1.00  0.00     0.017 A 
HETATM   24  C   UNL     1       8.308  20.254  55.320  1.00  0.00     0.001 A 
HETATM   25  C   UNL     1       8.534  20.811  56.580  1.00  0.00     0.000 A 
HETATM   26  C   UNL     1       8.400  22.186  56.772  1.00  0.00     0.001 A 
HETATM   27  C   UNL     1       8.032  23.006  55.706  1.00  0.00     0.017 A 
ENDBRANCH  19  22
ENDBRANCH   1  18
TORSDOF 2
ENDMDL
MODEL 6
REMARK VINA RESULT:      -8.9      3.628      7.669
REMARK  2 active torsions:
REMARK  status: ('A' for Active; 'I' for Inactive)
REMARK    1  A    between atoms: C_4  and  C_5 
REMARK       I    between atoms: C_5  and  N_6 
REMARK    2  A    between atoms: N_6  and  N_7 
ROOT
HETATM    1  N   UNL     1       4.903  26.821  53.060  1.00  0.00    -0.282 N 
HETATM    2  C   UNL     1       4.456  27.486  52.000  1.00  0.00     0.127 C 
HETATM    3  C   UNL     1       4.015  28.897  52.165  1.00  0.00     0.015 A 
HETATM    4  C   UNL     1       3.139  29.450  51.209  1.00  0.00    -0.042 A 
HETATM    5  C   UNL     1       2.665  30.760  51.345  1.00  0.00     0.008 A 
HETATM    6  C   UNL     1       3.090  31.545  52.413  1.00  0.00     0.001 A 
HETATM    7  C   UNL     1       3.985  31.027  53.344  1.00  0.00     0.001 A 
HETATM    8  C   UNL     1       4.447  29.714  53.223  1.00  0.00     0.016 A 
HETATM    9  C   UNL     1       2.696  28.591  50.052  1.00  0.00     0.070 C 
HETATM   10  C   UNL     1       3.833  27.657  49.607  1.00  0.00     0.035 C 
HETATM   11  C   UNL     1       3.341  26.620  48.573  1.00  0.00     0.031 C 
HETATM   12  C   UNL     1       4.090  26.940  47.285  1.00  0.00     0.002 C 
HETATM   13  C   UNL     1       5.416  27.494  47.770  1.00  0.00     0.002 C 
HETATM   14  C   UNL     1       5.004  28.395  48.926  1.00  0.00     0.031 C 
HETATM   15  N   UNL     1       4.368  26.926  50.792  1.00  0.00    -0.365 N 
HETATM   16  H   UNL     1       4.680  25.976  50.682  1.00  0.00     0.162 HD
HETATM   17  H   UNL     1       4.862  27.307  53.965  1.00  0.00     0.188 HD
ENDROOT
BRANCH   1  18
HETATM   18  N   UNL     1       5.356  25.571  53.121  1.00  0.00    -0.264 N 
HETATM   19  C   UNL     1       6.538  25.410  53.832  1.00  0.00     0.270 C 
HETATM   20  O   UNL     1       7.084  26.374  54.364  1.00  0.00    -0.266 OA
HETATM   21  H   UNL     1       4.838  24.783  52.755  1.00  0.00     0.190 HD
BRANCH  19  22
HETATM   22  C   UNL     1       7.073  24.033  53.958  1.00  0.00     0.033 A 
HETATM   23  C   UNL     1       7.522  23.303  52.849  1.00  0.00     0.017 A 
HETATM   24  C   UNL     1       8.013  22.007  53.024  1.00  0.00     0.001 A 
HETATM   25  C   UNL     1       8.062  21.441  54.300  1.00  0.00     0.000 A 
HETATM   26  C   UNL     1       7.632  22.173  55.406  1.00  0.00     0.001 A 
HETATM   27  C   UNL     1       7.144  23.468  55.239  1.00  0.00     0.017 A 
ENDBRANCH  19  22
ENDBRANCH   1  18
TORSDOF 2
ENDMDL
MODEL 7
REMARK VINA RESULT:      -8.8      5.189     10.694
REMARK  2 active torsions:
REMARK  status: ('A' for Active; 'I' for Inactive)
REMARK    1  A    between atoms: C_4  and  C_5 
REMARK       I    between atoms: C_5  and  N_6 
REMARK    2  A    between atoms: N_6  and  N_7 
ROOT
HETATM    1  N   UNL     1       7.053  31.443  60.939  1.00  0.00    -0.282 N 
HETATM    2  C   UNL     1       6.112  32.272  61.378  1.00  0.00     0.127 C 
HETATM    3  C   UNL     1       6.163  32.740  62.789  1.00  0.00     0.015 A 
HETATM    4  C   UNL     1       4.980  33.218  63.388  1.00  0.00    -0.042 A 
HETATM    5  C   UNL     1       4.971  33.631  64.726  1.00  0.00     0.008 A 
HETATM    6  C   UNL     1       6.148  33.609  65.468  1.00  0.00     0.001 A 
HETATM    7  C   UNL     1       7.332  33.176  64.880  1.00  0.00     0.001 A 
HETATM    8  C   UNL     1       7.344  32.746  63.551  1.00  0.00     0.016 A 
HETATM    9  C   UNL     1       3.715  33.247  62.569  1.00  0.00     0.070 C 
HETATM   10  C   UNL     1       4.030  33.588  61.102  1.00  0.00     0.035 C 
HETATM   11  C   UNL     1       2.787  33.411  60.202  1.00  0.00     0.031 C 
HETATM   12  C   UNL     1       2.454  34.806  59.686  1.00  0.00     0.002 C 
HETATM   13  C   UNL     1       3.805  35.490  59.607  1.00  0.00     0.002 C 
HETATM   14  C   UNL     1       4.485  35.047  60.895  1.00  0.00     0.031 C 
HETATM   15  N   UNL     1       5.108  32.686  60.604  1.00  0.00    -0.365 N 
HETATM   16  H   UNL     1       5.084  32.378  59.646  1.00  0.00     0.162 HD
HETATM   17  H   UNL     1       7.744  31.117  61.627  1.00  0.00     0.188 HD
ENDROOT
BRANCH   1  18
HETATM   18  N   UNL     1       7.197  30.927  59.720  1.00  0.00    -0.264 N 
HETATM   19  C   UNL     1       8.380  30.229  59.515  1.00  0.00     0.270 C 
HETATM   20  O   UNL     1       9.199  30.106  60.423  1.00  0.00    -0.266 OA
HETATM   21  H   UNL     1       6.466  30.963  59.021  1.00  0.00     0.190 HD
BRANCH  19  22
HETATM   22  C   UNL     1       8.580  29.607  58.184  1.00  0.00     0.033 A 
HETATM   23  C   UNL     1       9.579  30.040  57.301  1.00  0.00     0.017 A 
HETATM   24  C   UNL     1       9.719  29.422  56.056  1.00  0.00     0.001 A 
HETATM   25  C   UNL     1       8.873  28.371  55.695  1.00  0.00     0.000 A 
HETATM   26  C   UNL     1       7.891  27.928  56.579  1.00  0.00     0.001 A 
HETATM   27  C   UNL     1       7.747  28.539  57.824  1.00  0.00     0.017 A 
ENDBRANCH  19  22
ENDBRANCH   1  18
TORSDOF 2
ENDMDL
MODEL 8
REMARK VINA RESULT:      -8.8      9.851     13.420
REMARK  2 active torsions:
REMARK  status: ('A' for Active; 'I' for Inactive)
REMARK    1  A    between atoms: C_4  and  C_5 
REMARK       I    between atoms: C_5  and  N_6 
REMARK    2  A    between atoms: N_6  and  N_7 
ROOT
HETATM    1  N   UNL     1       6.324  34.671  65.128  1.00  0.00    -0.282 N 
HETATM    2  C   UNL     1       6.431  34.078  63.944  1.00  0.00     0.127 C 
HETATM    3  C   UNL     1       5.670  34.629  62.790  1.00  0.00     0.015 A 
HETATM    4  C   UNL     1       5.404  33.788  61.690  1.00  0.00    -0.042 A 
HETATM    5  C   UNL     1       4.657  34.250  60.600  1.00  0.00     0.008 A 
HETATM    6  C   UNL     1       4.202  35.565  60.577  1.00  0.00     0.001 A 
HETATM    7  C   UNL     1       4.489  36.419  61.637  1.00  0.00     0.001 A 
HETATM    8  C   UNL     1       5.219  35.958  62.736  1.00  0.00     0.016 A 
HETATM    9  C   UNL     1       5.912  32.370  61.725  1.00  0.00     0.070 C 
HETATM   10  C   UNL     1       7.275  32.302  62.435  1.00  0.00     0.035 C 
HETATM   11  C   UNL     1       7.714  30.841  62.676  1.00  0.00     0.031 C 
HETATM   12  C   UNL     1       8.971  30.647  61.836  1.00  0.00     0.002 C 
HETATM   13  C   UNL     1       9.611  32.022  61.829  1.00  0.00     0.002 C 
HETATM   14  C   UNL     1       8.420  32.950  61.631  1.00  0.00     0.031 C 
HETATM   15  N   UNL     1       7.180  32.992  63.755  1.00  0.00    -0.365 N 
HETATM   16  H   UNL     1       7.704  32.630  64.534  1.00  0.00     0.162 HD
HETATM   17  H   UNL     1       5.664  35.455  65.199  1.00  0.00     0.188 HD
ENDROOT
BRANCH   1  18
HETATM   18  N   UNL     1       6.928  34.350  66.270  1.00  0.00    -0.264 N 
HETATM   19  C   UNL     1       6.277  34.780  67.419  1.00  0.00     0.270 C 
HETATM   20  O   UNL     1       5.216  35.395  67.343  1.00  0.00    -0.266 OA
HETATM   21  H   UNL     1       7.751  33.763  66.308  1.00  0.00     0.190 HD
BRANCH  19  22
HETATM   22  C   UNL     1       6.890  34.424  68.722  1.00  0.00     0.033 A 
HETATM   23  C   UNL     1       8.076  35.019  69.175  1.00  0.00     0.017 A 
HETATM   24  C   UNL     1       8.612  34.642  70.409  1.00  0.00     0.001 A 
HETATM   25  C   UNL     1       7.967  33.682  71.191  1.00  0.00     0.000 A 
HETATM   26  C   UNL     1       6.779  33.103  70.749  1.00  0.00     0.001 A 
HETATM   27  C   UNL     1       6.236  33.477  69.520  1.00  0.00     0.017 A 
ENDBRANCH  19  22
ENDBRANCH   1  18
TORSDOF 2
ENDMDL
MODEL 9
REMARK VINA RESULT:      -8.7      3.838      7.199
REMARK  2 active torsions:
REMARK  status: ('A' for Active; 'I' for Inactive)
REMARK    1  A    between atoms: C_4  and  C_5 
REMARK       I    between atoms: C_5  and  N_6 
REMARK    2  A    between atoms: N_6  and  N_7 
ROOT
HETATM    1  N   UNL     1       5.739  25.758  50.798  1.00  0.00    -0.282 N 
HETATM    2  C   UNL     1       5.091  26.842  50.385  1.00  0.00     0.127 C 
HETATM    3  C   UNL     1       4.212  26.745  49.188  1.00  0.00     0.015 A 
HETATM    4  C   UNL     1       3.898  27.923  48.480  1.00  0.00    -0.042 A 
HETATM    5  C   UNL     1       3.108  27.876  47.325  1.00  0.00     0.008 A 
HETATM    6  C   UNL     1       2.590  26.660  46.887  1.00  0.00     0.001 A 
HETATM    7  C   UNL     1       2.858  25.494  47.597  1.00  0.00     0.001 A 
HETATM    8  C   UNL     1       3.661  25.533  48.740  1.00  0.00     0.016 A 
HETATM    9  C   UNL     1       4.458  29.233  48.973  1.00  0.00     0.070 C 
HETATM   10  C   UNL     1       4.519  29.250  50.509  1.00  0.00     0.035 C 
HETATM   11  C   UNL     1       5.285  30.486  51.030  1.00  0.00     0.031 C 
HETATM   12  C   UNL     1       4.258  31.312  51.796  1.00  0.00     0.002 C 
HETATM   13  C   UNL     1       3.304  30.271  52.349  1.00  0.00     0.002 C 
HETATM   14  C   UNL     1       3.131  29.313  51.179  1.00  0.00     0.031 C 
HETATM   15  N   UNL     1       5.216  28.023  50.991  1.00  0.00    -0.365 N 
HETATM   16  H   UNL     1       5.800  28.081  51.808  1.00  0.00     0.162 HD
HETATM   17  H   UNL     1       5.643  24.911  50.224  1.00  0.00     0.188 HD
ENDROOT
BRANCH   1  18
HETATM   18  N   UNL     1       6.551  25.630  51.845  1.00  0.00    -0.264 N 
HETATM   19  C   UNL     1       5.992  24.997  52.947  1.00  0.00     0.270 C 
HETATM   20  O   UNL     1       4.834  24.585  52.911  1.00  0.00    -0.266 OA
HETATM   21  H   UNL     1       7.527  25.893  51.815  1.00  0.00     0.190 HD
BRANCH  19  22
HETATM   22  C   UNL     1       6.861  24.800  54.132  1.00  0.00     0.033 A 
HETATM   23  C   UNL     1       7.783  23.748  54.215  1.00  0.00     0.017 A 
HETATM   24  C   UNL     1       8.574  23.607  55.358  1.00  0.00     0.001 A 
HETATM   25  C   UNL     1       8.452  24.515  56.412  1.00  0.00     0.000 A 
HETATM   26  C   UNL     1       7.547  25.572  56.323  1.00  0.00     0.001 A 
HETATM   27  C   UNL     1       6.757  25.720  55.184  1.00  0.00     0.017 A 
ENDBRANCH  19  22
ENDBRANCH   1  18
TORSDOF 2
ENDMDL
MODEL 10
REMARK VINA RESULT:      -8.7      2.004      7.172
REMARK  2 active torsions:
REMARK  status: ('A' for Active; 'I' for Inactive)
REMARK    1  A    between atoms: C_4  and  C_5 
REMARK       I    between atoms: C_5  and  N_6 
REMARK    2  A    between atoms: N_6  and  N_7 
ROOT
HETATM    1  N   UNL     1       8.167  26.573  56.531  1.00  0.00    -0.282 N 
HETATM    2  C   UNL     1       7.414  27.666  56.589  1.00  0.00     0.127 C 
HETATM    3  C   UNL     1       7.925  28.857  57.320  1.00  0.00     0.015 A 
HETATM    4  C   UNL     1       7.002  29.818  57.779  1.00  0.00    -0.042 A 
HETATM    5  C   UNL     1       7.432  30.934  58.506  1.00  0.00     0.008 A 
HETATM    6  C   UNL     1       8.790  31.125  58.748  1.00  0.00     0.001 A 
HETATM    7  C   UNL     1       9.717  30.205  58.268  1.00  0.00     0.001 A 
HETATM    8  C   UNL     1       9.291  29.079  57.557  1.00  0.00     0.016 A 
HETATM    9  C   UNL     1       5.536  29.605  57.499  1.00  0.00     0.070 C 
HETATM   10  C   UNL     1       5.339  28.942  56.126  1.00  0.00     0.035 C 
HETATM   11  C   UNL     1       3.871  28.515  55.910  1.00  0.00     0.031 C 
HETATM   12  C   UNL     1       3.364  29.366  54.750  1.00  0.00     0.002 C 
HETATM   13  C   UNL     1       4.602  29.587  53.903  1.00  0.00     0.002 C 
HETATM   14  C   UNL     1       5.679  29.869  54.941  1.00  0.00     0.031 C 
HETATM   15  N   UNL     1       6.203  27.729  56.033  1.00  0.00    -0.365 N 
HETATM   16  H   UNL     1       5.866  26.926  55.528  1.00  0.00     0.162 HD
HETATM   17  H   UNL     1       9.051  26.588  57.054  1.00  0.00     0.188 HD
ENDROOT
BRANCH   1  18
HETATM   18  N   UNL     1       7.904  25.420  55.920  1.00  0.00    -0.264 N 
HETATM   19  C   UNL     1       8.618  24.328  56.395  1.00  0.00     0.270 C 
HETATM   20  O   UNL     1       9.412  24.456  57.324  1.00  0.00    -0.266 OA
HETATM   21  H   UNL     1       7.177  25.324  55.222  1.00  0.00     0.190 HD
BRANCH  19  22
HETATM   22  C   UNL     1       8.343  23.011  55.770  1.00  0.00     0.033 A 
HETATM   23  C   UNL     1       8.249  21.833  56.524  1.00  0.00     0.017 A 
HETATM   24  C   UNL     1       7.994  20.619  55.882  1.00  0.00     0.001 A 
HETATM   25  C   UNL     1       7.825  20.578  54.497  1.00  0.00     0.000 A 
HETATM   26  C   UNL     1       7.901  21.752  53.749  1.00  0.00     0.001 A 
HETATM   27  C   UNL     1       8.153  22.968  54.383  1.00  0.00     0.017 A 
ENDBRANCH  19  22
ENDBRANCH   1  18
TORSDOF 2
ENDMDL
