MODEL 1
REMARK VINA RESULT:      -9.8      0.000      0.000
REMARK  6 active torsions:
REMARK  status: ('A' for Active; 'I' for Inactive)
REMARK    1  A    between atoms: C_3  and  C_4 
REMARK    2  A    between atoms: C_4  and  N_5 
REMARK    3  A    between atoms: C_4  and  C_19 
REMARK    4  A    between atoms: N_9  and  C_10 
REMARK    5  A    between atoms: C_25  and  N_26 
REMARK       I    between atoms: N_26  and  C_27 
REMARK    6  A    between atoms: C_27  and  C_28 
ROOT
HETATM    1  C   UNL     1       6.613  28.886  57.097  1.00  0.00     0.259 C 
ENDROOT
BRANCH   1   2
HETATM    2  C   UNL     1       5.719  30.123  57.021  1.00  0.00     0.018 A 
HETATM    3  C   UNL     1       4.857  30.379  55.853  1.00  0.00    -0.038 A 
HETATM    4  C   UNL     1       4.631  29.430  54.707  1.00  0.00     0.050 C 
HETATM    5  C   UNL     1       4.267  31.632  55.907  1.00  0.00    -0.013 A 
HETATM    6  S   UNL     1       4.692  32.476  57.312  1.00  0.00    -0.076 SA
HETATM    7  C   UNL     1       3.352  32.285  54.915  1.00  0.00     0.057 C 
HETATM    8  C   UNL     1       5.610  31.184  57.922  1.00  0.00     0.086 A 
BRANCH   8   9
HETATM    9  N   UNL     1       6.045  31.297  59.234  1.00  0.00    -0.315 N 
HETATM   10  C   UNL     1       7.190  31.967  59.652  1.00  0.00     0.280 C 
HETATM   11  O   UNL     1       8.093  32.336  58.912  1.00  0.00    -0.265 OA
HETATM   12  H   UNL     1       5.529  30.865  59.987  1.00  0.00     0.170 HD
BRANCH  10  13
HETATM   13  C   UNL     1       7.295  32.009  61.097  1.00  0.00     0.142 A 
HETATM   14  O   UNL     1       6.145  32.135  61.839  1.00  0.00    -0.317 OA
HETATM   15  C   UNL     1       6.519  32.173  63.145  1.00  0.00     0.143 A 
HETATM   16  C   UNL     1       7.882  32.022  63.261  1.00  0.00     0.027 A 
HETATM   17  C   UNL     1       8.381  31.907  61.942  1.00  0.00     0.045 A 
ENDBRANCH  10  13
ENDBRANCH   8   9
ENDBRANCH   1   2
BRANCH   1  18
HETATM   18  N   UNL     1       6.057  27.581  56.449  1.00  0.00    -0.056 N 
HETATM   19  H   UNL     1       5.055  27.794  56.352  1.00  0.00     0.281 HD
HETATM   20  C   UNL     1       6.537  27.253  55.050  1.00  0.00     0.256 C 
HETATM   21  C   UNL     1       5.909  25.953  54.483  1.00  0.00     0.152 C 
HETATM   22  N   UNL     1       6.026  24.820  55.416  1.00  0.00    -0.364 N 
HETATM   23  C   UNL     1       5.502  25.114  56.768  1.00  0.00     0.152 C 
HETATM   24  C   UNL     1       6.167  26.369  57.378  1.00  0.00     0.256 C 
BRANCH  22  25
HETATM   25  C   UNL     1       7.008  23.872  55.209  1.00  0.00     0.102 A 
HETATM   26  N   UNL     1       7.570  23.286  56.286  1.00  0.00    -0.352 N 
HETATM   27  H   UNL     1       7.289  23.617  57.204  1.00  0.00     0.166 HD
HETATM   28  C   UNL     1       8.537  22.356  56.219  1.00  0.00     0.089 A 
HETATM   29  C   UNL     1       9.027  21.951  54.990  1.00  0.00     0.017 A 
HETATM   30  C   UNL     1       8.513  22.540  53.844  1.00  0.00     0.005 A 
HETATM   31  C   UNL     1       7.512  23.505  53.951  1.00  0.00     0.048 A 
ENDBRANCH  22  25
ENDBRANCH   1  18
BRANCH   1  32
HETATM   32  C   UNL     1       8.072  29.235  56.865  1.00  0.00    -0.005 A 
HETATM   33  C   UNL     1       8.673  29.430  55.627  1.00  0.00     0.125 A 
HETATM   34  N   UNL     1       9.995  29.639  55.433  1.00  0.00    -0.273 NA
HETATM   35  C   UNL     1      10.780  29.766  56.519  1.00  0.00     0.116 A 
HETATM   36  C   UNL     1      10.290  29.675  57.803  1.00  0.00     0.020 A 
HETATM   37  C   UNL     1       8.931  29.411  57.971  1.00  0.00     0.012 A 
ENDBRANCH   1  32
TORSDOF 6
ENDMDL
MODEL 2
REMARK VINA RESULT:      -9.7      2.879      5.434
REMARK  6 active torsions:
REMARK  status: ('A' for Active; 'I' for Inactive)
REMARK    1  A    between atoms: C_3  and  C_4 
REMARK    2  A    between atoms: C_4  and  N_5 
REMARK    3  A    between atoms: C_4  and  C_19 
REMARK    4  A    between atoms: N_9  and  C_10 
REMARK    5  A    between atoms: C_25  and  N_26 
REMARK       I    between atoms: N_26  and  C_27 
REMARK    6  A    between atoms: C_27  and  C_28 
ROOT
HETATM    1  C   UNL     1       6.418  28.891  56.458  1.00  0.00     0.259 C 
ENDROOT
BRANCH   1   2
HETATM    2  C   UNL     1       5.564  30.112  56.116  1.00  0.00     0.018 A 
HETATM    3  C   UNL     1       5.210  31.114  57.138  1.00  0.00    -0.038 A 
HETATM    4  C   UNL     1       5.743  31.155  58.545  1.00  0.00     0.050 C 
HETATM    5  C   UNL     1       4.292  32.037  56.665  1.00  0.00    -0.013 A 
HETATM    6  S   UNL     1       3.878  31.753  55.048  1.00  0.00    -0.076 SA
HETATM    7  C   UNL     1       3.659  33.190  57.386  1.00  0.00     0.057 C 
HETATM    8  C   UNL     1       4.952  30.445  54.907  1.00  0.00     0.086 A 
BRANCH   8   9
HETATM    9  N   UNL     1       5.156  29.945  53.629  1.00  0.00    -0.315 N 
HETATM   10  C   UNL     1       4.373  28.980  53.003  1.00  0.00     0.280 C 
HETATM   11  O   UNL     1       3.554  28.269  53.571  1.00  0.00    -0.265 OA
HETATM   12  H   UNL     1       5.931  30.266  53.067  1.00  0.00     0.170 HD
BRANCH  10  13
HETATM   13  C   UNL     1       4.773  28.768  51.627  1.00  0.00     0.142 A 
HETATM   14  O   UNL     1       4.513  27.552  51.042  1.00  0.00    -0.317 OA
HETATM   15  C   UNL     1       5.004  27.607  49.777  1.00  0.00     0.143 A 
HETATM   16  C   UNL     1       5.528  28.853  49.517  1.00  0.00     0.027 A 
HETATM   17  C   UNL     1       5.371  29.605  50.706  1.00  0.00     0.045 A 
ENDBRANCH  10  13
ENDBRANCH   8   9
ENDBRANCH   1   2
BRANCH   1  18
HETATM   18  N   UNL     1       5.966  27.529  55.847  1.00  0.00    -0.056 N 
HETATM   19  H   UNL     1       4.986  27.717  55.595  1.00  0.00     0.281 HD
HETATM   20  C   UNL     1       6.638  27.100  54.560  1.00  0.00     0.256 C 
HETATM   21  C   UNL     1       6.103  25.748  54.018  1.00  0.00     0.152 C 
HETATM   22  N   UNL     1       6.096  24.695  55.048  1.00  0.00    -0.364 N 
HETATM   23  C   UNL     1       5.386  25.086  56.285  1.00  0.00     0.152 C 
HETATM   24  C   UNL     1       5.952  26.397  56.878  1.00  0.00     0.256 C 
BRANCH  22  25
HETATM   25  C   UNL     1       7.103  23.750  55.057  1.00  0.00     0.102 A 
HETATM   26  N   UNL     1       7.587  23.341  56.247  1.00  0.00    -0.352 N 
HETATM   27  H   UNL     1       7.230  23.795  57.083  1.00  0.00     0.166 HD
HETATM   28  C   UNL     1       8.567  22.435  56.391  1.00  0.00     0.089 A 
HETATM   29  C   UNL     1       9.157  21.867  55.275  1.00  0.00     0.017 A 
HETATM   30  C   UNL     1       8.727  22.270  54.019  1.00  0.00     0.005 A 
HETATM   31  C   UNL     1       7.708  23.217  53.908  1.00  0.00     0.048 A 
ENDBRANCH  22  25
ENDBRANCH   1  18
BRANCH   1  32
HETATM   32  C   UNL     1       7.899  29.223  56.449  1.00  0.00    -0.005 A 
HETATM   33  C   UNL     1       8.696  29.350  55.319  1.00  0.00     0.125 A 
HETATM   34  N   UNL     1      10.034  29.545  55.332  1.00  0.00    -0.273 NA
HETATM   35  C   UNL     1      10.632  29.727  56.523  1.00  0.00     0.116 A 
HETATM   36  C   UNL     1       9.939  29.707  57.713  1.00  0.00     0.020 A 
HETATM   37  C   UNL     1       8.568  29.456  57.671  1.00  0.00     0.012 A 
ENDBRANCH   1  32
TORSDOF 6
ENDMDL
MODEL 3
REMARK VINA RESULT:      -9.7      1.642      2.077
REMARK  6 active torsions:
REMARK  status: ('A' for Active; 'I' for Inactive)
REMARK    1  A    between atoms: C_3  and  C_4 
REMARK    2  A    between atoms: C_4  and  N_5 
REMARK    3  A    between atoms: C_4  and  C_19 
REMARK    4  A    between atoms: N_9  and  C_10 
REMARK    5  A    between atoms: C_25  and  N_26 
REMARK       I    between atoms: N_26  and  C_27 
REMARK    6  A    between atoms: C_27  and  C_28 
ROOT
HETATM    1  C   UNL     1       6.978  28.674  57.444  1.00  0.00     0.259 C 
ENDROOT
BRANCH   1   2
HETATM    2  C   UNL     1       5.871  29.366  56.652  1.00  0.00     0.018 A 
HETATM    3  C   UNL     1       5.610  29.032  55.240  1.00  0.00    -0.038 A 
HETATM    4  C   UNL     1       6.258  27.911  54.472  1.00  0.00     0.050 C 
HETATM    5  C   UNL     1       4.690  29.892  54.662  1.00  0.00    -0.013 A 
HETATM    6  S   UNL     1       4.121  31.047  55.762  1.00  0.00    -0.076 SA
HETATM    7  C   UNL     1       4.176  29.913  53.254  1.00  0.00     0.057 C 
HETATM    8  C   UNL     1       5.021  30.401  57.048  1.00  0.00     0.086 A 
BRANCH   8   9
HETATM    9  N   UNL     1       4.742  30.899  58.312  1.00  0.00    -0.315 N 
HETATM   10  C   UNL     1       5.391  31.968  58.923  1.00  0.00     0.280 C 
HETATM   11  O   UNL     1       6.446  32.456  58.539  1.00  0.00    -0.265 OA
HETATM   12  H   UNL     1       4.024  30.479  58.885  1.00  0.00     0.170 HD
BRANCH  10  13
HETATM   13  C   UNL     1       4.779  32.320  60.188  1.00  0.00     0.142 A 
HETATM   14  O   UNL     1       5.570  32.848  61.181  1.00  0.00    -0.317 OA
HETATM   15  C   UNL     1       4.767  33.064  62.255  1.00  0.00     0.143 A 
HETATM   16  C   UNL     1       3.464  32.736  61.957  1.00  0.00     0.027 A 
HETATM   17  C   UNL     1       3.470  32.265  60.622  1.00  0.00     0.045 A 
ENDBRANCH  10  13
ENDBRANCH   8   9
ENDBRANCH   1   2
BRANCH   1  18
HETATM   18  N   UNL     1       6.917  27.117  57.518  1.00  0.00    -0.056 N 
HETATM   19  H   UNL     1       6.732  26.952  58.517  1.00  0.00     0.281 HD
HETATM   20  C   UNL     1       5.781  26.441  56.780  1.00  0.00     0.256 C 
HETATM   21  C   UNL     1       5.791  24.898  56.935  1.00  0.00     0.152 C 
HETATM   22  N   UNL     1       7.108  24.312  56.633  1.00  0.00    -0.364 N 
HETATM   23  C   UNL     1       8.215  24.927  57.397  1.00  0.00     0.152 C 
HETATM   24  C   UNL     1       8.263  26.459  57.200  1.00  0.00     0.256 C 
BRANCH  22  25
HETATM   25  C   UNL     1       7.318  23.715  55.405  1.00  0.00     0.102 A 
HETATM   26  N   UNL     1       7.547  22.388  55.369  1.00  0.00    -0.352 N 
HETATM   27  H   UNL     1       7.620  21.897  56.256  1.00  0.00     0.166 HD
HETATM   28  C   UNL     1       7.771  21.691  54.242  1.00  0.00     0.089 A 
HETATM   29  C   UNL     1       7.787  22.338  53.019  1.00  0.00     0.017 A 
HETATM   30  C   UNL     1       7.590  23.711  52.991  1.00  0.00     0.005 A 
HETATM   31  C   UNL     1       7.364  24.402  54.182  1.00  0.00     0.048 A 
ENDBRANCH  22  25
ENDBRANCH   1  18
BRANCH   1  32
HETATM   32  C   UNL     1       8.328  29.327  57.208  1.00  0.00    -0.005 A 
HETATM   33  C   UNL     1       8.996  29.392  55.991  1.00  0.00     0.125 A 
HETATM   34  N   UNL     1      10.242  29.887  55.818  1.00  0.00    -0.273 NA
HETATM   35  C   UNL     1      10.851  30.448  56.879  1.00  0.00     0.116 A 
HETATM   36  C   UNL     1      10.261  30.520  58.121  1.00  0.00     0.020 A 
HETATM   37  C   UNL     1       8.995  29.958  58.280  1.00  0.00     0.012 A 
ENDBRANCH   1  32
TORSDOF 6
ENDMDL
MODEL 4
REMARK VINA RESULT:      -9.4      6.463     11.198
REMARK  6 active torsions:
REMARK  status: ('A' for Active; 'I' for Inactive)
REMARK    1  A    between atoms: C_3  and  C_4 
REMARK    2  A    between atoms: C_4  and  N_5 
REMARK    3  A    between atoms: C_4  and  C_19 
REMARK    4  A    between atoms: N_9  and  C_10 
REMARK    5  A    between atoms: C_25  and  N_26 
REMARK       I    between atoms: N_26  and  C_27 
REMARK    6  A    between atoms: C_27  and  C_28 
ROOT
HETATM    1  C   UNL     1       4.651  36.237  62.945  1.00  0.00     0.259 C 
ENDROOT
BRANCH   1   2
HETATM    2  C   UNL     1       4.274  35.809  61.527  1.00  0.00     0.018 A 
HETATM    3  C   UNL     1       3.282  36.559  60.735  1.00  0.00    -0.038 A 
HETATM    4  C   UNL     1       2.656  37.869  61.131  1.00  0.00     0.050 C 
HETATM    5  C   UNL     1       2.958  35.907  59.556  1.00  0.00    -0.013 A 
HETATM    6  S   UNL     1       3.822  34.463  59.368  1.00  0.00    -0.076 SA
HETATM    7  C   UNL     1       1.982  36.314  58.493  1.00  0.00     0.057 C 
HETATM    8  C   UNL     1       4.699  34.693  60.804  1.00  0.00     0.086 A 
BRANCH   8   9
HETATM    9  N   UNL     1       5.759  33.827  61.028  1.00  0.00    -0.315 N 
HETATM   10  C   UNL     1       5.693  32.634  61.742  1.00  0.00     0.280 C 
HETATM   11  O   UNL     1       4.764  32.306  62.468  1.00  0.00    -0.265 OA
HETATM   12  H   UNL     1       6.682  34.039  60.676  1.00  0.00     0.170 HD
BRANCH  10  13
HETATM   13  C   UNL     1       6.941  31.901  61.686  1.00  0.00     0.142 A 
HETATM   14  O   UNL     1       7.391  31.453  60.467  1.00  0.00    -0.317 OA
HETATM   15  C   UNL     1       8.552  30.785  60.694  1.00  0.00     0.143 A 
HETATM   16  C   UNL     1       8.887  30.840  62.027  1.00  0.00     0.027 A 
HETATM   17  C   UNL     1       7.854  31.567  62.666  1.00  0.00     0.045 A 
ENDBRANCH  10  13
ENDBRANCH   8   9
ENDBRANCH   1   2
BRANCH   1  18
HETATM   18  N   UNL     1       5.000  35.096  63.949  1.00  0.00    -0.056 N 
HETATM   19  H   UNL     1       4.815  34.250  63.393  1.00  0.00     0.281 HD
HETATM   20  C   UNL     1       6.447  34.985  64.383  1.00  0.00     0.256 C 
HETATM   21  C   UNL     1       6.699  33.806  65.359  1.00  0.00     0.152 C 
HETATM   22  N   UNL     1       5.754  33.802  66.489  1.00  0.00    -0.364 N 
HETATM   23  C   UNL     1       4.336  33.848  66.070  1.00  0.00     0.152 C 
HETATM   24  C   UNL     1       4.051  35.057  65.150  1.00  0.00     0.256 C 
BRANCH  22  25
HETATM   25  C   UNL     1       6.164  34.285  67.716  1.00  0.00     0.102 A 
HETATM   26  N   UNL     1       7.464  34.600  67.878  1.00  0.00    -0.352 N 
HETATM   27  H   UNL     1       8.097  34.406  67.107  1.00  0.00     0.166 HD
HETATM   28  C   UNL     1       7.989  35.072  69.021  1.00  0.00     0.089 A 
HETATM   29  C   UNL     1       7.184  35.252  70.132  1.00  0.00     0.017 A 
HETATM   30  C   UNL     1       5.841  34.915  70.040  1.00  0.00     0.005 A 
HETATM   31  C   UNL     1       5.332  34.424  68.838  1.00  0.00     0.048 A 
ENDBRANCH  22  25
ENDBRANCH   1  18
BRANCH   1  32
HETATM   32  C   UNL     1       5.523  37.480  62.942  1.00  0.00    -0.005 A 
HETATM   33  C   UNL     1       6.314  37.914  61.885  1.00  0.00     0.125 A 
HETATM   34  N   UNL     1       7.162  38.965  61.935  1.00  0.00    -0.273 NA
HETATM   35  C   UNL     1       7.177  39.712  63.054  1.00  0.00     0.116 A 
HETATM   36  C   UNL     1       6.380  39.434  64.142  1.00  0.00     0.020 A 
HETATM   37  C   UNL     1       5.550  38.315  64.080  1.00  0.00     0.012 A 
ENDBRANCH   1  32
TORSDOF 6
ENDMDL
MODEL 5
REMARK VINA RESULT:      -9.1      5.735     11.954
REMARK  6 active torsions:
REMARK  status: ('A' for Active; 'I' for Inactive)
REMARK    1  A    between atoms: C_3  and  C_4 
REMARK    2  A    between atoms: C_4  and  N_5 
REMARK    3  A    between atoms: C_4  and  C_19 
REMARK    4  A    between atoms: N_9  and  C_10 
REMARK    5  A    between atoms: C_25  and  N_26 
REMARK       I    between atoms: N_26  and  C_27 
REMARK    6  A    between atoms: C_27  and  C_28 
ROOT
HETATM    1  C   UNL     1       4.381  35.032  62.358  1.00  0.00     0.259 C 
ENDROOT
BRANCH   1   2
HETATM    2  C   UNL     1       5.240  34.493  63.501  1.00  0.00     0.018 A 
HETATM    3  C   UNL     1       4.822  34.629  64.908  1.00  0.00    -0.038 A 
HETATM    4  C   UNL     1       3.489  35.147  65.379  1.00  0.00     0.050 C 
HETATM    5  C   UNL     1       5.818  34.235  65.788  1.00  0.00    -0.013 A 
HETATM    6  S   UNL     1       7.201  33.689  64.979  1.00  0.00    -0.076 SA
HETATM    7  C   UNL     1       5.807  34.242  67.287  1.00  0.00     0.057 C 
HETATM    8  C   UNL     1       6.498  33.891  63.446  1.00  0.00     0.086 A 
BRANCH   8   9
HETATM    9  N   UNL     1       7.196  33.365  62.370  1.00  0.00    -0.315 N 
HETATM   10  C   UNL     1       7.186  32.031  61.972  1.00  0.00     0.280 C 
HETATM   11  O   UNL     1       6.763  31.104  62.650  1.00  0.00    -0.265 OA
HETATM   12  H   UNL     1       7.786  33.954  61.799  1.00  0.00     0.170 HD
BRANCH  10  13
HETATM   13  C   UNL     1       7.916  31.829  60.737  1.00  0.00     0.142 A 
HETATM   14  O   UNL     1       7.252  31.305  59.655  1.00  0.00    -0.317 OA
HETATM   15  C   UNL     1       8.158  31.197  58.648  1.00  0.00     0.143 A 
HETATM   16  C   UNL     1       9.379  31.690  59.043  1.00  0.00     0.027 A 
HETATM   17  C   UNL     1       9.222  32.107  60.387  1.00  0.00     0.045 A 
ENDBRANCH  10  13
ENDBRANCH   8   9
ENDBRANCH   1   2
BRANCH   1  18
HETATM   18  N   UNL     1       4.665  36.496  61.901  1.00  0.00    -0.056 N 
HETATM   19  H   UNL     1       4.623  36.418  60.876  1.00  0.00     0.281 HD
HETATM   20  C   UNL     1       3.631  37.540  62.269  1.00  0.00     0.256 C 
HETATM   21  C   UNL     1       3.989  38.957  61.748  1.00  0.00     0.152 C 
HETATM   22  N   UNL     1       5.364  39.353  62.100  1.00  0.00    -0.364 N 
HETATM   23  C   UNL     1       6.384  38.365  61.688  1.00  0.00     0.152 C 
HETATM   24  C   UNL     1       6.080  36.960  62.255  1.00  0.00     0.256 C 
BRANCH  22  25
HETATM   25  C   UNL     1       5.570  40.209  63.163  1.00  0.00     0.102 A 
HETATM   26  N   UNL     1       5.259  41.512  63.008  1.00  0.00    -0.352 N 
HETATM   27  H   UNL     1       4.947  41.816  62.090  1.00  0.00     0.166 HD
HETATM   28  C   UNL     1       5.418  42.444  63.961  1.00  0.00     0.089 A 
HETATM   29  C   UNL     1       5.941  42.094  65.193  1.00  0.00     0.017 A 
HETATM   30  C   UNL     1       6.312  40.775  65.407  1.00  0.00     0.005 A 
HETATM   31  C   UNL     1       6.136  39.834  64.392  1.00  0.00     0.048 A 
ENDBRANCH  22  25
ENDBRANCH   1  18
BRANCH   1  32
HETATM   32  C   UNL     1       4.148  33.981  61.288  1.00  0.00    -0.005 A 
HETATM   33  C   UNL     1       3.528  32.753  61.479  1.00  0.00     0.125 A 
HETATM   34  N   UNL     1       3.419  31.786  60.540  1.00  0.00    -0.273 NA
HETATM   35  C   UNL     1       3.856  32.062  59.297  1.00  0.00     0.116 A 
HETATM   36  C   UNL     1       4.416  33.275  58.959  1.00  0.00     0.020 A 
HETATM   37  C   UNL     1       4.558  34.235  59.961  1.00  0.00     0.012 A 
ENDBRANCH   1  32
TORSDOF 6
ENDMDL
MODEL 6
REMARK VINA RESULT:      -8.9      2.375      6.879
REMARK  6 active torsions:
REMARK  status: ('A' for Active; 'I' for Inactive)
REMARK    1  A    between atoms: C_3  and  C_4 
REMARK    2  A    between atoms: C_4  and  N_5 
REMARK    3  A    between atoms: C_4  and  C_19 
REMARK    4  A    between atoms: N_9  and  C_10 
REMARK    5  A    between atoms: C_25  and  N_26 
REMARK       I    between atoms: N_26  and  C_27 
REMARK    6  A    between atoms: C_27  and  C_28 
ROOT
HETATM    1  C   UNL     1       5.945  28.963  57.366  1.00  0.00     0.259 C 
ENDROOT
BRANCH   1   2
HETATM    2  C   UNL     1       7.302  29.599  57.667  1.00  0.00     0.018 A 
HETATM    3  C   UNL     1       8.466  29.377  56.791  1.00  0.00    -0.038 A 
HETATM    4  C   UNL     1       8.441  28.663  55.466  1.00  0.00     0.050 C 
HETATM    5  C   UNL     1       9.632  29.893  57.334  1.00  0.00    -0.013 A 
HETATM    6  S   UNL     1       9.360  30.648  58.825  1.00  0.00    -0.076 SA
HETATM    7  C   UNL     1      11.026  29.855  56.781  1.00  0.00     0.057 C 
HETATM    8  C   UNL     1       7.685  30.376  58.761  1.00  0.00     0.086 A 
BRANCH   8   9
HETATM    9  N   UNL     1       6.916  31.019  59.720  1.00  0.00    -0.315 N 
HETATM   10  C   UNL     1       6.117  32.137  59.501  1.00  0.00     0.280 C 
HETATM   11  O   UNL     1       6.168  32.848  58.506  1.00  0.00    -0.265 OA
HETATM   12  H   UNL     1       6.909  30.696  60.677  1.00  0.00     0.170 HD
BRANCH  10  13
HETATM   13  C   UNL     1       5.344  32.487  60.676  1.00  0.00     0.142 A 
HETATM   14  O   UNL     1       3.973  32.467  60.595  1.00  0.00    -0.317 OA
HETATM   15  C   UNL     1       3.498  32.853  61.808  1.00  0.00     0.143 A 
HETATM   16  C   UNL     1       4.536  33.072  62.684  1.00  0.00     0.027 A 
HETATM   17  C   UNL     1       5.726  32.827  61.958  1.00  0.00     0.045 A 
ENDBRANCH  10  13
ENDBRANCH   8   9
ENDBRANCH   1   2
BRANCH   1  18
HETATM   18  N   UNL     1       4.931  29.829  56.557  1.00  0.00    -0.056 N 
HETATM   19  H   UNL     1       4.638  29.184  55.811  1.00  0.00     0.281 HD
HETATM   20  C   UNL     1       3.655  30.231  57.267  1.00  0.00     0.256 C 
HETATM   21  C   UNL     1       2.701  31.066  56.373  1.00  0.00     0.152 C 
HETATM   22  N   UNL     1       3.386  32.199  55.727  1.00  0.00    -0.364 N 
HETATM   23  C   UNL     1       4.600  31.803  54.979  1.00  0.00     0.152 C 
HETATM   24  C   UNL     1       5.594  31.028  55.874  1.00  0.00     0.256 C 
BRANCH  22  25
HETATM   25  C   UNL     1       3.238  33.468  56.251  1.00  0.00     0.102 A 
HETATM   26  N   UNL     1       3.361  33.629  57.583  1.00  0.00    -0.352 N 
HETATM   27  H   UNL     1       3.493  32.796  58.149  1.00  0.00     0.166 HD
HETATM   28  C   UNL     1       3.233  34.807  58.215  1.00  0.00     0.089 A 
HETATM   29  C   UNL     1       2.946  35.953  57.495  1.00  0.00     0.017 A 
HETATM   30  C   UNL     1       2.776  35.850  56.122  1.00  0.00     0.005 A 
HETATM   31  C   UNL     1       2.912  34.608  55.500  1.00  0.00     0.048 A 
ENDBRANCH  22  25
ENDBRANCH   1  18
BRANCH   1  32
HETATM   32  C   UNL     1       6.082  27.496  57.004  1.00  0.00    -0.005 A 
HETATM   33  C   UNL     1       6.849  26.559  57.685  1.00  0.00     0.125 A 
HETATM   34  N   UNL     1       7.041  25.281  57.290  1.00  0.00    -0.273 NA
HETATM   35  C   UNL     1       6.366  24.846  56.210  1.00  0.00     0.116 A 
HETATM   36  C   UNL     1       5.510  25.654  55.495  1.00  0.00     0.020 A 
HETATM   37  C   UNL     1       5.369  26.982  55.899  1.00  0.00     0.012 A 
ENDBRANCH   1  32
TORSDOF 6
ENDMDL
MODEL 7
REMARK VINA RESULT:      -8.9      1.702      2.323
REMARK  6 active torsions:
REMARK  status: ('A' for Active; 'I' for Inactive)
REMARK    1  A    between atoms: C_3  and  C_4 
REMARK    2  A    between atoms: C_4  and  N_5 
REMARK    3  A    between atoms: C_4  and  C_19 
REMARK    4  A    between atoms: N_9  and  C_10 
REMARK    5  A    between atoms: C_25  and  N_26 
REMARK       I    between atoms: N_26  and  C_27 
REMARK    6  A    between atoms: C_27  and  C_28 
ROOT
HETATM    1  C   UNL     1       6.056  28.297  55.504  1.00  0.00     0.259 C 
ENDROOT
BRANCH   1   2
HETATM    2  C   UNL     1       5.283  29.547  55.085  1.00  0.00     0.018 A 
HETATM    3  C   UNL     1       4.439  29.561  53.876  1.00  0.00    -0.038 A 
HETATM    4  C   UNL     1       4.114  28.365  53.022  1.00  0.00     0.050 C 
HETATM    5  C   UNL     1       3.973  30.832  53.581  1.00  0.00    -0.013 A 
HETATM    6  S   UNL     1       4.489  31.978  54.716  1.00  0.00    -0.076 SA
HETATM    7  C   UNL     1       3.116  31.278  52.435  1.00  0.00     0.057 C 
HETATM    8  C   UNL     1       5.284  30.816  55.666  1.00  0.00     0.086 A 
BRANCH   8   9
HETATM    9  N   UNL     1       5.739  31.236  56.907  1.00  0.00    -0.315 N 
HETATM   10  C   UNL     1       4.959  31.371  58.052  1.00  0.00     0.280 C 
HETATM   11  O   UNL     1       3.735  31.374  58.067  1.00  0.00    -0.265 OA
HETATM   12  H   UNL     1       6.707  31.489  57.043  1.00  0.00     0.170 HD
BRANCH  10  13
HETATM   13  C   UNL     1       5.758  31.707  59.213  1.00  0.00     0.142 A 
HETATM   14  O   UNL     1       7.053  31.250  59.279  1.00  0.00    -0.317 OA
HETATM   15  C   UNL     1       7.564  31.678  60.463  1.00  0.00     0.143 A 
HETATM   16  C   UNL     1       6.643  32.446  61.137  1.00  0.00     0.027 A 
HETATM   17  C   UNL     1       5.481  32.472  60.328  1.00  0.00     0.045 A 
ENDBRANCH  10  13
ENDBRANCH   8   9
ENDBRANCH   1   2
BRANCH   1  18
HETATM   18  N   UNL     1       6.063  27.108  54.495  1.00  0.00    -0.056 N 
HETATM   19  H   UNL     1       5.445  27.452  53.746  1.00  0.00     0.281 HD
HETATM   20  C   UNL     1       7.380  26.794  53.816  1.00  0.00     0.256 C 
HETATM   21  C   UNL     1       7.280  25.616  52.813  1.00  0.00     0.152 C 
HETATM   22  N   UNL     1       6.634  24.430  53.402  1.00  0.00    -0.364 N 
HETATM   23  C   UNL     1       5.318  24.719  54.012  1.00  0.00     0.152 C 
HETATM   24  C   UNL     1       5.412  25.846  55.066  1.00  0.00     0.256 C 
BRANCH  22  25
HETATM   25  C   UNL     1       7.417  23.377  53.831  1.00  0.00     0.102 A 
HETATM   26  N   UNL     1       7.783  23.337  55.128  1.00  0.00    -0.352 N 
HETATM   27  H   UNL     1       7.519  24.121  55.718  1.00  0.00     0.166 HD
HETATM   28  C   UNL     1       8.547  22.372  55.667  1.00  0.00     0.089 A 
HETATM   29  C   UNL     1       9.019  21.339  54.876  1.00  0.00     0.017 A 
HETATM   30  C   UNL     1       8.705  21.339  53.525  1.00  0.00     0.005 A 
HETATM   31  C   UNL     1       7.913  22.360  52.999  1.00  0.00     0.048 A 
ENDBRANCH  22  25
ENDBRANCH   1  18
BRANCH   1  32
HETATM   32  C   UNL     1       7.356  28.651  56.203  1.00  0.00    -0.005 A 
HETATM   33  C   UNL     1       7.630  28.464  57.552  1.00  0.00     0.125 A 
HETATM   34  N   UNL     1       8.754  28.877  58.178  1.00  0.00    -0.273 NA
HETATM   35  C   UNL     1       9.728  29.426  57.430  1.00  0.00     0.116 A 
HETATM   36  C   UNL     1       9.612  29.592  56.067  1.00  0.00     0.020 A 
HETATM   37  C   UNL     1       8.421  29.199  55.456  1.00  0.00     0.012 A 
ENDBRANCH   1  32
TORSDOF 6
ENDMDL
MODEL 8
REMARK VINA RESULT:      -8.9      4.237      7.660
REMARK  6 active torsions:
REMARK  status: ('A' for Active; 'I' for Inactive)
REMARK    1  A    between atoms: C_3  and  C_4 
REMARK    2  A    between atoms: C_4  and  N_5 
REMARK    3  A    between atoms: C_4  and  C_19 
REMARK    4  A    between atoms: N_9  and  C_10 
REMARK    5  A    between atoms: C_25  and  N_26 
REMARK       I    between atoms: N_26  and  C_27 
REMARK    6  A    between atoms: C_27  and  C_28 
ROOT
HETATM    1  C   UNL     1       5.637  27.287  54.233  1.00  0.00     0.259 C 
ENDROOT
BRANCH   1   2
HETATM    2  C   UNL     1       6.365  27.789  55.480  1.00  0.00     0.018 A 
HETATM    3  C   UNL     1       6.056  29.102  56.074  1.00  0.00    -0.038 A 
HETATM    4  C   UNL     1       4.932  30.011  55.653  1.00  0.00     0.050 C 
HETATM    5  C   UNL     1       6.944  29.438  57.083  1.00  0.00    -0.013 A 
HETATM    6  S   UNL     1       8.096  28.225  57.348  1.00  0.00    -0.076 SA
HETATM    7  C   UNL     1       6.996  30.685  57.915  1.00  0.00     0.057 C 
HETATM    8  C   UNL     1       7.411  27.194  56.186  1.00  0.00     0.086 A 
BRANCH   8   9
HETATM    9  N   UNL     1       7.898  25.895  56.147  1.00  0.00    -0.315 N 
HETATM   10  C   UNL     1       7.256  24.774  56.666  1.00  0.00     0.280 C 
HETATM   11  O   UNL     1       6.304  24.808  57.434  1.00  0.00    -0.265 OA
HETATM   12  H   UNL     1       8.794  25.692  55.728  1.00  0.00     0.170 HD
BRANCH  10  13
HETATM   13  C   UNL     1       7.966  23.551  56.351  1.00  0.00     0.142 A 
HETATM   14  O   UNL     1       8.894  23.568  55.337  1.00  0.00    -0.317 OA
HETATM   15  C   UNL     1       9.389  22.307  55.233  1.00  0.00     0.143 A 
HETATM   16  C   UNL     1       8.838  21.491  56.193  1.00  0.00     0.027 A 
HETATM   17  C   UNL     1       7.927  22.295  56.921  1.00  0.00     0.045 A 
ENDBRANCH  10  13
ENDBRANCH   8   9
ENDBRANCH   1   2
BRANCH   1  18
HETATM   18  N   UNL     1       4.987  28.370  53.319  1.00  0.00    -0.056 N 
HETATM   19  H   UNL     1       5.018  29.208  53.916  1.00  0.00     0.281 HD
HETATM   20  C   UNL     1       5.741  28.745  52.060  1.00  0.00     0.256 C 
HETATM   21  C   UNL     1       5.029  29.847  51.232  1.00  0.00     0.152 C 
HETATM   22  N   UNL     1       3.610  29.536  50.988  1.00  0.00    -0.364 N 
HETATM   23  C   UNL     1       2.854  29.230  52.221  1.00  0.00     0.152 C 
HETATM   24  C   UNL     1       3.512  28.085  53.026  1.00  0.00     0.256 C 
BRANCH  22  25
HETATM   25  C   UNL     1       3.229  29.033  49.760  1.00  0.00     0.102 A 
HETATM   26  N   UNL     1       2.112  28.281  49.693  1.00  0.00    -0.352 N 
HETATM   27  H   UNL     1       1.636  28.065  50.565  1.00  0.00     0.166 HD
HETATM   28  C   UNL     1       1.640  27.730  48.563  1.00  0.00     0.089 A 
HETATM   29  C   UNL     1       2.316  27.909  47.369  1.00  0.00     0.017 A 
HETATM   30  C   UNL     1       3.491  28.647  47.375  1.00  0.00     0.005 A 
HETATM   31  C   UNL     1       3.954  29.201  48.569  1.00  0.00     0.048 A 
ENDBRANCH  22  25
ENDBRANCH   1  18
BRANCH   1  32
HETATM   32  C   UNL     1       6.387  26.146  53.569  1.00  0.00    -0.005 A 
HETATM   33  C   UNL     1       7.643  26.233  52.982  1.00  0.00     0.125 A 
HETATM   34  N   UNL     1       8.253  25.233  52.306  1.00  0.00    -0.273 NA
HETATM   35  C   UNL     1       7.648  24.032  52.276  1.00  0.00     0.116 A 
HETATM   36  C   UNL     1       6.438  23.794  52.889  1.00  0.00     0.020 A 
HETATM   37  C   UNL     1       5.811  24.857  53.539  1.00  0.00     0.012 A 
ENDBRANCH   1  32
TORSDOF 6
ENDMDL
MODEL 9
REMARK VINA RESULT:      -8.8      3.758      8.335
REMARK  6 active torsions:
REMARK  status: ('A' for Active; 'I' for Inactive)
REMARK    1  A    between atoms: C_3  and  C_4 
REMARK    2  A    between atoms: C_4  and  N_5 
REMARK    3  A    between atoms: C_4  and  C_19 
REMARK    4  A    between atoms: N_9  and  C_10 
REMARK    5  A    between atoms: C_25  and  N_26 
REMARK       I    between atoms: N_26  and  C_27 
REMARK    6  A    between atoms: C_27  and  C_28 
ROOT
HETATM    1  C   UNL     1       7.185  28.892  55.727  1.00  0.00     0.259 C 
ENDROOT
BRANCH   1   2
HETATM    2  C   UNL     1       7.235  27.427  55.295  1.00  0.00     0.018 A 
HETATM    3  C   UNL     1       7.436  26.342  56.273  1.00  0.00    -0.038 A 
HETATM    4  C   UNL     1       7.457  26.506  57.769  1.00  0.00     0.050 C 
HETATM    5  C   UNL     1       7.627  25.116  55.657  1.00  0.00    -0.013 A 
HETATM    6  S   UNL     1       7.542  25.230  53.970  1.00  0.00    -0.076 SA
HETATM    7  C   UNL     1       7.888  23.779  56.284  1.00  0.00     0.057 C 
HETATM    8  C   UNL     1       7.182  26.889  54.008  1.00  0.00     0.086 A 
BRANCH   8   9
HETATM    9  N   UNL     1       6.797  27.467  52.807  1.00  0.00    -0.315 N 
HETATM   10  C   UNL     1       5.502  27.491  52.299  1.00  0.00     0.280 C 
HETATM   11  O   UNL     1       4.576  26.805  52.712  1.00  0.00    -0.265 OA
HETATM   12  H   UNL     1       7.477  27.911  52.207  1.00  0.00     0.170 HD
BRANCH  10  13
HETATM   13  C   UNL     1       5.411  28.281  51.088  1.00  0.00     0.142 A 
HETATM   14  O   UNL     1       5.951  29.545  51.081  1.00  0.00    -0.317 OA
HETATM   15  C   UNL     1       5.713  30.071  49.851  1.00  0.00     0.143 A 
HETATM   16  C   UNL     1       5.078  29.152  49.048  1.00  0.00     0.027 A 
HETATM   17  C   UNL     1       4.891  27.995  49.842  1.00  0.00     0.045 A 
ENDBRANCH  10  13
ENDBRANCH   8   9
ENDBRANCH   1   2
BRANCH   1  18
HETATM   18  N   UNL     1       5.863  29.377  56.398  1.00  0.00    -0.056 N 
HETATM   19  H   UNL     1       5.739  28.693  57.157  1.00  0.00     0.281 HD
HETATM   20  C   UNL     1       5.898  30.730  57.077  1.00  0.00     0.256 C 
HETATM   21  C   UNL     1       4.546  31.112  57.737  1.00  0.00     0.152 C 
HETATM   22  N   UNL     1       3.408  30.955  56.816  1.00  0.00    -0.364 N 
HETATM   23  C   UNL     1       3.334  29.614  56.196  1.00  0.00     0.152 C 
HETATM   24  C   UNL     1       4.650  29.244  55.474  1.00  0.00     0.256 C 
BRANCH  22  25
HETATM   25  C   UNL     1       2.879  32.071  56.197  1.00  0.00     0.102 A 
HETATM   26  N   UNL     1       2.043  31.890  55.155  1.00  0.00    -0.352 N 
HETATM   27  H   UNL     1       1.891  30.939  54.831  1.00  0.00     0.166 HD
HETATM   28  C   UNL     1       1.469  32.890  54.467  1.00  0.00     0.089 A 
HETATM   29  C   UNL     1       1.731  34.205  54.806  1.00  0.00     0.017 A 
HETATM   30  C   UNL     1       2.610  34.460  55.849  1.00  0.00     0.005 A 
HETATM   31  C   UNL     1       3.191  33.396  56.539  1.00  0.00     0.048 A 
ENDBRANCH  22  25
ENDBRANCH   1  18
BRANCH   1  32
HETATM   32  C   UNL     1       8.502  29.343  56.331  1.00  0.00    -0.005 A 
HETATM   33  C   UNL     1       9.716  29.425  55.661  1.00  0.00     0.125 A 
HETATM   34  N   UNL     1      10.900  29.731  56.239  1.00  0.00    -0.273 NA
HETATM   35  C   UNL     1      10.896  30.078  57.539  1.00  0.00     0.116 A 
HETATM   36  C   UNL     1       9.745  30.116  58.294  1.00  0.00     0.020 A 
HETATM   37  C   UNL     1       8.546  29.749  57.683  1.00  0.00     0.012 A 
ENDBRANCH   1  32
TORSDOF 6
ENDMDL
MODEL 10
REMARK VINA RESULT:      -8.8      3.607      6.332
REMARK  6 active torsions:
REMARK  status: ('A' for Active; 'I' for Inactive)
REMARK    1  A    between atoms: C_3  and  C_4 
REMARK    2  A    between atoms: C_4  and  N_5 
REMARK    3  A    between atoms: C_4  and  C_19 
REMARK    4  A    between atoms: N_9  and  C_10 
REMARK    5  A    between atoms: C_25  and  N_26 
REMARK       I    between atoms: N_26  and  C_27 
REMARK    6  A    between atoms: C_27  and  C_28 
ROOT
HETATM    1  C   UNL     1       6.008  28.128  55.308  1.00  0.00     0.259 C 
ENDROOT
BRANCH   1   2
HETATM    2  C   UNL     1       5.217  29.366  54.889  1.00  0.00     0.018 A 
HETATM    3  C   UNL     1       4.935  30.457  55.839  1.00  0.00    -0.038 A 
HETATM    4  C   UNL     1       5.492  30.570  57.232  1.00  0.00     0.050 C 
HETATM    5  C   UNL     1       4.061  31.394  55.311  1.00  0.00    -0.013 A 
HETATM    6  S   UNL     1       3.607  31.018  53.724  1.00  0.00    -0.076 SA
HETATM    7  C   UNL     1       3.505  32.630  55.953  1.00  0.00     0.057 C 
HETATM    8  C   UNL     1       4.605  29.645  53.665  1.00  0.00     0.086 A 
BRANCH   8   9
HETATM    9  N   UNL     1       4.760  29.044  52.425  1.00  0.00    -0.315 N 
HETATM   10  C   UNL     1       3.730  28.727  51.544  1.00  0.00     0.280 C 
HETATM   11  O   UNL     1       2.542  28.710  51.837  1.00  0.00    -0.265 OA
HETATM   12  H   UNL     1       5.676  28.782  52.090  1.00  0.00     0.170 HD
BRANCH  10  13
HETATM   13  C   UNL     1       4.234  28.225  50.282  1.00  0.00     0.142 A 
HETATM   14  O   UNL     1       4.275  29.073  49.202  1.00  0.00    -0.317 OA
HETATM   15  C   UNL     1       4.758  28.357  48.153  1.00  0.00     0.143 A 
HETATM   16  C   UNL     1       5.079  27.079  48.549  1.00  0.00     0.027 A 
HETATM   17  C   UNL     1       4.750  26.996  49.924  1.00  0.00     0.045 A 
ENDBRANCH  10  13
ENDBRANCH   8   9
ENDBRANCH   1   2
BRANCH   1  18
HETATM   18  N   UNL     1       6.119  26.981  54.257  1.00  0.00    -0.056 N 
HETATM   19  H   UNL     1       5.568  27.351  53.470  1.00  0.00     0.281 HD
HETATM   20  C   UNL     1       7.496  26.702  53.691  1.00  0.00     0.256 C 
HETATM   21  C   UNL     1       7.499  25.564  52.636  1.00  0.00     0.152 C 
HETATM   22  N   UNL     1       6.814  24.352  53.117  1.00  0.00    -0.364 N 
HETATM   23  C   UNL     1       5.445  24.608  53.614  1.00  0.00     0.152 C 
HETATM   24  C   UNL     1       5.430  25.693  54.716  1.00  0.00     0.256 C 
BRANCH  22  25
HETATM   25  C   UNL     1       7.564  23.287  53.574  1.00  0.00     0.102 A 
HETATM   26  N   UNL     1       8.315  23.460  54.680  1.00  0.00    -0.352 N 
HETATM   27  H   UNL     1       8.344  24.389  55.090  1.00  0.00     0.166 HD
HETATM   28  C   UNL     1       9.093  22.507  55.220  1.00  0.00     0.089 A 
HETATM   29  C   UNL     1       9.167  21.257  54.633  1.00  0.00     0.017 A 
HETATM   30  C   UNL     1       8.443  21.024  53.473  1.00  0.00     0.005 A 
HETATM   31  C   UNL     1       7.649  22.039  52.937  1.00  0.00     0.048 A 
ENDBRANCH  22  25
ENDBRANCH   1  18
BRANCH   1  32
HETATM   32  C   UNL     1       7.250  28.497  56.098  1.00  0.00    -0.005 A 
HETATM   33  C   UNL     1       7.462  28.236  57.446  1.00  0.00     0.125 A 
HETATM   34  N   UNL     1       8.529  28.662  58.159  1.00  0.00    -0.273 NA
HETATM   35  C   UNL     1       9.511  29.304  57.501  1.00  0.00     0.116 A 
HETATM   36  C   UNL     1       9.459  29.552  56.147  1.00  0.00     0.020 A 
HETATM   37  C   UNL     1       8.324  29.143  55.447  1.00  0.00     0.012 A 
ENDBRANCH   1  32
TORSDOF 6
ENDMDL
