MODEL 1
REMARK VINA RESULT:      -8.5      0.000      0.000
REMARK  8 active torsions:
REMARK  status: ('A' for Active; 'I' for Inactive)
REMARK    1  A    between atoms: C_2  and  C_3 
REMARK    2  A    between atoms: C_3  and  N_4 
REMARK    3  A    between atoms: C_7  and  C_8 
REMARK       I    between atoms: C_8  and  N_9 
REMARK    4  A    between atoms: N_9  and  N_10 
REMARK       I    between atoms: N_10  and  C_11 
REMARK    5  A    between atoms: C_11  and  C_12 
REMARK    6  A    between atoms: C_12  and  O_13 
REMARK    7  A    between atoms: O_13  and  C_14 
REMARK    8  A    between atoms: C_23  and  C_24 
ROOT
HETATM    1  C   UNL     1       5.351  26.121  56.547  1.00  0.00     0.273 C 
HETATM    2  N   UNL     1       5.160  25.533  55.300  1.00  0.00    -0.263 N 
HETATM    3  O   UNL     1       4.476  26.002  57.401  1.00  0.00    -0.266 OA
HETATM    4  H   UNL     1       4.420  24.836  55.279  1.00  0.00     0.190 HD
ENDROOT
BRANCH   2   5
HETATM    5  N   UNL     1       6.179  25.407  54.345  1.00  0.00    -0.265 N 
HETATM    6  C   UNL     1       5.916  24.840  53.107  1.00  0.00     0.260 C 
HETATM    7  O   UNL     1       4.797  24.499  52.733  1.00  0.00    -0.269 OA
HETATM    8  H   UNL     1       7.095  25.787  54.566  1.00  0.00     0.190 HD
BRANCH   6   9
HETATM    9  C   UNL     1       7.176  24.607  52.284  1.00  0.00     0.280 C 
BRANCH   9  10
HETATM   10  O   UNL     1       8.239  24.257  53.169  1.00  0.00    -0.342 OA
BRANCH  10  11
HETATM   11  C   UNL     1       8.231  22.941  53.548  1.00  0.00     0.069 A 
HETATM   12  C   UNL     1       8.382  22.692  54.914  1.00  0.00     0.043 A 
HETATM   13  C   UNL     1       8.367  21.379  55.406  1.00  0.00    -0.059 A 
HETATM   14  C   UNL     1       8.530  21.101  56.872  1.00  0.00     0.048 C 
HETATM   15  C   UNL     1       8.160  20.321  54.514  1.00  0.00     0.007 A 
HETATM   16  C   UNL     1       7.985  20.570  53.153  1.00  0.00     0.003 A 
HETATM   17  C   UNL     1       8.020  21.879  52.668  1.00  0.00     0.037 A 
ENDBRANCH  10  11
ENDBRANCH   9  10
ENDBRANCH   6   9
ENDBRANCH   2   5
BRANCH   1  18
HETATM   18  C   UNL     1       6.574  26.883  56.748  1.00  0.00     0.077 A 
HETATM   19  C   UNL     1       7.775  26.379  57.302  1.00  0.00     0.158 A 
HETATM   20  N   UNL     1       8.699  27.315  57.497  1.00  0.00    -0.183 NA
HETATM   21  N   UNL     1       8.142  28.426  56.973  1.00  0.00    -0.268 N 
HETATM   22  C   UNL     1       6.854  28.224  56.512  1.00  0.00     0.052 A 
BRANCH  21  23
HETATM   23  C   UNL     1       8.872  29.695  57.035  1.00  0.00     0.106 C 
HETATM   24  C   UNL     1       8.996  30.148  58.493  1.00  0.00     0.034 C 
BRANCH  23  25
HETATM   25  C   UNL     1      10.267  29.663  56.372  1.00  0.00     0.022 C 
HETATM   26  C   UNL     1      11.398  29.995  57.337  1.00  0.00     0.007 C 
ENDBRANCH  23  25
ENDBRANCH  21  23
BRANCH  22  27
HETATM   27  C   UNL     1       5.971  29.343  55.947  1.00  0.00     0.038 A 
HETATM   28  C   UNL     1       4.475  29.315  56.146  1.00  0.00     0.011 A 
HETATM   29  C   UNL     1       5.297  30.331  56.869  1.00  0.00     0.011 A 
ENDBRANCH  22  27
ENDBRANCH   1  18
TORSDOF 8
ENDMDL
MODEL 2
REMARK VINA RESULT:      -8.2      1.929      6.881
REMARK  8 active torsions:
REMARK  status: ('A' for Active; 'I' for Inactive)
REMARK    1  A    between atoms: C_2  and  C_3 
REMARK    2  A    between atoms: C_3  and  N_4 
REMARK    3  A    between atoms: C_7  and  C_8 
REMARK       I    between atoms: C_8  and  N_9 
REMARK    4  A    between atoms: N_9  and  N_10 
REMARK       I    between atoms: N_10  and  C_11 
REMARK    5  A    between atoms: C_11  and  C_12 
REMARK    6  A    between atoms: C_12  and  O_13 
REMARK    7  A    between atoms: O_13  and  C_14 
REMARK    8  A    between atoms: C_23  and  C_24 
ROOT
HETATM    1  C   UNL     1       5.087  25.840  53.546  1.00  0.00     0.273 C 
HETATM    2  N   UNL     1       4.989  27.229  53.535  1.00  0.00    -0.263 N 
HETATM    3  O   UNL     1       4.538  25.197  52.655  1.00  0.00    -0.266 OA
HETATM    4  H   UNL     1       4.681  27.615  52.647  1.00  0.00     0.190 HD
ENDROOT
BRANCH   2   5
HETATM    5  N   UNL     1       5.763  28.061  54.357  1.00  0.00    -0.265 N 
HETATM    6  C   UNL     1       5.174  28.761  55.399  1.00  0.00     0.260 C 
HETATM    7  O   UNL     1       3.996  28.644  55.725  1.00  0.00    -0.269 OA
HETATM    8  H   UNL     1       6.766  28.095  54.199  1.00  0.00     0.190 HD
BRANCH   6   9
HETATM    9  C   UNL     1       6.123  29.758  56.051  1.00  0.00     0.280 C 
BRANCH   9  10
HETATM   10  O   UNL     1       6.943  29.061  56.988  1.00  0.00    -0.342 OA
BRANCH  10  11
HETATM   11  C   UNL     1       8.183  29.618  57.156  1.00  0.00     0.069 A 
HETATM   12  C   UNL     1       8.338  30.453  58.266  1.00  0.00     0.043 A 
HETATM   13  C   UNL     1       9.575  31.055  58.537  1.00  0.00    -0.059 A 
HETATM   14  C   UNL     1       9.751  31.955  59.726  1.00  0.00     0.048 C 
HETATM   15  C   UNL     1      10.664  30.778  57.704  1.00  0.00     0.007 A 
HETATM   16  C   UNL     1      10.516  29.926  56.610  1.00  0.00     0.003 A 
HETATM   17  C   UNL     1       9.276  29.344  56.335  1.00  0.00     0.037 A 
ENDBRANCH  10  11
ENDBRANCH   9  10
ENDBRANCH   6   9
ENDBRANCH   2   5
BRANCH   1  18
HETATM   18  C   UNL     1       5.813  25.229  54.650  1.00  0.00     0.077 A 
HETATM   19  C   UNL     1       5.387  25.199  55.999  1.00  0.00     0.158 A 
HETATM   20  N   UNL     1       6.296  24.694  56.827  1.00  0.00    -0.183 NA
HETATM   21  N   UNL     1       7.288  24.293  56.006  1.00  0.00    -0.268 N 
HETATM   22  C   UNL     1       7.052  24.598  54.678  1.00  0.00     0.052 A 
BRANCH  21  23
HETATM   23  C   UNL     1       8.500  23.701  56.578  1.00  0.00     0.106 C 
HETATM   24  C   UNL     1       9.009  24.578  57.727  1.00  0.00     0.034 C 
BRANCH  23  25
HETATM   25  C   UNL     1       8.334  22.244  57.060  1.00  0.00     0.022 C 
HETATM   26  C   UNL     1       7.987  21.276  55.935  1.00  0.00     0.007 C 
ENDBRANCH  23  25
ENDBRANCH  21  23
BRANCH  22  27
HETATM   27  C   UNL     1       8.059  24.325  53.555  1.00  0.00     0.038 A 
HETATM   28  C   UNL     1       7.844  23.183  52.592  1.00  0.00     0.011 A 
HETATM   29  C   UNL     1       7.695  24.590  52.114  1.00  0.00     0.011 A 
ENDBRANCH  22  27
ENDBRANCH   1  18
TORSDOF 8
ENDMDL
MODEL 3
REMARK VINA RESULT:      -8.1      2.744      8.107
REMARK  8 active torsions:
REMARK  status: ('A' for Active; 'I' for Inactive)
REMARK    1  A    between atoms: C_2  and  C_3 
REMARK    2  A    between atoms: C_3  and  N_4 
REMARK    3  A    between atoms: C_7  and  C_8 
REMARK       I    between atoms: C_8  and  N_9 
REMARK    4  A    between atoms: N_9  and  N_10 
REMARK       I    between atoms: N_10  and  C_11 
REMARK    5  A    between atoms: C_11  and  C_12 
REMARK    6  A    between atoms: C_12  and  O_13 
REMARK    7  A    between atoms: O_13  and  C_14 
REMARK    8  A    between atoms: C_23  and  C_24 
ROOT
HETATM    1  C   UNL     1       5.133  27.571  54.468  1.00  0.00     0.273 C 
HETATM    2  N   UNL     1       5.463  28.800  55.032  1.00  0.00    -0.263 N 
HETATM    3  O   UNL     1       4.317  27.537  53.550  1.00  0.00    -0.266 OA
HETATM    4  H   UNL     1       5.190  29.601  54.470  1.00  0.00     0.190 HD
ENDROOT
BRANCH   2   5
HETATM    5  N   UNL     1       6.541  28.977  55.912  1.00  0.00    -0.265 N 
HETATM    6  C   UNL     1       6.317  29.319  57.237  1.00  0.00     0.260 C 
HETATM    7  O   UNL     1       5.202  29.402  57.744  1.00  0.00    -0.269 OA
HETATM    8  H   UNL     1       7.479  28.799  55.565  1.00  0.00     0.190 HD
BRANCH   6   9
HETATM    9  C   UNL     1       7.599  29.661  57.983  1.00  0.00     0.280 C 
BRANCH   9  10
HETATM   10  O   UNL     1       7.582  31.052  58.303  1.00  0.00    -0.342 OA
BRANCH  10  11
HETATM   11  C   UNL     1       7.973  31.327  59.587  1.00  0.00     0.069 A 
HETATM   12  C   UNL     1       7.225  32.293  60.265  1.00  0.00     0.043 A 
HETATM   13  C   UNL     1       7.532  32.632  61.590  1.00  0.00    -0.059 A 
HETATM   14  C   UNL     1       6.735  33.669  62.326  1.00  0.00     0.048 C 
HETATM   15  C   UNL     1       8.574  31.962  62.240  1.00  0.00     0.007 A 
HETATM   16  C   UNL     1       9.307  30.981  61.571  1.00  0.00     0.003 A 
HETATM   17  C   UNL     1       9.007  30.662  60.245  1.00  0.00     0.037 A 
ENDBRANCH  10  11
ENDBRANCH   9  10
ENDBRANCH   6   9
ENDBRANCH   2   5
BRANCH   1  18
HETATM   18  C   UNL     1       5.756  26.384  55.034  1.00  0.00     0.077 A 
HETATM   19  C   UNL     1       5.440  25.807  56.287  1.00  0.00     0.158 A 
HETATM   20  N   UNL     1       6.246  24.806  56.625  1.00  0.00    -0.183 NA
HETATM   21  N   UNL     1       7.035  24.653  55.542  1.00  0.00    -0.268 N 
HETATM   22  C   UNL     1       6.787  25.585  54.551  1.00  0.00     0.052 A 
BRANCH  21  23
HETATM   23  C   UNL     1       8.091  23.637  55.559  1.00  0.00     0.106 C 
HETATM   24  C   UNL     1       8.930  23.787  56.832  1.00  0.00     0.034 C 
BRANCH  23  25
HETATM   25  C   UNL     1       7.585  22.185  55.428  1.00  0.00     0.022 C 
HETATM   26  C   UNL     1       8.271  21.221  56.388  1.00  0.00     0.007 C 
ENDBRANCH  23  25
ENDBRANCH  21  23
BRANCH  22  27
HETATM   27  C   UNL     1       7.601  25.682  53.256  1.00  0.00     0.038 A 
HETATM   28  C   UNL     1       7.867  24.451  52.423  1.00  0.00     0.011 A 
HETATM   29  C   UNL     1       6.934  25.501  51.913  1.00  0.00     0.011 A 
ENDBRANCH  22  27
ENDBRANCH   1  18
TORSDOF 8
ENDMDL
MODEL 4
REMARK VINA RESULT:      -8.1      4.900      7.369
REMARK  8 active torsions:
REMARK  status: ('A' for Active; 'I' for Inactive)
REMARK    1  A    between atoms: C_2  and  C_3 
REMARK    2  A    between atoms: C_3  and  N_4 
REMARK    3  A    between atoms: C_7  and  C_8 
REMARK       I    between atoms: C_8  and  N_9 
REMARK    4  A    between atoms: N_9  and  N_10 
REMARK       I    between atoms: N_10  and  C_11 
REMARK    5  A    between atoms: C_11  and  C_12 
REMARK    6  A    between atoms: C_12  and  O_13 
REMARK    7  A    between atoms: O_13  and  C_14 
REMARK    8  A    between atoms: C_23  and  C_24 
ROOT
HETATM    1  C   UNL     1       5.660  29.861  50.564  1.00  0.00     0.273 C 
HETATM    2  N   UNL     1       5.806  29.411  51.873  1.00  0.00    -0.263 N 
HETATM    3  O   UNL     1       6.051  30.989  50.275  1.00  0.00    -0.266 OA
HETATM    4  H   UNL     1       6.457  29.959  52.429  1.00  0.00     0.190 HD
ENDROOT
BRANCH   2   5
HETATM    5  N   UNL     1       5.613  28.075  52.252  1.00  0.00    -0.265 N 
HETATM    6  C   UNL     1       6.503  27.454  53.115  1.00  0.00     0.260 C 
HETATM    7  O   UNL     1       7.440  28.029  53.663  1.00  0.00    -0.269 OA
HETATM    8  H   UNL     1       4.781  27.595  51.918  1.00  0.00     0.190 HD
BRANCH   6   9
HETATM    9  C   UNL     1       6.247  25.960  53.254  1.00  0.00     0.280 C 
BRANCH   9  10
HETATM   10  O   UNL     1       7.475  25.265  53.039  1.00  0.00    -0.342 OA
BRANCH  10  11
HETATM   11  C   UNL     1       7.564  24.080  53.721  1.00  0.00     0.069 A 
HETATM   12  C   UNL     1       7.888  22.954  52.959  1.00  0.00     0.043 A 
HETATM   13  C   UNL     1       8.023  21.697  53.566  1.00  0.00    -0.059 A 
HETATM   14  C   UNL     1       8.369  20.482  52.756  1.00  0.00     0.048 C 
HETATM   15  C   UNL     1       7.867  21.591  54.953  1.00  0.00     0.007 A 
HETATM   16  C   UNL     1       7.567  22.719  55.717  1.00  0.00     0.003 A 
HETATM   17  C   UNL     1       7.416  23.964  55.103  1.00  0.00     0.037 A 
ENDBRANCH  10  11
ENDBRANCH   9  10
ENDBRANCH   6   9
ENDBRANCH   2   5
BRANCH   1  18
HETATM   18  C   UNL     1       5.008  28.969  49.617  1.00  0.00     0.077 A 
HETATM   19  C   UNL     1       5.632  28.346  48.510  1.00  0.00     0.158 A 
HETATM   20  N   UNL     1       4.782  27.686  47.729  1.00  0.00    -0.183 NA
HETATM   21  N   UNL     1       3.606  27.787  48.381  1.00  0.00    -0.268 N 
HETATM   22  C   UNL     1       3.683  28.558  49.526  1.00  0.00     0.052 A 
BRANCH  21  23
HETATM   23  C   UNL     1       2.404  27.191  47.792  1.00  0.00     0.106 C 
HETATM   24  C   UNL     1       1.725  28.207  46.868  1.00  0.00     0.034 C 
BRANCH  23  25
HETATM   25  C   UNL     1       2.650  25.869  47.033  1.00  0.00     0.022 C 
HETATM   26  C   UNL     1       2.952  24.695  47.955  1.00  0.00     0.007 C 
ENDBRANCH  23  25
ENDBRANCH  21  23
BRANCH  22  27
HETATM   27  C   UNL     1       2.471  28.897  50.402  1.00  0.00     0.038 A 
HETATM   28  C   UNL     1       2.405  30.207  51.149  1.00  0.00     0.011 A 
HETATM   29  C   UNL     1       1.498  29.974  49.986  1.00  0.00     0.011 A 
ENDBRANCH  22  27
ENDBRANCH   1  18
TORSDOF 8
ENDMDL
MODEL 5
REMARK VINA RESULT:      -8.0      3.779      6.054
REMARK  8 active torsions:
REMARK  status: ('A' for Active; 'I' for Inactive)
REMARK    1  A    between atoms: C_2  and  C_3 
REMARK    2  A    between atoms: C_3  and  N_4 
REMARK    3  A    between atoms: C_7  and  C_8 
REMARK       I    between atoms: C_8  and  N_9 
REMARK    4  A    between atoms: N_9  and  N_10 
REMARK       I    between atoms: N_10  and  C_11 
REMARK    5  A    between atoms: C_11  and  C_12 
REMARK    6  A    between atoms: C_12  and  O_13 
REMARK    7  A    between atoms: O_13  and  C_14 
REMARK    8  A    between atoms: C_23  and  C_24 
ROOT
HETATM    1  C   UNL     1       9.353  31.319  58.472  1.00  0.00     0.273 C 
HETATM    2  N   UNL     1       9.576  30.012  58.047  1.00  0.00    -0.263 N 
HETATM    3  O   UNL     1      10.236  32.157  58.311  1.00  0.00    -0.266 OA
HETATM    4  H   UNL     1      10.359  29.913  57.407  1.00  0.00     0.190 HD
ENDROOT
BRANCH   2   5
HETATM    5  N   UNL     1       8.563  29.046  57.968  1.00  0.00    -0.265 N 
HETATM    6  C   UNL     1       8.008  28.710  56.743  1.00  0.00     0.260 C 
HETATM    7  O   UNL     1       8.405  29.148  55.666  1.00  0.00    -0.269 OA
HETATM    8  H   UNL     1       8.286  28.568  58.821  1.00  0.00     0.190 HD
BRANCH   6   9
HETATM    9  C   UNL     1       6.796  27.798  56.874  1.00  0.00     0.280 C 
BRANCH   9  10
HETATM   10  O   UNL     1       6.624  27.089  55.647  1.00  0.00    -0.342 OA
BRANCH  10  11
HETATM   11  C   UNL     1       7.168  25.832  55.657  1.00  0.00     0.069 A 
HETATM   12  C   UNL     1       7.299  25.207  54.413  1.00  0.00     0.043 A 
HETATM   13  C   UNL     1       7.862  23.927  54.313  1.00  0.00    -0.059 A 
HETATM   14  C   UNL     1       8.005  23.248  52.983  1.00  0.00     0.048 C 
HETATM   15  C   UNL     1       8.329  23.298  55.472  1.00  0.00     0.007 A 
HETATM   16  C   UNL     1       8.221  23.930  56.711  1.00  0.00     0.003 A 
HETATM   17  C   UNL     1       7.642  25.197  56.805  1.00  0.00     0.037 A 
ENDBRANCH  10  11
ENDBRANCH   9  10
ENDBRANCH   6   9
ENDBRANCH   2   5
BRANCH   1  18
HETATM   18  C   UNL     1       8.083  31.604  59.124  1.00  0.00     0.077 A 
HETATM   19  C   UNL     1       6.848  31.813  58.465  1.00  0.00     0.158 A 
HETATM   20  N   UNL     1       5.870  32.185  59.284  1.00  0.00    -0.183 NA
HETATM   21  N   UNL     1       6.436  32.121  60.507  1.00  0.00    -0.268 N 
HETATM   22  C   UNL     1       7.776  31.780  60.469  1.00  0.00     0.052 A 
BRANCH  21  23
HETATM   23  C   UNL     1       5.651  32.498  61.684  1.00  0.00     0.106 C 
HETATM   24  C   UNL     1       5.896  33.974  62.016  1.00  0.00     0.034 C 
BRANCH  23  25
HETATM   25  C   UNL     1       4.136  32.230  61.556  1.00  0.00     0.022 C 
HETATM   26  C   UNL     1       3.281  33.261  62.281  1.00  0.00     0.007 C 
ENDBRANCH  23  25
ENDBRANCH  21  23
BRANCH  22  27
HETATM   27  C   UNL     1       8.670  31.720  61.712  1.00  0.00     0.038 A 
HETATM   28  C   UNL     1       8.341  30.785  62.850  1.00  0.00     0.011 A 
HETATM   29  C   UNL     1       9.527  30.507  61.986  1.00  0.00     0.011 A 
ENDBRANCH  22  27
ENDBRANCH   1  18
TORSDOF 8
ENDMDL
MODEL 6
REMARK VINA RESULT:      -7.9      1.915      2.637
REMARK  8 active torsions:
REMARK  status: ('A' for Active; 'I' for Inactive)
REMARK    1  A    between atoms: C_2  and  C_3 
REMARK    2  A    between atoms: C_3  and  N_4 
REMARK    3  A    between atoms: C_7  and  C_8 
REMARK       I    between atoms: C_8  and  N_9 
REMARK    4  A    between atoms: N_9  and  N_10 
REMARK       I    between atoms: N_10  and  C_11 
REMARK    5  A    between atoms: C_11  and  C_12 
REMARK    6  A    between atoms: C_12  and  O_13 
REMARK    7  A    between atoms: O_13  and  C_14 
REMARK    8  A    between atoms: C_23  and  C_24 
ROOT
HETATM    1  C   UNL     1       4.093  28.626  53.680  1.00  0.00     0.273 C 
HETATM    2  N   UNL     1       3.629  27.441  53.116  1.00  0.00    -0.263 N 
HETATM    3  O   UNL     1       3.389  29.631  53.616  1.00  0.00    -0.266 OA
HETATM    4  H   UNL     1       2.633  27.439  52.917  1.00  0.00     0.190 HD
ENDROOT
BRANCH   2   5
HETATM    5  N   UNL     1       4.237  26.196  53.335  1.00  0.00    -0.265 N 
HETATM    6  C   UNL     1       4.969  25.586  52.327  1.00  0.00     0.260 C 
HETATM    7  O   UNL     1       5.206  26.106  51.240  1.00  0.00    -0.269 OA
HETATM    8  H   UNL     1       4.169  25.783  54.260  1.00  0.00     0.190 HD
BRANCH   6   9
HETATM    9  C   UNL     1       5.383  24.163  52.677  1.00  0.00     0.280 C 
BRANCH   9  10
HETATM   10  O   UNL     1       6.804  24.068  52.594  1.00  0.00    -0.342 OA
BRANCH  10  11
HETATM   11  C   UNL     1       7.387  23.535  53.713  1.00  0.00     0.069 A 
HETATM   12  C   UNL     1       7.740  22.185  53.642  1.00  0.00     0.043 A 
HETATM   13  C   UNL     1       8.360  21.551  54.727  1.00  0.00    -0.059 A 
HETATM   14  C   UNL     1       8.741  20.101  54.661  1.00  0.00     0.048 C 
HETATM   15  C   UNL     1       8.658  22.299  55.872  1.00  0.00     0.007 A 
HETATM   16  C   UNL     1       8.328  23.653  55.935  1.00  0.00     0.003 A 
HETATM   17  C   UNL     1       7.693  24.273  54.857  1.00  0.00     0.037 A 
ENDBRANCH  10  11
ENDBRANCH   9  10
ENDBRANCH   6   9
ENDBRANCH   2   5
BRANCH   1  18
HETATM   18  C   UNL     1       5.417  28.608  54.284  1.00  0.00     0.077 A 
HETATM   19  C   UNL     1       6.629  28.348  53.602  1.00  0.00     0.158 A 
HETATM   20  N   UNL     1       7.681  28.262  54.411  1.00  0.00    -0.183 NA
HETATM   21  N   UNL     1       7.177  28.570  55.623  1.00  0.00    -0.268 N 
HETATM   22  C   UNL     1       5.810  28.782  55.607  1.00  0.00     0.052 A 
BRANCH  21  23
HETATM   23  C   UNL     1       8.056  28.549  56.794  1.00  0.00     0.106 C 
HETATM   24  C   UNL     1       8.190  27.113  57.312  1.00  0.00     0.034 C 
BRANCH  23  25
HETATM   25  C   UNL     1       9.455  29.156  56.555  1.00  0.00     0.022 C 
HETATM   26  C   UNL     1       9.886  30.120  57.654  1.00  0.00     0.007 C 
ENDBRANCH  23  25
ENDBRANCH  21  23
BRANCH  22  27
HETATM   27  C   UNL     1       4.982  29.064  56.865  1.00  0.00     0.038 A 
HETATM   28  C   UNL     1       5.286  30.261  57.733  1.00  0.00     0.011 A 
HETATM   29  C   UNL     1       4.035  30.239  56.917  1.00  0.00     0.011 A 
ENDBRANCH  22  27
ENDBRANCH   1  18
TORSDOF 8
ENDMDL
MODEL 7
REMARK VINA RESULT:      -7.8      5.233      9.890
REMARK  8 active torsions:
REMARK  status: ('A' for Active; 'I' for Inactive)
REMARK    1  A    between atoms: C_2  and  C_3 
REMARK    2  A    between atoms: C_3  and  N_4 
REMARK    3  A    between atoms: C_7  and  C_8 
REMARK       I    between atoms: C_8  and  N_9 
REMARK    4  A    between atoms: N_9  and  N_10 
REMARK       I    between atoms: N_10  and  C_11 
REMARK    5  A    between atoms: C_11  and  C_12 
REMARK    6  A    between atoms: C_12  and  O_13 
REMARK    7  A    between atoms: O_13  and  C_14 
REMARK    8  A    between atoms: C_23  and  C_24 
ROOT
HETATM    1  C   UNL     1       4.555  30.815  57.705  1.00  0.00     0.273 C 
HETATM    2  N   UNL     1       3.512  30.644  58.611  1.00  0.00    -0.263 N 
HETATM    3  O   UNL     1       4.327  30.690  56.504  1.00  0.00    -0.266 OA
HETATM    4  H   UNL     1       2.588  30.678  58.190  1.00  0.00     0.190 HD
ENDROOT
BRANCH   2   5
HETATM    5  N   UNL     1       3.607  30.991  59.966  1.00  0.00    -0.265 N 
HETATM    6  C   UNL     1       3.294  32.275  60.386  1.00  0.00     0.260 C 
HETATM    7  O   UNL     1       2.843  33.147  59.647  1.00  0.00    -0.269 OA
HETATM    8  H   UNL     1       3.861  30.267  60.632  1.00  0.00     0.190 HD
BRANCH   6   9
HETATM    9  C   UNL     1       3.645  32.521  61.847  1.00  0.00     0.280 C 
BRANCH   9  10
HETATM   10  O   UNL     1       4.922  31.943  62.112  1.00  0.00    -0.342 OA
BRANCH  10  11
HETATM   11  C   UNL     1       5.599  32.548  63.138  1.00  0.00     0.069 A 
HETATM   12  C   UNL     1       4.820  33.020  64.197  1.00  0.00     0.043 A 
HETATM   13  C   UNL     1       5.420  33.638  65.304  1.00  0.00    -0.059 A 
HETATM   14  C   UNL     1       4.592  34.150  66.446  1.00  0.00     0.048 C 
HETATM   15  C   UNL     1       6.815  33.740  65.352  1.00  0.00     0.007 A 
HETATM   16  C   UNL     1       7.595  33.247  64.306  1.00  0.00     0.003 A 
HETATM   17  C   UNL     1       6.989  32.650  63.198  1.00  0.00     0.037 A 
ENDBRANCH  10  11
ENDBRANCH   9  10
ENDBRANCH   6   9
ENDBRANCH   2   5
BRANCH   1  18
HETATM   18  C   UNL     1       5.876  31.098  58.248  1.00  0.00     0.077 A 
HETATM   19  C   UNL     1       6.321  32.357  58.715  1.00  0.00     0.158 A 
HETATM   20  N   UNL     1       7.611  32.373  59.037  1.00  0.00    -0.183 NA
HETATM   21  N   UNL     1       7.995  31.090  58.880  1.00  0.00    -0.268 N 
HETATM   22  C   UNL     1       6.987  30.276  58.397  1.00  0.00     0.052 A 
BRANCH  21  23
HETATM   23  C   UNL     1       9.393  30.723  59.120  1.00  0.00     0.106 C 
HETATM   24  C   UNL     1      10.266  31.240  57.972  1.00  0.00     0.034 C 
BRANCH  23  25
HETATM   25  C   UNL     1       9.958  31.207  60.473  1.00  0.00     0.022 C 
HETATM   26  C   UNL     1       9.387  30.451  61.666  1.00  0.00     0.007 C 
ENDBRANCH  23  25
ENDBRANCH  21  23
BRANCH  22  27
HETATM   27  C   UNL     1       7.186  28.795  58.052  1.00  0.00     0.038 A 
HETATM   28  C   UNL     1       6.611  28.219  56.782  1.00  0.00     0.011 A 
HETATM   29  C   UNL     1       8.089  28.385  56.913  1.00  0.00     0.011 A 
ENDBRANCH  22  27
ENDBRANCH   1  18
TORSDOF 8
ENDMDL
MODEL 8
REMARK VINA RESULT:      -7.8      4.376      6.365
REMARK  8 active torsions:
REMARK  status: ('A' for Active; 'I' for Inactive)
REMARK    1  A    between atoms: C_2  and  C_3 
REMARK    2  A    between atoms: C_3  and  N_4 
REMARK    3  A    between atoms: C_7  and  C_8 
REMARK       I    between atoms: C_8  and  N_9 
REMARK    4  A    between atoms: N_9  and  N_10 
REMARK       I    between atoms: N_10  and  C_11 
REMARK    5  A    between atoms: C_11  and  C_12 
REMARK    6  A    between atoms: C_12  and  O_13 
REMARK    7  A    between atoms: O_13  and  C_14 
REMARK    8  A    between atoms: C_23  and  C_24 
ROOT
HETATM    1  C   UNL     1       3.852  29.289  53.042  1.00  0.00     0.273 C 
HETATM    2  N   UNL     1       3.696  28.317  54.026  1.00  0.00    -0.263 N 
HETATM    3  O   UNL     1       3.663  30.467  53.332  1.00  0.00    -0.266 OA
HETATM    4  H   UNL     1       3.683  28.686  54.973  1.00  0.00     0.190 HD
ENDROOT
BRANCH   2   5
HETATM    5  N   UNL     1       4.111  26.988  53.866  1.00  0.00    -0.265 N 
HETATM    6  C   UNL     1       5.293  26.547  54.441  1.00  0.00     0.260 C 
HETATM    7  O   UNL     1       5.996  27.235  55.177  1.00  0.00    -0.269 OA
HETATM    8  H   UNL     1       3.499  26.350  53.365  1.00  0.00     0.190 HD
BRANCH   6   9
HETATM    9  C   UNL     1       5.678  25.142  53.997  1.00  0.00     0.280 C 
BRANCH   9  10
HETATM   10  O   UNL     1       6.760  24.688  54.809  1.00  0.00    -0.342 OA
BRANCH  10  11
HETATM   11  C   UNL     1       7.254  23.466  54.437  1.00  0.00     0.069 A 
HETATM   12  C   UNL     1       7.463  22.545  55.466  1.00  0.00     0.043 A 
HETATM   13  C   UNL     1       7.948  21.260  55.186  1.00  0.00    -0.059 A 
HETATM   14  C   UNL     1       8.177  20.264  56.286  1.00  0.00     0.048 C 
HETATM   15  C   UNL     1       8.183  20.897  53.856  1.00  0.00     0.007 A 
HETATM   16  C   UNL     1       7.952  21.808  52.825  1.00  0.00     0.003 A 
HETATM   17  C   UNL     1       7.487  23.092  53.113  1.00  0.00     0.037 A 
ENDBRANCH  10  11
ENDBRANCH   9  10
ENDBRANCH   6   9
ENDBRANCH   2   5
BRANCH   1  18
HETATM   18  C   UNL     1       4.198  28.836  51.702  1.00  0.00     0.077 A 
HETATM   19  C   UNL     1       5.495  28.479  51.263  1.00  0.00     0.158 A 
HETATM   20  N   UNL     1       5.559  28.227  49.959  1.00  0.00    -0.183 NA
HETATM   21  N   UNL     1       4.276  28.317  49.554  1.00  0.00    -0.268 N 
HETATM   22  C   UNL     1       3.410  28.689  50.566  1.00  0.00     0.052 A 
BRANCH  21  23
HETATM   23  C   UNL     1       3.953  28.125  48.138  1.00  0.00     0.106 C 
HETATM   24  C   UNL     1       4.728  29.141  47.291  1.00  0.00     0.034 C 
BRANCH  23  25
HETATM   25  C   UNL     1       4.207  26.696  47.611  1.00  0.00     0.022 C 
HETATM   26  C   UNL     1       3.292  25.654  48.242  1.00  0.00     0.007 C 
ENDBRANCH  23  25
ENDBRANCH  21  23
BRANCH  22  27
HETATM   27  C   UNL     1       1.913  28.943  50.350  1.00  0.00     0.038 A 
HETATM   28  C   UNL     1       1.361  30.347  50.372  1.00  0.00     0.011 A 
HETATM   29  C   UNL     1       1.418  29.597  49.082  1.00  0.00     0.011 A 
ENDBRANCH  22  27
ENDBRANCH   1  18
TORSDOF 8
ENDMDL
MODEL 9
REMARK VINA RESULT:      -7.4      8.391     11.047
REMARK  8 active torsions:
REMARK  status: ('A' for Active; 'I' for Inactive)
REMARK    1  A    between atoms: C_2  and  C_3 
REMARK    2  A    between atoms: C_3  and  N_4 
REMARK    3  A    between atoms: C_7  and  C_8 
REMARK       I    between atoms: C_8  and  N_9 
REMARK    4  A    between atoms: N_9  and  N_10 
REMARK       I    between atoms: N_10  and  C_11 
REMARK    5  A    between atoms: C_11  and  C_12 
REMARK    6  A    between atoms: C_12  and  O_13 
REMARK    7  A    between atoms: O_13  and  C_14 
REMARK    8  A    between atoms: C_23  and  C_24 
ROOT
HETATM    1  C   UNL     1       2.320  35.439  60.661  1.00  0.00     0.273 C 
HETATM    2  N   UNL     1       3.108  35.152  59.550  1.00  0.00    -0.263 N 
HETATM    3  O   UNL     1       1.282  36.078  60.505  1.00  0.00    -0.266 OA
HETATM    4  H   UNL     1       2.633  35.277  58.661  1.00  0.00     0.190 HD
ENDROOT
BRANCH   2   5
HETATM    5  N   UNL     1       4.174  34.241  59.580  1.00  0.00    -0.265 N 
HETATM    6  C   UNL     1       4.082  33.032  58.906  1.00  0.00     0.260 C 
HETATM    7  O   UNL     1       3.137  32.717  58.189  1.00  0.00    -0.269 OA
HETATM    8  H   UNL     1       5.026  34.512  60.062  1.00  0.00     0.190 HD
BRANCH   6   9
HETATM    9  C   UNL     1       5.243  32.095  59.213  1.00  0.00     0.280 C 
BRANCH   9  10
HETATM   10  O   UNL     1       5.573  32.216  60.596  1.00  0.00    -0.342 OA
BRANCH  10  11
HETATM   11  C   UNL     1       6.910  32.079  60.859  1.00  0.00     0.069 A 
HETATM   12  C   UNL     1       7.749  31.970  59.746  1.00  0.00     0.043 A 
HETATM   13  C   UNL     1       9.136  31.845  59.908  1.00  0.00    -0.059 A 
HETATM   14  C   UNL     1      10.044  31.726  58.719  1.00  0.00     0.048 C 
HETATM   15  C   UNL     1       9.675  31.871  61.199  1.00  0.00     0.007 A 
HETATM   16  C   UNL     1       8.840  32.004  62.309  1.00  0.00     0.003 A 
HETATM   17  C   UNL     1       7.458  32.108  62.141  1.00  0.00     0.037 A 
ENDBRANCH  10  11
ENDBRANCH   9  10
ENDBRANCH   6   9
ENDBRANCH   2   5
BRANCH   1  18
HETATM   18  C   UNL     1       2.801  34.990  61.959  1.00  0.00     0.077 A 
HETATM   19  C   UNL     1       2.442  33.779  62.596  1.00  0.00     0.158 A 
HETATM   20  N   UNL     1       2.919  33.672  63.832  1.00  0.00    -0.183 NA
HETATM   21  N   UNL     1       3.684  34.773  63.975  1.00  0.00    -0.268 N 
HETATM   22  C   UNL     1       3.644  35.610  62.875  1.00  0.00     0.052 A 
BRANCH  21  23
HETATM   23  C   UNL     1       4.363  35.017  65.250  1.00  0.00     0.106 C 
HETATM   24  C   UNL     1       3.337  35.427  66.311  1.00  0.00     0.034 C 
BRANCH  23  25
HETATM   25  C   UNL     1       5.207  33.830  65.763  1.00  0.00     0.022 C 
HETATM   26  C   UNL     1       6.666  33.899  65.328  1.00  0.00     0.007 C 
ENDBRANCH  23  25
ENDBRANCH  21  23
BRANCH  22  27
HETATM   27  C   UNL     1       4.358  36.965  62.815  1.00  0.00     0.038 A 
HETATM   28  C   UNL     1       5.763  37.117  63.347  1.00  0.00     0.011 A 
HETATM   29  C   UNL     1       5.520  37.183  61.875  1.00  0.00     0.011 A 
ENDBRANCH  22  27
ENDBRANCH   1  18
TORSDOF 8
ENDMDL
MODEL 10
REMARK VINA RESULT:      -7.3      2.662      4.789
REMARK  8 active torsions:
REMARK  status: ('A' for Active; 'I' for Inactive)
REMARK    1  A    between atoms: C_2  and  C_3 
REMARK    2  A    between atoms: C_3  and  N_4 
REMARK    3  A    between atoms: C_7  and  C_8 
REMARK       I    between atoms: C_8  and  N_9 
REMARK    4  A    between atoms: N_9  and  N_10 
REMARK       I    between atoms: N_10  and  C_11 
REMARK    5  A    between atoms: C_11  and  C_12 
REMARK    6  A    between atoms: C_12  and  O_13 
REMARK    7  A    between atoms: O_13  and  C_14 
REMARK    8  A    between atoms: C_23  and  C_24 
ROOT
HETATM    1  C   UNL     1       9.016  29.613  57.549  1.00  0.00     0.273 C 
HETATM    2  N   UNL     1       9.056  28.257  57.240  1.00  0.00    -0.263 N 
HETATM    3  O   UNL     1      10.068  30.201  57.788  1.00  0.00    -0.266 OA
HETATM    4  H   UNL     1       9.981  27.916  56.990  1.00  0.00     0.190 HD
ENDROOT
BRANCH   2   5
HETATM    5  N   UNL     1       7.958  27.552  56.727  1.00  0.00    -0.265 N 
HETATM    6  C   UNL     1       7.490  26.417  57.371  1.00  0.00     0.260 C 
HETATM    7  O   UNL     1       7.926  26.008  58.444  1.00  0.00    -0.269 OA
HETATM    8  H   UNL     1       7.488  27.924  55.907  1.00  0.00     0.190 HD
BRANCH   6   9
HETATM    9  C   UNL     1       6.428  25.678  56.568  1.00  0.00     0.280 C 
BRANCH   9  10
HETATM   10  O   UNL     1       6.751  24.288  56.554  1.00  0.00    -0.342 OA
BRANCH  10  11
HETATM   11  C   UNL     1       7.102  23.816  55.317  1.00  0.00     0.069 A 
HETATM   12  C   UNL     1       7.507  22.480  55.260  1.00  0.00     0.043 A 
HETATM   13  C   UNL     1       7.868  21.896  54.037  1.00  0.00    -0.059 A 
HETATM   14  C   UNL     1       8.306  20.463  53.965  1.00  0.00     0.048 C 
HETATM   15  C   UNL     1       7.779  22.659  52.867  1.00  0.00     0.007 A 
HETATM   16  C   UNL     1       7.352  23.986  52.920  1.00  0.00     0.003 A 
HETATM   17  C   UNL     1       7.012  24.566  54.145  1.00  0.00     0.037 A 
ENDBRANCH  10  11
ENDBRANCH   9  10
ENDBRANCH   6   9
ENDBRANCH   2   5
BRANCH   1  18
HETATM   18  C   UNL     1       7.708  30.250  57.606  1.00  0.00     0.077 A 
HETATM   19  C   UNL     1       6.637  30.009  56.714  1.00  0.00     0.158 A 
HETATM   20  N   UNL     1       5.598  30.816  56.908  1.00  0.00    -0.183 NA
HETATM   21  N   UNL     1       5.945  31.525  58.002  1.00  0.00    -0.268 N 
HETATM   22  C   UNL     1       7.215  31.228  58.462  1.00  0.00     0.052 A 
BRANCH  21  23
HETATM   23  C   UNL     1       5.039  32.558  58.507  1.00  0.00     0.106 C 
HETATM   24  C   UNL     1       5.023  33.748  57.542  1.00  0.00     0.034 C 
BRANCH  23  25
HETATM   25  C   UNL     1       3.597  32.072  58.769  1.00  0.00     0.022 C 
HETATM   26  C   UNL     1       3.348  31.687  60.222  1.00  0.00     0.007 C 
ENDBRANCH  23  25
ENDBRANCH  21  23
BRANCH  22  27
HETATM   27  C   UNL     1       7.880  31.951  59.639  1.00  0.00     0.038 A 
HETATM   28  C   UNL     1       7.203  32.010  60.987  1.00  0.00     0.011 A 
HETATM   29  C   UNL     1       8.427  31.173  60.811  1.00  0.00     0.011 A 
ENDBRANCH  22  27
ENDBRANCH   1  18
TORSDOF 8
ENDMDL
